REMARK  Name = ZINC08827625
REMARK  19 active torsions:
REMARK  status: ('A' for Active; 'I' for Inactive)
REMARK    1  A    between atoms: C_1  and  C_2
REMARK    2  A    between atoms: C_3  and  C_13
REMARK    3  A    between atoms: C_4  and  C_12
REMARK    4  A    between atoms: C_7  and  C_8
REMARK    5  A    between atoms: C_8  and  O_10
REMARK    6  A    between atoms: O_10  and  C_11
REMARK    7  A    between atoms: C_13  and  C_15
REMARK    8  A    between atoms: C_16  and  O_37
REMARK    9  A    between atoms: N_19  and  C_32
REMARK   10  A    between atoms: C_20  and  C_22
REMARK   11  A    between atoms: C_24  and  O_30
REMARK   12  A    between atoms: C_27  and  O_28
REMARK   13  A    between atoms: O_28  and  C_29
REMARK   14  A    between atoms: O_30  and  C_31
REMARK   15  A    between atoms: C_32  and  C_33
REMARK   16  A    between atoms: C_33  and  C_34
REMARK   17  A    between atoms: C_34  and  N_69
REMARK   18  A    between atoms: C_35  and  N_69
REMARK   19  A    between atoms: C_36  and  N_69
REMARK                            x       y       z     vdW  Elec       q    Type
REMARK                         _______ _______ _______ _____ _____    ______ ____
ROOT
ATOM      1  C   UNL     1      -5.565  -0.196  -5.756  0.00  0.00    +0.071 C 
ATOM      2  C   UNL     1      -6.144   1.001  -5.505  0.00  0.00    +0.188 C 
ATOM      3  C   UNL     1      -5.548   1.582  -4.284  0.00  0.00    +0.282 C 
ATOM      4  O   UNL     1      -5.860   2.650  -3.796  0.00  0.00    -0.267 OA
ATOM      5  N   UNL     1      -4.606   0.755  -3.794  0.00  0.00    -0.284 N 
ATOM      6  C   UNL     1      -4.542  -0.422  -4.668  0.00  0.00    +0.148 C 
ENDROOT
BRANCH   6   7
ATOM      7  C   UNL     1      -3.166  -0.547  -5.269  0.00  0.00    +0.023 A 
ATOM      8  C   UNL     1      -2.450   0.588  -5.599  0.00  0.00    +0.055 A 
ATOM      9  C   UNL     1      -1.184   0.473  -6.151  0.00  0.00    +0.121 A 
ATOM     10  C   UNL     1      -0.635  -0.781  -6.372  0.00  0.00    +0.049 A 
ATOM     11  C   UNL     1      -1.349  -1.916  -6.042  0.00  0.00    +0.049 A 
ATOM     12  C   UNL     1      -2.615  -1.801  -5.485  0.00  0.00    +0.126 A 
BRANCH  12  13
ATOM     13  O   UNL     1      -3.316  -2.918  -5.155  0.00  0.00    -0.495 OA
ATOM     14  C   UNL     1      -2.651  -4.173  -5.314  0.00  0.00    +0.277 C 
ENDBRANCH  12  13
BRANCH   9  15
ATOM     15  O   UNL     1      -0.480   1.590  -6.476  0.00  0.00    -0.495 OA
ATOM     16  C   UNL     1       0.819   1.397  -7.041  0.00  0.00    +0.277 C 
ENDBRANCH   9  15
ENDBRANCH   6   7
BRANCH   1  17
ATOM     17  C   UNL     1      -5.873  -1.099  -6.869  0.00  0.00    +0.197 C 
ATOM     18  O   UNL     1      -5.160  -1.115  -7.856  0.00  0.00    -0.287 OA
BRANCH  17  21
ATOM     19  C   UNL     1      -6.901  -3.042  -9.175  0.00  0.00    +0.047 C 
ATOM     20  C   UNL     1      -7.511  -2.855  -7.810  0.00  0.00    -0.008 A 
ATOM     21  C   UNL     1      -7.046  -1.989  -6.794  0.00  0.00    +0.046 A 
ATOM     22  C   UNL     1      -7.904  -2.130  -5.717  0.00  0.00    +0.025 A 
ATOM     23  N   UNL     1      -8.843  -3.034  -6.039  0.00  0.00    -0.352 N 
ATOM     24  H   UNL     1      -9.569  -3.319  -5.462  0.00  0.00    +0.166 HD
ATOM     25  C   UNL     1      -8.613  -3.490  -7.319  0.00  0.00    +0.128 A 
ATOM     26  C   UNL     1      -7.801  -1.395  -4.406  0.00  0.00    +0.064 C 
BRANCH  25  27
ATOM     27  C   UNL     1      -9.420  -4.485  -8.034  0.00  0.00    +0.356 C 
ATOM     28  O   UNL     1      -9.120  -4.811  -9.166  0.00  0.00    -0.243 OA
BRANCH  27  29
ATOM     29  O   UNL     1     -10.495  -5.037  -7.436  0.00  0.00    -0.463 OA
ATOM     30  C   UNL     1     -11.247  -6.014  -8.203  0.00  0.00    +0.280 C 
ENDBRANCH  27  29
ENDBRANCH  25  27
ENDBRANCH  17  21
ENDBRANCH   1  17
BRANCH   2  31
ATOM     31  O   UNL     1      -7.116   1.574  -6.251  0.00  0.00    -0.502 OA
ATOM     32  H   UNL     1      -7.369   2.455  -5.851  0.00  0.00    +0.292 HD
ENDBRANCH   2  31
BRANCH   5  33
ATOM     33  C   UNL     1      -3.794   0.987  -2.597  0.00  0.00    +0.107 C 
BRANCH  33  34
ATOM     34  C   UNL     1      -2.578   1.840  -2.963  0.00  0.00    +0.000 C 
BRANCH  34  35
ATOM     35  C   UNL     1      -1.806   2.199  -1.692  0.00  0.00    -0.078 C 
BRANCH  35  38
ATOM     36  C   UNL     1      -1.051   4.321  -2.582  0.00  0.00    -0.097 C 
ATOM     37  C   UNL     1       0.255   3.185  -0.889  0.00  0.00    -0.097 C 
ATOM     38  N   UNL     1      -0.623   3.005  -2.064  0.00  0.00    +0.376 N 
ATOM     39  H   UNL     1      -0.101   2.511  -2.798  0.00  0.00    -0.083 HD
ENDBRANCH  35  38
ENDBRANCH  34  35
ENDBRANCH  33  34
ENDBRANCH   5  33
TORSDOF 12
