REMARK  Name = ZINC39695944
REMARK  8 active torsions:
REMARK  status: ('A' for Active; 'I' for Inactive)
REMARK    1  A    between atoms: C_1  and  C_2
REMARK    2  A    between atoms: C_2  and  C_3
REMARK    3  A    between atoms: C_6  and  C_9
REMARK    4  A    between atoms: C_9  and  C_11
REMARK    5  A    between atoms: C_9  and  N_12
REMARK    6  A    between atoms: C_13  and  C_15
REMARK    7  A    between atoms: C_26  and  C_28
REMARK    8  A    between atoms: C_31  and  C_34
REMARK                            x       y       z     vdW  Elec       q    Type
REMARK                         _______ _______ _______ _____ _____    ______ ____
ROOT
ATOM      1  C   UNL     1       1.168  -5.250   7.020  0.00  0.00    +0.100 C 
ATOM      2  C   UNL     1       0.600  -5.926   5.753  0.00  0.00    +0.121 C 
ATOM      3  N   UNL     1       1.502  -7.074   5.503  0.00  0.00    -0.296 N 
ATOM      4  C   UNL     1       1.798  -7.611   6.854  0.00  0.00    +0.115 C 
ATOM      5  C   UNL     1       1.951  -6.360   7.742  0.00  0.00    -0.004 C 
ATOM      6  C   UNL     1       1.353  -6.616   9.122  0.00  0.00    -0.010 C 
ATOM      7  C   UNL     1       2.183  -7.682   9.844  0.00  0.00    -0.082 C 
ATOM      8  N   UNL     1       3.572  -7.222   9.967  0.00  0.00    +0.379 N 
ATOM      9  C   UNL     1       4.169  -7.068   8.635  0.00  0.00    -0.082 C 
ATOM     10  C   UNL     1       3.422  -5.976   7.863  0.00  0.00    -0.010 C 
ATOM     11  C   UNL     1       1.952  -7.529   4.317  0.00  0.00    +0.247 C 
ATOM     12  O   UNL     1       1.722  -6.905   3.300  0.00  0.00    -0.270 OA
ATOM     13  H   UNL     1       3.590  -6.335  10.447  0.00  0.00    -0.086 HD
ATOM     14  H   UNL     1       4.103  -7.898  10.496  0.00  0.00    -0.086 HD
ENDROOT
BRANCH  11  15
ATOM     15  C   UNL     1       2.727  -8.787   4.254  0.00  0.00    +0.037 A 
ATOM     16  C   UNL     1       2.636  -9.719   5.288  0.00  0.00    +0.013 A 
ATOM     17  C   UNL     1       3.361 -10.891   5.223  0.00  0.00    +0.013 A 
ATOM     18  C   UNL     1       4.177 -11.143   4.134  0.00  0.00    +0.055 A 
ATOM     19  C   UNL     1       4.272 -10.223   3.105  0.00  0.00    +0.013 A 
ATOM     20  C   UNL     1       3.548  -9.050   3.156  0.00  0.00    +0.013 A 
BRANCH  18  21
ATOM     21  C   UNL     1       4.966 -12.425   4.069  0.00  0.00    +0.417 C 
ATOM     22  F   UNL     1       4.205 -13.410   3.431  0.00  0.00    -0.166 F 
ATOM     23  F   UNL     1       6.147 -12.210   3.350  0.00  0.00    -0.166 F 
ATOM     24  F   UNL     1       5.280 -12.846   5.366  0.00  0.00    -0.166 F 
ENDBRANCH  18  21
ENDBRANCH  11  15
BRANCH   1  26
ATOM     25  N   UNL     1       2.315  -3.115   7.514  0.00  0.00    -0.308 N 
ATOM     26  C   UNL     1       2.090  -4.119   6.644  0.00  0.00    +0.219 C 
ATOM     27  O   UNL     1       2.628  -4.112   5.557  0.00  0.00    -0.275 OA
ATOM     28  H   UNL     1       1.884  -3.120   8.383  0.00  0.00    +0.149 HD
BRANCH  25  29
ATOM     29  C   UNL     1       3.210  -2.014   7.148  0.00  0.00    +0.100 C 
ATOM     30  C   UNL     1       4.656  -2.410   7.456  0.00  0.00    +0.033 C 
BRANCH  29  34
ATOM     31  C   UNL     1       2.175   1.470   9.391  0.00  0.00    -0.048 A 
ATOM     32  C   UNL     1       2.528   1.585   8.060  0.00  0.00    +0.004 A 
ATOM     33  C   UNL     1       2.863   0.457   7.334  0.00  0.00    +0.006 A 
ATOM     34  C   UNL     1       2.846  -0.785   7.939  0.00  0.00    -0.027 A 
ATOM     35  C   UNL     1       2.494  -0.900   9.271  0.00  0.00    +0.006 A 
ATOM     36  C   UNL     1       2.163   0.228   9.998  0.00  0.00    +0.004 A 
BRANCH  31  38
ATOM     37  C   UNL     1       3.069   3.285  10.826  0.00  0.00    +0.009 C 
ATOM     38  C   UNL     1       1.810   2.699  10.183  0.00  0.00    +0.032 C 
ENDBRANCH  31  38
ENDBRANCH  29  34
ENDBRANCH  25  29
ENDBRANCH   1  26
TORSDOF 6
