REMARK  Name = ZINC47599401
REMARK  12 active torsions:
REMARK  status: ('A' for Active; 'I' for Inactive)
REMARK    1  A    between atoms: C_1  and  C_2
REMARK    2  A    between atoms: C_2  and  CA_3
REMARK    3  A    between atoms: CA_3  and  C_5
REMARK    4  A    between atoms: CA_3  and  N_7
REMARK    5  A    between atoms: C_5  and  O_6
REMARK    6  A    between atoms: N_10  and  C_11
REMARK    7  A    between atoms: C_11  and  C_12
REMARK    8  A    between atoms: C_12  and  C_14
REMARK    9  A    between atoms: C_12  and  C_23
REMARK   10  A    between atoms: C_17  and  N_20
REMARK   11  A    between atoms: N_20  and  C_21
REMARK   12  A    between atoms: N_20  and  C_22
REMARK                            x       y       z     vdW  Elec       q    Type
REMARK                         _______ _______ _______ _____ _____    ______ ____
ROOT
ATOM      1  C   UNL     1       5.684   3.009  -1.906  0.00  0.00    +0.068 C 
ENDROOT
BRANCH   1   2
ATOM      2  C   UNL     1       6.381   2.040  -2.826  0.00  0.00    -0.013 A 
ATOM      3  C   UNL     1       6.270   1.989  -4.163  0.00  0.00    +0.088 A 
ATOM      4  N   UNL     1       7.050   0.979  -4.657  0.00  0.00    -0.360 N 
ATOM      5  H   UNL     1       7.134   0.748  -5.595  0.00  0.00    +0.165 HD
ATOM      6  C   UNL     1       7.698   0.340  -3.624  0.00  0.00    +0.047 A 
ATOM      7  C   UNL     1       7.312   0.980  -2.432  0.00  0.00    +0.003 A 
ATOM      8  C   UNL     1       7.823   0.543  -1.209  0.00  0.00    +0.010 A 
ATOM      9  C   UNL     1       8.700  -0.504  -1.176  0.00  0.00    +0.001 A 
ATOM     10  C   UNL     1       9.087  -1.137  -2.349  0.00  0.00    +0.002 A 
ATOM     11  C   UNL     1       8.588  -0.728  -3.566  0.00  0.00    +0.026 A 
ENDBRANCH   1   2
BRANCH   1  12
ATOM     12  C   UNL     1       6.074   4.418  -2.271  0.00  0.00    -0.038 A 
ATOM     13  C   UNL     1       5.796   4.905  -3.535  0.00  0.00    +0.006 A 
ATOM     14  C   UNL     1       6.152   6.196  -3.873  0.00  0.00    +0.023 A 
ATOM     15  C   UNL     1       6.790   7.005  -2.942  0.00  0.00    +0.029 A 
ATOM     16  C   UNL     1       7.067   6.513  -1.673  0.00  0.00    +0.023 A 
ATOM     17  C   UNL     1       6.704   5.223  -1.340  0.00  0.00    +0.006 A 
BRANCH  15  18
ATOM     18  N   UNL     1       7.151   8.311  -3.280  0.00  0.00    -0.336 N 
ATOM     19  C   UNL     1       6.973   8.788  -4.654  0.00  0.00    +0.129 C 
ATOM     20  C   UNL     1       7.710   9.204  -2.262  0.00  0.00    +0.129 C 
ENDBRANCH  15  18
ENDBRANCH   1  12
BRANCH   1  21
ATOM     21  C   UNL     1       4.169   2.846  -2.046  0.00  0.00    +0.118 C 
BRANCH  21  25
ATOM     22  N   UNL     1       2.117  -0.079  -1.178  0.00  0.00    -0.294 N 
ATOM     23  C   UNL     1       2.479   1.146  -1.608  0.00  0.00    +0.300 C 
ATOM     24  O   UNL     1       1.637   1.918  -2.024  0.00  0.00    -0.253 OA
ATOM     25  N   UNL     1       3.775   1.515  -1.578  0.00  0.00    -0.299 N 
ATOM     26  H   UNL     1       2.789  -0.694  -0.846  0.00  0.00    +0.151 HD
ATOM     27  H   UNL     1       4.447   0.899  -1.246  0.00  0.00    +0.150 HD
BRANCH  22  28
ATOM     28  CA  UNL     1       0.709  -0.480  -1.210  0.00  0.00    +0.099 C 
BRANCH  28  30
ATOM     29  C   UNL     1      -0.007   1.543   0.071  0.00  0.00    +0.006 C 
ATOM     30  C   UNL     1       0.008   0.013   0.058  0.00  0.00    +0.021 C 
ENDBRANCH  28  30
BRANCH  28  31
ATOM     31  C   UNL     1       0.614  -2.005  -1.286  0.00  0.00    +0.178 C 
BRANCH  31  32
ATOM     32  O   UNL     1       1.141  -2.574  -0.086  0.00  0.00    -0.393 OA
ATOM     33  H   UNL     1       1.113  -3.541  -0.064  0.00  0.00    +0.209 HD
ENDBRANCH  31  32
ENDBRANCH  28  31
ENDBRANCH  22  28
ENDBRANCH  21  25
ENDBRANCH   1  21
TORSDOF 9
