REMARK  Name = ZINC65042774
REMARK  4 active torsions:
REMARK  status: ('A' for Active; 'I' for Inactive)
REMARK    1  A    between atoms: C_11  and  S_13
REMARK    2  A    between atoms: S_13  and  C_14
REMARK    3  A    between atoms: C_14  and  C_15
REMARK    4  A    between atoms: C_21  and  N_25
REMARK                            x       y       z     vdW  Elec       q    Type
REMARK                         _______ _______ _______ _____ _____    ______ ____
ROOT
ATOM      1  C   UNL     1       6.407  -1.310  -0.066  0.00  0.00    +0.124 C 
ENDROOT
BRANCH   1   2
ATOM      2  C   UNL     1       7.837  -1.854  -0.082  0.00  0.00    +0.184 C 
ATOM      3  N   UNL     1       8.035  -2.715  -1.255  0.00  0.00    -0.363 N 
ATOM      4  C   UNL     1       8.340  -3.904  -0.821  0.00  0.00    +0.060 A 
ATOM      5  C   UNL     1       8.648  -5.168  -1.503  0.00  0.00    +0.029 A 
ATOM      6  C   UNL     1       8.934  -6.265  -0.773  0.00  0.00    +0.035 A 
ATOM      7  C   UNL     1       8.953  -6.256   0.633  0.00  0.00    +0.128 A 
ATOM      8  C   UNL     1       8.686  -5.150   1.357  0.00  0.00    +0.060 A 
ATOM      9  C   UNL     1       8.361  -3.894   0.668  0.00  0.00    +0.062 A 
ATOM     10  N   UNL     1       8.068  -2.699   1.096  0.00  0.00    -0.363 N 
ATOM     11  H   UNL     1       8.013  -2.418   2.023  0.00  0.00    +0.162 HD
ATOM     12  H   UNL     1       7.953  -2.447  -2.184  0.00  0.00    +0.162 HD
BRANCH   7  13
ATOM     13  N   UNL     1       9.280  -7.511   1.347  0.00  0.00    +0.056 N 
ATOM     14  O   UNL     1       9.523  -8.517   0.722  0.00  0.00    -0.126 OA
ATOM     15  O   UNL     1       9.303  -7.530   2.556  0.00  0.00    -0.126 OA
ENDBRANCH   7  13
ENDBRANCH   1   2
BRANCH   1  16
ATOM     16  S   UNL     1       5.234  -2.693  -0.062  0.00  0.00    -0.084 S 
BRANCH  16  27
ATOM     17  C   UNL     1      -0.017   1.363   0.009  0.00  0.00    +0.001 A 
ATOM     18  C   UNL     1       1.168   2.089   0.002  0.00  0.00    +0.002 A 
ATOM     19  C   UNL     1       2.379   1.458  -0.013  0.00  0.00    +0.028 A 
ATOM     20  C   UNL     1       2.432   0.061  -0.021  0.00  0.00    +0.079 A 
ATOM     21  C   UNL     1       1.224  -0.674  -0.013  0.00  0.00    +0.065 A 
ATOM     22  C   UNL     1       0.002  -0.004   0.002  0.00  0.00    +0.015 A 
ATOM     23  C   UNL     1       1.305  -2.141  -0.021  0.00  0.00    +0.260 A 
ATOM     24  O   UNL     1       0.301  -2.829  -0.015  0.00  0.00    -0.267 OA
ATOM     25  N   UNL     1       2.538  -2.699  -0.036  0.00  0.00    -0.301 N 
ATOM     26  H   UNL     1       2.630  -3.664  -0.042  0.00  0.00    +0.171 HD
ATOM     27  C   UNL     1       3.654  -1.911  -0.043  0.00  0.00    +0.170 A 
ATOM     28  N   UNL     1       3.605  -0.602  -0.036  0.00  0.00    -0.223 NA
ENDBRANCH  16  27
ENDBRANCH   1  16
TORSDOF 4
