REMARK  Name = ZINC14550603
REMARK  4 active torsions:
REMARK  status: ('A' for Active; 'I' for Inactive)
REMARK    1  A    between atoms: C_1  and  O_2
REMARK    2  A    between atoms: O_2  and  C_3
REMARK    3  A    between atoms: C_7  and  C_9
REMARK    4  A    between atoms: C_20  and  C_25
REMARK                            x       y       z     vdW  Elec       q    Type
REMARK                         _______ _______ _______ _____ _____    ______ ____
ROOT
ATOM      1  C   UNL     1      -2.544   3.623   0.136  0.00  0.00    +0.105 C 
ATOM      2  C   UNL     1      -3.119   3.324   1.509  0.00  0.00    +0.029 C 
ATOM      3  C   UNL     1      -2.343   3.849   2.724  0.00  0.00    +0.033 C 
ATOM      4  C   UNL     1      -3.467   4.053   3.741  0.00  0.00    -0.030 C 
ATOM      5  C   UNL     1      -4.617   4.261   3.111  0.00  0.00    -0.023 C 
ATOM      6  C   UNL     1      -4.365   4.249   1.647  0.00  0.00    +0.049 C 
ATOM      7  C   UNL     1      -5.391   3.768   0.696  0.00  0.00    -0.019 A 
ATOM      8  C   UNL     1      -6.735   3.828   0.973  0.00  0.00    +0.019 A 
ATOM      9  C   UNL     1      -7.667   3.372   0.037  0.00  0.00    +0.037 A 
ATOM     10  C   UNL     1      -7.224   2.853  -1.184  0.00  0.00    +0.015 A 
ATOM     11  C   UNL     1      -5.879   2.791  -1.457  0.00  0.00    +0.024 A 
ATOM     12  C   UNL     1      -4.946   3.240  -0.525  0.00  0.00    +0.031 A 
ATOM     13  N   UNL     1      -3.569   3.171  -0.831  0.00  0.00    -0.336 N 
ATOM     14  H   UNL     1      -3.289   2.802  -1.683  0.00  0.00    +0.147 HD
ENDROOT
BRANCH   9  15
ATOM     15  C   UNL     1      -9.110   3.436   0.336  0.00  0.00    +0.247 C 
ATOM     16  O   UNL     1      -9.569   4.402   0.915  0.00  0.00    -0.270 OA
ATOM     17  N   UNL     1      -9.920   2.424  -0.032  0.00  0.00    -0.298 N 
ATOM     18  C   UNL     1     -11.345   2.569   0.166  0.00  0.00    +0.108 C 
ATOM     19  C   UNL     1     -11.735   2.060   1.569  0.00  0.00    +0.019 C 
ATOM     20  C   UNL     1     -11.629   0.594   1.628  0.00  0.00    +0.002 C 
ATOM     21  C   UNL     1     -10.219   0.056   1.407  0.00  0.00    +0.002 C 
ATOM     22  C   UNL     1      -9.960  -0.078  -0.073  0.00  0.00    +0.019 C 
ATOM     23  C   UNL     1      -9.316   1.210  -0.616  0.00  0.00    +0.108 C 
ENDBRANCH   9  15
BRANCH   1  28
ATOM     24  C   UNL     1       1.134   2.791  -0.092  0.00  0.00    +0.120 A 
ATOM     25  C   UNL     1       1.091   1.450  -0.449  0.00  0.00    +0.045 A 
ATOM     26  C   UNL     1      -0.127   0.820  -0.615  0.00  0.00    +0.004 A 
ATOM     27  C   UNL     1      -1.302   1.525  -0.431  0.00  0.00    +0.006 A 
ATOM     28  C   UNL     1      -1.262   2.859  -0.070  0.00  0.00    -0.024 A 
ATOM     29  C   UNL     1      -0.046   3.494   0.097  0.00  0.00    +0.051 A 
BRANCH  24  31
ATOM     30  C   UNL     1       3.506   2.626  -0.139  0.00  0.00    +0.277 C 
ATOM     31  O   UNL     1       2.331   3.413   0.072  0.00  0.00    -0.495 OA
ENDBRANCH  24  31
ENDBRANCH   1  28
TORSDOF 3
