REMARK  Name = ZINC10109476
REMARK  7 active torsions:
REMARK  status: ('A' for Active; 'I' for Inactive)
REMARK    1  A    between atoms: C_1  and  C_2
REMARK    2  A    between atoms: C_5  and  C_7
REMARK    3  A    between atoms: C_7  and  C_9
REMARK    4  A    between atoms: C_7  and  N_46
REMARK    5  A    between atoms: C_9  and  N_10
REMARK    6  A    between atoms: N_10  and  S_11
REMARK    7  A    between atoms: S_11  and  C_14
REMARK                            x       y       z     vdW  Elec       q    Type
REMARK                         _______ _______ _______ _____ _____    ______ ____
ROOT
ATOM      1  C   UNL     1       2.243   4.895   3.712  0.00  0.00    +0.015 C 
ENDROOT
BRANCH   1   7
ATOM      2  C   UNL     1       3.176   6.790   2.526  0.00  0.00    -0.049 C 
ATOM      3  C   UNL     1       2.929   8.254   2.151  0.00  0.00    +0.141 C 
ATOM      4  O   UNL     1       2.793   9.030   3.345  0.00  0.00    -0.383 OA
ATOM      5  C   UNL     1       1.729   8.595   4.196  0.00  0.00    +0.141 C 
ATOM      6  C   UNL     1       1.964   7.134   4.591  0.00  0.00    -0.049 C 
ATOM      7  N   UNL     1       2.051   6.319   3.362  0.00  0.00    +0.390 N 
ATOM      8  H   UNL     1       1.177   6.417   2.833  0.00  0.00    -0.081 HD
ENDBRANCH   1   7
BRANCH   1  13
ATOM      9  C   UNL     1       7.022   5.271   5.282  0.00  0.00    +0.086 C 
ATOM     10  C   UNL     1       5.567   4.884   5.225  0.00  0.00    +0.102 A 
ATOM     11  C   UNL     1       4.921   4.116   6.121  0.00  0.00    +0.044 A 
ATOM     12  C   UNL     1       3.580   4.015   5.684  0.00  0.00    +0.043 A 
ATOM     13  C   UNL     1       3.489   4.720   4.542  0.00  0.00    +0.093 A 
ATOM     14  O   UNL     1       4.694   5.247   4.271  0.00  0.00    -0.466 OA
ENDBRANCH   1  13
BRANCH   1  15
ATOM     15  C   UNL     1       2.370   4.078   2.425  0.00  0.00    +0.098 C 
BRANCH  15  16
ATOM     16  N   UNL     1       1.214   4.340   1.564  0.00  0.00    -0.191 NA
ATOM     17  H   UNL     1       0.427   4.774   1.928  0.00  0.00    +0.148 HD
BRANCH  16  18
ATOM     18  S   UNL     1       1.252   3.897  -0.031  0.00  0.00    +0.058 S 
ATOM     19  O   UNL     1       2.480   4.380  -0.558  0.00  0.00    -0.153 OA
ATOM     20  O   UNL     1      -0.008   4.256  -0.583  0.00  0.00    -0.153 OA
BRANCH  18  21
ATOM     21  C   UNL     1       1.339   2.138  -0.081  0.00  0.00    +0.105 A 
ATOM     22  C   UNL     1       0.178   1.389  -0.112  0.00  0.00    +0.029 A 
ATOM     23  C   UNL     1       0.246   0.009  -0.151  0.00  0.00    +0.017 A 
ATOM     24  C   UNL     1       1.476  -0.623  -0.159  0.00  0.00    +0.018 A 
ATOM     25  C   UNL     1       2.638   0.127  -0.127  0.00  0.00    +0.017 A 
ATOM     26  C   UNL     1       2.569   1.507  -0.089  0.00  0.00    +0.029 A 
ATOM     27 BR   UNL     1       1.570  -2.511  -0.211  0.00  0.00    -0.050 Br
ENDBRANCH  18  21
ENDBRANCH  16  18
ENDBRANCH  15  16
ENDBRANCH   1  15
TORSDOF 6
