REMARK  Name = ZINC40323084
REMARK  7 active torsions:
REMARK  status: ('A' for Active; 'I' for Inactive)
REMARK    1  A    between atoms: C_3  and  C_6
REMARK    2  A    between atoms: C_6  and  C_8
REMARK    3  A    between atoms: C_6  and  N_27
REMARK    4  A    between atoms: C_8  and  N_9
REMARK    5  A    between atoms: C_10  and  C_12
REMARK    6  A    between atoms: C_15  and  S_17
REMARK    7  A    between atoms: S_17  and  C_20
REMARK                            x       y       z     vdW  Elec       q    Type
REMARK                         _______ _______ _______ _____ _____    ______ ____
ROOT
ATOM      1  N   UNL     1       5.570   0.024  -1.358  0.00  0.00    -0.310 N 
ATOM      2  C   UNL     1       6.234  -0.409  -2.448  0.00  0.00    +0.279 C 
ATOM      3  O   UNL     1       5.633  -0.605  -3.488  0.00  0.00    -0.267 OA
ATOM      4  H   UNL     1       6.049   0.180  -0.529  0.00  0.00    +0.149 HD
ENDROOT
BRANCH   2   5
ATOM      5  C   UNL     1       7.680  -0.645  -2.381  0.00  0.00    +0.192 A 
ATOM      6  C   UNL     1       8.471  -1.077  -3.407  0.00  0.00    +0.056 A 
ATOM      7  C   UNL     1       9.777  -1.162  -2.901  0.00  0.00    +0.070 A 
ATOM      8  C   UNL     1       9.727  -0.783  -1.605  0.00  0.00    +0.246 A 
ATOM      9  O   UNL     1       8.462  -0.468  -1.296  0.00  0.00    -0.433 OA
BRANCH   8  10
ATOM     10  S   UNL     1      11.100  -0.711  -0.503  0.00  0.00    +0.058 S 
ATOM     11  O   UNL     1      10.573  -0.824   0.812  0.00  0.00    -0.161 OA
ATOM     12  O   UNL     1      12.077  -1.609  -1.012  0.00  0.00    -0.161 OA
BRANCH  10  13
ATOM     13  C   UNL     1      11.788   0.907  -0.632  0.00  0.00    +0.097 A 
ATOM     14  C   UNL     1      12.776   1.165  -1.564  0.00  0.00    +0.028 A 
ATOM     15  C   UNL     1      13.315   2.433  -1.666  0.00  0.00    +0.017 A 
ATOM     16  C   UNL     1      12.866   3.445  -0.837  0.00  0.00    +0.018 A 
ATOM     17  C   UNL     1      11.876   3.186   0.095  0.00  0.00    +0.017 A 
ATOM     18  C   UNL     1      11.334   1.918   0.193  0.00  0.00    +0.028 A 
ATOM     19 BR   UNL     1      13.603   5.180  -0.976  0.00  0.00    -0.050 Br
ENDBRANCH  10  13
ENDBRANCH   8  10
ENDBRANCH   2   5
BRANCH   1  20
ATOM     20  C   UNL     1       4.126   0.260  -1.425  0.00  0.00    +0.097 C 
BRANCH  20  21
ATOM     21  C   UNL     1       3.602   0.617  -0.032  0.00  0.00    +0.016 C 
BRANCH  21  22
ATOM     22  N   UNL     1       3.975  -0.441   0.917  0.00  0.00    +0.387 N 
ATOM     23  C   UNL     1       3.460  -1.729   0.439  0.00  0.00    -0.078 C 
ATOM     24  C   UNL     1       3.914  -2.846   1.381  0.00  0.00    -0.019 C 
ATOM     25  C   UNL     1       3.374  -2.570   2.788  0.00  0.00    -0.004 C 
ATOM     26  C   UNL     1       3.857  -1.191   3.247  0.00  0.00    -0.019 C 
ATOM     27  C   UNL     1       3.405  -0.136   2.235  0.00  0.00    -0.078 C 
ATOM     28  H   UNL     1       4.980  -0.488   0.989  0.00  0.00    -0.081 HD
ENDBRANCH  21  22
BRANCH  21  31
ATOM     29  C   UNL     1       0.038   1.554  -0.081  0.00  0.00    +0.041 A 
ATOM     30  C   UNL     1       1.408   1.895   0.005  0.00  0.00    +0.043 A 
ATOM     31  C   UNL     1       2.102   0.746  -0.077  0.00  0.00    +0.093 A 
ATOM     32  O   UNL     1       1.230  -0.268  -0.207  0.00  0.00    -0.469 OA
ATOM     33  C   UNL     1      -0.023   0.217  -0.210  0.00  0.00    +0.195 A 
ENDBRANCH  21  31
ENDBRANCH  20  21
ENDBRANCH   1  20
TORSDOF 7
