REMARK  Name = ZINC12388870
REMARK  10 active torsions:
REMARK  status: ('A' for Active; 'I' for Inactive)
REMARK    1  A    between atoms: C_1  and  C_2
REMARK    2  A    between atoms: C_14  and  O_34
REMARK    3  A    between atoms: C_15  and  C_16
REMARK    4  A    between atoms: C_19  and  C_22
REMARK    5  A    between atoms: C_25  and  O_32
REMARK    6  A    between atoms: C_26  and  O_30
REMARK    7  A    between atoms: C_27  and  O_28
REMARK    8  A    between atoms: O_28  and  C_29
REMARK    9  A    between atoms: O_30  and  C_31
REMARK   10  A    between atoms: O_32  and  C_33
REMARK                            x       y       z     vdW  Elec       q    Type
REMARK                         _______ _______ _______ _____ _____    ______ ____
ROOT
ATOM      1  C   UNL     1      -2.453   4.481   0.148  0.00  0.00    +0.072 C 
ATOM      2  N   UNL     1      -3.089   4.877  -0.900  0.00  0.00    -0.190 NA
ATOM      3  N   UNL     1      -4.285   5.536  -0.625  0.00  0.00    -0.261 N 
ATOM      4  C   UNL     1      -4.475   5.588   0.833  0.00  0.00    +0.129 C 
ATOM      5  C   UNL     1      -3.232   4.864   1.386  0.00  0.00    +0.086 C 
ATOM      6  H   UNL     1      -4.893   5.901  -1.287  0.00  0.00    +0.169 HD
ENDROOT
BRANCH   1  21
ATOM      7  C   UNL     1       0.009   5.982   0.224  0.00  0.00    +0.044 C 
ATOM      8  C   UNL     1       0.036   4.476   0.177  0.00  0.00    -0.035 A 
ATOM      9  C   UNL     1       1.245   3.815   0.171  0.00  0.00    +0.051 A 
ATOM     10  C   UNL     1       1.285   2.428   0.127  0.00  0.00    +0.143 A 
ATOM     11  C   UNL     1       0.085   1.694   0.091  0.00  0.00    +0.063 A 
ATOM     12  C   UNL     1       0.145   0.232   0.046  0.00  0.00    -0.023 A 
ATOM     13  C   UNL     1       1.364  -0.364   0.039  0.00  0.00    +0.041 A 
ATOM     14  C   UNL     1       2.529   0.435   0.077  0.00  0.00    +0.341 A 
ATOM     15  O   UNL     1       3.619  -0.107   0.070  0.00  0.00    -0.245 OA
ATOM     16  O   UNL     1       2.467   1.774   0.120  0.00  0.00    -0.422 OA
ATOM     17  C   UNL     1       1.205  -1.868  -0.011  0.00  0.00    +0.043 C 
ATOM     18  C   UNL     1      -0.259  -2.132   0.404  0.00  0.00    +0.010 C 
ATOM     19  C   UNL     1      -0.949  -0.810   0.004  0.00  0.00    +0.037 C 
ATOM     20  C   UNL     1      -1.146   2.364   0.092  0.00  0.00    +0.137 A 
ATOM     21  C   UNL     1      -1.166   3.761   0.141  0.00  0.00    +0.043 A 
BRANCH  20  22
ATOM     22  O   UNL     1      -2.307   1.663   0.051  0.00  0.00    -0.505 OA
ATOM     23  H   UNL     1      -2.658   1.433   0.922  0.00  0.00    +0.292 HD
ENDBRANCH  20  22
ENDBRANCH   1  21
BRANCH   4  24
ATOM     24  C   UNL     1      -5.730   4.854   1.231  0.00  0.00    +0.020 A 
ATOM     25  C   UNL     1      -6.249   3.875   0.404  0.00  0.00    +0.013 A 
ATOM     26  C   UNL     1      -7.397   3.196   0.766  0.00  0.00    +0.050 A 
ATOM     27  C   UNL     1      -8.039   3.502   1.957  0.00  0.00    +0.165 A 
ATOM     28  C   UNL     1      -7.524   4.489   2.788  0.00  0.00    +0.204 A 
ATOM     29  C   UNL     1      -6.366   5.166   2.423  0.00  0.00    +0.170 A 
BRANCH  29  30
ATOM     30  O   UNL     1      -5.858   6.133   3.233  0.00  0.00    -0.491 OA
ATOM     31  C   UNL     1      -5.010   5.705   4.301  0.00  0.00    +0.277 C 
ENDBRANCH  29  30
BRANCH  28  32
ATOM     32  O   UNL     1      -8.151   4.792   3.958  0.00  0.00    -0.488 OA
ATOM     33  C   UNL     1      -9.223   5.735   3.893  0.00  0.00    +0.277 C 
ENDBRANCH  28  32
BRANCH  27  34
ATOM     34  O   UNL     1      -9.171   2.837   2.311  0.00  0.00    -0.491 OA
ATOM     35  C   UNL     1      -9.644   1.835   1.407  0.00  0.00    +0.277 C 
ENDBRANCH  27  34
ENDBRANCH   4  24
TORSDOF 6
