REMARK  Name = ZINC37785354
REMARK  5 active torsions:
REMARK  status: ('A' for Active; 'I' for Inactive)
REMARK    1  A    between atoms: C_1  and  C_2
REMARK    2  A    between atoms: C_2  and  C_4
REMARK    3  A    between atoms: C_2  and  N_14
REMARK    4  A    between atoms: N_14  and  C_15
REMARK    5  A    between atoms: N_20  and  C_22
REMARK                            x       y       z     vdW  Elec       q    Type
REMARK                         _______ _______ _______ _____ _____    ______ ____
ROOT
ATOM      1  C   UNL     1      -0.019   1.526   0.010  0.00  0.00    +0.036 C 
ATOM      2  C   UNL     1       0.002  -0.004   0.002  0.00  0.00    +0.133 C 
ENDROOT
BRANCH   2   3
ATOM      3  C   UNL     1       0.731  -0.503   1.223  0.00  0.00    +0.126 A 
ATOM      4  C   UNL     1       2.005  -0.917   1.240  0.00  0.00    +0.055 A 
ATOM      5  C   UNL     1       2.290  -1.308   2.626  0.00  0.00    +0.022 A 
ATOM      6  C   UNL     1       3.411  -1.811   3.285  0.00  0.00    +0.027 A 
ATOM      7  C   UNL     1       3.342  -2.082   4.635  0.00  0.00    +0.019 A 
ATOM      8  C   UNL     1       2.164  -1.855   5.334  0.00  0.00    +0.019 A 
ATOM      9  C   UNL     1       1.050  -1.358   4.693  0.00  0.00    +0.048 A 
ATOM     10  C   UNL     1       1.099  -1.078   3.333  0.00  0.00    +0.135 A 
ATOM     11  O   UNL     1       0.199  -0.593   2.454  0.00  0.00    -0.458 OA
ATOM     12 BR   UNL     1       4.857  -2.764   5.537  0.00  0.00    -0.050 Br
ENDBRANCH   2   3
BRANCH   2  13
ATOM     13  N   UNL     1      -1.372  -0.511   0.012  0.00  0.00    -0.333 N 
ATOM     14  H   UNL     1      -1.794  -0.752   0.852  0.00  0.00    +0.147 HD
BRANCH  13  15
ATOM     15  C   UNL     1      -2.079  -0.648  -1.192  0.00  0.00    +0.044 A 
ATOM     16  C   UNL     1      -1.467  -0.305  -2.411  0.00  0.00    +0.030 A 
ATOM     17  C   UNL     1      -2.169  -0.444  -3.571  0.00  0.00    +0.072 A 
ATOM     18  C   UNL     1      -3.487  -0.928  -3.526  0.00  0.00    +0.251 A 
ATOM     19  O   UNL     1      -4.125  -1.057  -4.560  0.00  0.00    -0.268 OA
ATOM     20  N   UNL     1      -4.050  -1.250  -2.346  0.00  0.00    -0.316 N 
ATOM     21  C   UNL     1      -3.353  -1.118  -1.185  0.00  0.00    +0.111 A 
ATOM     22  C   UNL     1      -5.425  -1.753  -2.312  0.00  0.00    +0.152 C 
ENDBRANCH  13  15
ENDBRANCH   2  13
TORSDOF 3
