REMARK  Name = ZINC39558810
REMARK  6 active torsions:
REMARK  status: ('A' for Active; 'I' for Inactive)
REMARK    1  A    between atoms: C_6  and  N_7
REMARK    2  A    between atoms: C_8  and  C_10
REMARK    3  A    between atoms: C_10  and  N_11
REMARK    4  A    between atoms: C_12  and  C_14
REMARK    5  A    between atoms: C_14  and  O_15
REMARK    6  A    between atoms: O_15  and  C_16
REMARK                            x       y       z     vdW  Elec       q    Type
REMARK                         _______ _______ _______ _____ _____    ______ ____
ROOT
ATOM      1  N   UNL     1      -1.202  -0.720   0.010  0.00  0.00    -0.284 N 
ATOM      2  C   UNL     1      -2.374  -0.065   0.126  0.00  0.00    +0.234 C 
ATOM      3  O   UNL     1      -2.393   1.148   0.133  0.00  0.00    -0.274 OA
ATOM      4  H   UNL     1      -1.192  -1.687  -0.063  0.00  0.00    +0.155 HD
ENDROOT
BRANCH   1  10
ATOM      5  C   UNL     1       1.138  -0.544   0.584  0.00  0.00    +0.025 A 
ATOM      6  C   UNL     1       2.328   0.157   0.572  0.00  0.00    +0.029 A 
ATOM      7  C   UNL     1       2.390   1.404  -0.031  0.00  0.00    +0.067 A 
ATOM      8  C   UNL     1       1.250   1.950  -0.625  0.00  0.00    +0.069 A 
ATOM      9  C   UNL     1       0.057   1.244  -0.610  0.00  0.00    +0.051 A 
ATOM     10  C   UNL     1       0.002  -0.003  -0.006  0.00  0.00    +0.036 A 
ATOM     11  N   UNL     1       1.618   3.191  -1.138  0.00  0.00    -0.306 N 
ATOM     12  H   UNL     1       1.034   3.807  -1.608  0.00  0.00    +0.170 HD
ATOM     13  C   UNL     1       2.922   3.392  -0.869  0.00  0.00    +0.325 A 
ATOM     14  O   UNL     1       3.557   4.382  -1.181  0.00  0.00    -0.247 OA
ATOM     15  N   UNL     1       3.416   2.332  -0.202  0.00  0.00    -0.306 N 
ATOM     16  H   UNL     1       4.330   2.232   0.107  0.00  0.00    +0.170 HD
ENDBRANCH   1  10
BRANCH   2  17
ATOM     17  C   UNL     1      -3.662  -0.839   0.248  0.00  0.00    +0.200 C 
BRANCH  17  18
ATOM     18  N   UNL     1      -4.785   0.095   0.360  0.00  0.00    -0.304 N 
ATOM     19  C   UNL     1      -6.042  -0.375   0.480  0.00  0.00    +0.251 C 
ATOM     20  O   UNL     1      -6.244  -1.571   0.495  0.00  0.00    -0.272 OA
ATOM     21  H   UNL     1      -4.623   1.051   0.349  0.00  0.00    +0.149 HD
BRANCH  19  22
ATOM     22  C   UNL     1      -7.197   0.586   0.597  0.00  0.00    +0.324 C 
BRANCH  22  23
ATOM     23  O   UNL     1      -8.418  -0.149   0.712  0.00  0.00    -0.481 OA
BRANCH  23  24
ATOM     24  C   UNL     1      -9.564   0.573   0.826  0.00  0.00    +0.139 A 
ATOM     25  C   UNL     1      -9.515   1.959   0.821  0.00  0.00    +0.048 A 
ATOM     26  C   UNL     1     -10.681   2.691   0.937  0.00  0.00    +0.019 A 
ATOM     27  C   UNL     1     -11.898   2.043   1.057  0.00  0.00    +0.019 A 
ATOM     28  C   UNL     1     -11.949   0.661   1.063  0.00  0.00    +0.039 A 
ATOM     29  C   UNL     1     -10.786  -0.076   0.942  0.00  0.00    +0.084 A 
ATOM     30 CL   UNL     1     -10.851  -1.810   0.942  0.00  0.00    -0.080 Cl
ATOM     31 BR   UNL     1     -13.492   3.048   1.216  0.00  0.00    -0.050 Br
ENDBRANCH  23  24
ENDBRANCH  22  23
ENDBRANCH  19  22
ENDBRANCH  17  18
ENDBRANCH   2  17
TORSDOF 6
