REMARK  Name = ZINC23038708
REMARK  9 active torsions:
REMARK  status: ('A' for Active; 'I' for Inactive)
REMARK    1  A    between atoms: C_1  and  N_2
REMARK    2  A    between atoms: N_2  and  C_3
REMARK    3  A    between atoms: N_2  and  C_18
REMARK    4  A    between atoms: C_3  and  C_4
REMARK    5  A    between atoms: C_4  and  C_5
REMARK    6  A    between atoms: N_7  and  C_8
REMARK    7  A    between atoms: C_9  and  C_16
REMARK    8  A    between atoms: C_18  and  C_19
REMARK    9  A    between atoms: N_21  and  C_22
REMARK                            x       y       z     vdW  Elec       q    Type
REMARK                         _______ _______ _______ _____ _____    ______ ____
ROOT
ATOM      1  C   UNL     1      -0.769   1.564  -1.226  0.00  0.00    -0.069 C 
ENDROOT
BRANCH   1   3
ATOM      2  C   UNL     1       1.255   1.710  -2.546  0.00  0.00    -0.096 C 
ATOM      3  N   UNL     1      -0.076   1.100  -2.436  0.00  0.00    +0.384 N 
ATOM      4  H   UNL     1       0.056   0.011  -2.353  0.00  0.00    -0.082 HD
BRANCH   3   5
ATOM      5  C   UNL     1      -0.879   1.367  -3.637  0.00  0.00    +0.018 C 
BRANCH   5   6
ATOM      6  C   UNL     1      -0.261   0.666  -4.820  0.00  0.00    +0.201 C 
ATOM      7  O   UNL     1       0.749   0.010  -4.676  0.00  0.00    -0.278 OA
ATOM      8  N   UNL     1      -0.830   0.770  -6.037  0.00  0.00    -0.286 N 
ATOM      9  H   UNL     1      -1.785   1.303  -6.154  0.00  0.00    +0.155 HD
BRANCH   8  10
ATOM     10  C   UNL     1      -0.206   0.199  -7.152  0.00  0.00    +0.047 A 
ATOM     11  C   UNL     1       0.501  -0.990  -7.021  0.00  0.00    +0.024 A 
ATOM     12  C   UNL     1       1.112  -1.553  -8.124  0.00  0.00    +0.002 A 
ATOM     13  C   UNL     1       1.029  -0.930  -9.357  0.00  0.00    +0.001 A 
ATOM     14  C   UNL     1       0.330   0.255  -9.490  0.00  0.00    +0.017 A 
ATOM     15  C   UNL     1      -0.287   0.822  -8.391  0.00  0.00    +0.039 A 
ATOM     16 BR   UNL     1      -1.242   2.444  -8.574  0.00  0.00    -0.048 Br
ENDBRANCH   8  10
ENDBRANCH   5   6
ENDBRANCH   3   5
ENDBRANCH   1   3
BRANCH   1  17
ATOM     17  C   UNL     1      -0.031   1.052   0.012  0.00  0.00    +0.077 C 
BRANCH  17  18
ATOM     18  C   UNL     1      -0.741   1.528   1.253  0.00  0.00    +0.216 C 
ATOM     19  O   UNL     1      -1.740   2.209   1.156  0.00  0.00    -0.276 OA
ATOM     20  N   UNL     1      -0.267   1.196   2.470  0.00  0.00    -0.279 N 
ATOM     21  H   UNL     1       0.639   0.579   2.558  0.00  0.00    +0.155 HD
BRANCH  20  22
ATOM     22  C   UNL     1      -0.922   1.635   3.613  0.00  0.00    +0.090 A 
ATOM     23  C   UNL     1      -0.595   1.396   4.936  0.00  0.00    +0.084 A 
ATOM     24  C   UNL     1      -1.455   1.982   5.963  0.00  0.00    -0.018 A 
ATOM     25  C   UNL     1      -2.497   2.695   5.497  0.00  0.00    -0.004 A 
ATOM     26  S   UNL     1      -2.349   2.606   3.729  0.00  0.00    -0.077 S 
ATOM     27  C   UNL     1      -3.335   3.262   6.610  0.00  0.00    +0.043 C 
ATOM     28  C   UNL     1      -2.434   3.170   7.862  0.00  0.00    +0.010 C 
ATOM     29  C   UNL     1      -1.500   2.000   7.491  0.00  0.00    +0.037 C 
BRANCH  23  30
ATOM     30  C   UNL     1       0.548   0.607   5.287  0.00  0.00    +0.102 C 
ATOM     31  N   UNL     1       1.454  -0.018   5.565  0.00  0.00    -0.191 NA
ENDBRANCH  23  30
ENDBRANCH  20  22
ENDBRANCH  17  18
ENDBRANCH   1  17
TORSDOF 8
