REMARK  Name = ZINC58131986
REMARK  7 active torsions:
REMARK  status: ('A' for Active; 'I' for Inactive)
REMARK    1  A    between atoms: C_1  and  C_2
REMARK    2  A    between atoms: C_2  and  C_3
REMARK    3  A    between atoms: C_2  and  N_18
REMARK    4  A    between atoms: N_5  and  C_6
REMARK    5  A    between atoms: C_6  and  C_7
REMARK    6  A    between atoms: C_7  and  N_12
REMARK    7  A    between atoms: C_19  and  C_21
REMARK                            x       y       z     vdW  Elec       q    Type
REMARK                         _______ _______ _______ _____ _____    ______ ____
ROOT
ATOM      1  C   UNL     1       0.719  -0.391   1.235  0.00  0.00    +0.233 C 
ATOM      2  O   UNL     1       0.150  -1.155   1.985  0.00  0.00    -0.274 OA
ATOM      3  N   UNL     1       2.010  -0.071   1.451  0.00  0.00    -0.315 N 
ATOM      4  H   UNL     1       2.465   0.541   0.851  0.00  0.00    +0.149 HD
ENDROOT
BRANCH   1   6
ATOM      5  C   UNL     1      -0.030   1.726   0.183  0.00  0.00    +0.038 C 
ATOM      6  C   UNL     1      -0.017   0.201   0.061  0.00  0.00    +0.156 C 
BRANCH   6   7
ATOM      7  N   UNL     1      -1.394  -0.300   0.045  0.00  0.00    -0.304 N 
ATOM      8  C   UNL     1      -2.083  -0.342  -1.112  0.00  0.00    +0.217 C 
ATOM      9  O   UNL     1      -1.563   0.034  -2.141  0.00  0.00    -0.275 OA
ATOM     10  H   UNL     1      -1.810  -0.601   0.869  0.00  0.00    +0.149 HD
BRANCH   8  11
ATOM     11  C   UNL     1      -3.499  -0.857  -1.128  0.00  0.00    +0.075 C 
ATOM     12  C   UNL     1      -3.522  -2.304  -0.631  0.00  0.00    +0.013 C 
ATOM     13  C   UNL     1      -4.960  -2.826  -0.647  0.00  0.00    +0.001 C 
ATOM     14  C   UNL     1      -5.507  -2.768  -2.075  0.00  0.00    +0.000 C 
ATOM     15  C   UNL     1      -5.485  -1.321  -2.571  0.00  0.00    +0.001 C 
ATOM     16  C   UNL     1      -4.047  -0.799  -2.555  0.00  0.00    +0.013 C 
ENDBRANCH   8  11
ENDBRANCH   6   7
ENDBRANCH   1   6
BRANCH   3  17
ATOM     17  C   UNL     1       2.726  -0.646   2.593  0.00  0.00    +0.092 C 
BRANCH  17  18
ATOM     18  C   UNL     1       4.195  -0.222   2.540  0.00  0.00    -0.050 C 
ATOM     19  C   UNL     1       4.854  -0.756   1.251  0.00  0.00    -0.010 C 
ATOM     20  C   UNL     1       6.288  -1.142   1.689  0.00  0.00    -0.001 C 
ATOM     21  C   UNL     1       6.066  -1.733   3.103  0.00  0.00    -0.001 C 
ATOM     22  C   UNL     1       4.966  -0.843   3.717  0.00  0.00    -0.010 C 
BRANCH  18  23
ATOM     23  N   UNL     1       4.298   1.243   2.588  0.00  0.00    +0.386 N 
ATOM     24  C   UNL     1       5.689   1.635   2.356  0.00  0.00    -0.067 C 
ATOM     25  C   UNL     1       5.762   3.132   2.032  0.00  0.00    +0.050 C 
ATOM     26  S   UNL     1       5.146   4.058   3.473  0.00  0.00    -0.164 S 
ATOM     27  C   UNL     1       3.569   3.225   3.837  0.00  0.00    +0.050 C 
ATOM     28  C   UNL     1       3.825   1.714   3.891  0.00  0.00    -0.067 C 
ATOM     29  H   UNL     1       3.718   1.639   1.863  0.00  0.00    -0.081 HD
ENDBRANCH  18  23
ENDBRANCH  17  18
ENDBRANCH   3  17
TORSDOF 6
