REMARK  Name = ZINC55044266
REMARK  7 active torsions:
REMARK  status: ('A' for Active; 'I' for Inactive)
REMARK    1  A    between atoms: C_1  and  C_2
REMARK    2  A    between atoms: C_2  and  C_4
REMARK    3  A    between atoms: C_2  and  N_9
REMARK    4  A    between atoms: N_9  and  C_10
REMARK    5  A    between atoms: N_13  and  C_14
REMARK    6  A    between atoms: C_14  and  C_15
REMARK    7  A    between atoms: C_15  and  N_21
REMARK                            x       y       z     vdW  Elec       q    Type
REMARK                         _______ _______ _______ _____ _____    ______ ____
ROOT
ATOM      1  N   UNL     1      -3.171  -0.720   4.443  0.00  0.00    -0.281 N 
ATOM      2  C   UNL     1      -3.306  -0.570   5.894  0.00  0.00    +0.134 C 
ATOM      3  C   UNL     1      -2.056  -1.270   3.923  0.00  0.00    +0.303 C 
ATOM      4  O   UNL     1      -1.945  -1.395   2.718  0.00  0.00    -0.253 OA
ATOM      5  N   UNL     1      -1.064  -1.681   4.737  0.00  0.00    -0.297 N 
ATOM      6  H   UNL     1      -1.153  -1.581   5.698  0.00  0.00    +0.150 HD
ENDROOT
BRANCH   1   8
ATOM      7  C   UNL     1      -5.567  -0.920   3.991  0.00  0.00    +0.034 C 
ATOM      8  C   UNL     1      -4.250  -0.274   3.557  0.00  0.00    +0.111 C 
BRANCH   8   9
ATOM      9  C   UNL     1      -4.376   1.226   3.636  0.00  0.00    +0.010 A 
ATOM     10  C   UNL     1      -4.520   2.125   2.632  0.00  0.00    +0.013 A 
ATOM     11  C   UNL     1      -4.618   3.468   2.943  0.00  0.00    +0.008 A 
ATOM     12  C   UNL     1      -4.566   3.847   4.243  0.00  0.00    +0.045 A 
ATOM     13  S   UNL     1      -4.381   2.279   5.078  0.00  0.00    -0.100 S 
ENDBRANCH   8   9
ENDBRANCH   1   8
BRANCH   5  14
ATOM     14  C   UNL     1       0.148  -2.278   4.172  0.00  0.00    +0.128 C 
BRANCH  14  15
ATOM     15  C   UNL     1       1.157  -2.541   5.292  0.00  0.00    +0.038 C 
ATOM     16  C   UNL     1       2.470  -3.043   4.687  0.00  0.00    +0.024 C 
ATOM     17  C   UNL     1       2.214  -4.340   3.917  0.00  0.00    +0.002 C 
ATOM     18  C   UNL     1       1.654  -5.397   4.871  0.00  0.00    +0.000 C 
ATOM     19  C   UNL     1       0.341  -4.895   5.475  0.00  0.00    +0.002 C 
ATOM     20  C   UNL     1       0.597  -3.598   6.245  0.00  0.00    +0.024 C 
BRANCH  15  21
ATOM     21  N   UNL     1       1.403  -1.296   6.031  0.00  0.00    -0.291 NA
ATOM     22  C   UNL     1       1.759  -0.201   5.116  0.00  0.00    +0.113 C 
ATOM     23  C   UNL     1       1.948   1.088   5.920  0.00  0.00    +0.175 C 
ATOM     24  O   UNL     1       2.944   0.876   6.924  0.00  0.00    -0.377 OA
ATOM     25  C   UNL     1       2.629  -0.182   7.833  0.00  0.00    +0.175 C 
ATOM     26  C   UNL     1       2.447  -1.484   7.048  0.00  0.00    +0.113 C 
ENDBRANCH  15  21
ENDBRANCH  14  15
ENDBRANCH   5  14
TORSDOF 5
