REMARK  Name = ZINC05886080
REMARK  12 active torsions:
REMARK  status: ('A' for Active; 'I' for Inactive)
REMARK    1  A    between atoms: C_1  and  C_2
REMARK    2  A    between atoms: C_4  and  O_30
REMARK    3  A    between atoms: C_7  and  C_8
REMARK    4  A    between atoms: C_8  and  O_9
REMARK    5  A    between atoms: C_12  and  C_23
REMARK    6  A    between atoms: N_14  and  C_19
REMARK    7  A    between atoms: C_19  and  C_20
REMARK    8  A    between atoms: C_20  and  N_56
REMARK    9  A    between atoms: C_21  and  N_56
REMARK   10  A    between atoms: C_22  and  N_56
REMARK   11  A    between atoms: C_26  and  O_29
REMARK   12  A    between atoms: O_30  and  C_31
REMARK                            x       y       z     vdW  Elec       q    Type
REMARK                         _______ _______ _______ _____ _____    ______ ____
ROOT
ATOM      1  C   UNL     1      -1.079  -0.945  -0.520  0.00  0.00    +0.133 C 
ATOM      2  C   UNL     1      -2.446  -0.326  -0.652  0.00  0.00    +0.071 C 
ATOM      3  C   UNL     1      -3.535  -1.342  -0.273  0.00  0.00    +0.144 C 
ATOM      4  N   UNL     1      -3.547  -0.006  -2.770  0.00  0.00    -0.285 N 
ATOM      5  C   UNL     1      -3.046   1.186  -2.425  0.00  0.00    +0.288 C 
ATOM      6  O   UNL     1      -3.155   2.196  -3.090  0.00  0.00    -0.266 OA
ATOM      7  C   UNL     1      -2.335   1.111  -1.118  0.00  0.00    +0.249 C 
ATOM      8  O   UNL     1      -1.780   2.017  -0.543  0.00  0.00    -0.282 OA
ENDROOT
BRANCH   1  15
ATOM      9  C   UNL     1       1.490  -2.175  -0.011  0.00  0.00    +0.044 C 
ATOM     10  C   UNL     1       1.339  -0.676  -0.008  0.00  0.00    -0.036 A 
ATOM     11  C   UNL     1       2.429   0.127   0.239  0.00  0.00    +0.049 A 
ATOM     12  C   UNL     1       2.287   1.511   0.240  0.00  0.00    +0.120 A 
ATOM     13  C   UNL     1       1.046   2.087  -0.006  0.00  0.00    +0.046 A 
ATOM     14  C   UNL     1      -0.042   1.299  -0.252  0.00  0.00    +0.015 A 
ATOM     15  C   UNL     1       0.089  -0.095  -0.257  0.00  0.00    +0.020 A 
BRANCH  12  16
ATOM     16  O   UNL     1       3.363   2.301   0.484  0.00  0.00    -0.495 OA
ATOM     17  C   UNL     1       3.147   3.713   0.472  0.00  0.00    +0.277 C 
ENDBRANCH  12  16
ENDBRANCH   1  15
BRANCH   3  18
ATOM     18  C   UNL     1      -4.373  -0.803   0.858  0.00  0.00    -0.022 A 
ATOM     19  C   UNL     1      -5.372   0.117   0.599  0.00  0.00    +0.009 A 
ATOM     20  C   UNL     1      -6.145   0.609   1.633  0.00  0.00    +0.046 A 
ATOM     21  C   UNL     1      -5.910   0.187   2.934  0.00  0.00    +0.117 A 
ATOM     22  C   UNL     1      -4.903  -0.732   3.192  0.00  0.00    +0.046 A 
ATOM     23  C   UNL     1      -4.137  -1.225   2.153  0.00  0.00    +0.009 A 
BRANCH  21  24
ATOM     24  O   UNL     1      -6.664   0.674   3.954  0.00  0.00    -0.507 OA
ATOM     25  H   UNL     1      -6.307   1.476   4.359  0.00  0.00    +0.292 HD
ENDBRANCH  21  24
ENDBRANCH   3  18
BRANCH   1  26
ATOM     26  O   UNL     1      -0.943  -2.145  -0.632  0.00  0.00    -0.506 OA
ATOM     27  H   UNL     1      -1.833  -2.566  -0.808  0.00  0.00    +0.292 HD
ENDBRANCH   1  26
BRANCH   4  28
ATOM     28  C   UNL     1      -4.301  -0.260  -4.000  0.00  0.00    +0.090 C 
BRANCH  28  29
ATOM     29  C   UNL     1      -3.335  -0.667  -5.115  0.00  0.00    -0.060 C 
BRANCH  29  32
ATOM     30  C   UNL     1      -3.188  -1.082  -7.496  0.00  0.00    -0.097 C 
ATOM     31  C   UNL     1      -4.965  -2.092  -6.199  0.00  0.00    -0.097 C 
ATOM     32  N   UNL     1      -4.108  -0.898  -6.354  0.00  0.00    +0.377 N 
ATOM     33  H   UNL     1      -4.703  -0.081  -6.534  0.00  0.00    -0.083 HD
ENDBRANCH  29  32
ENDBRANCH  28  29
ENDBRANCH   4  28
TORSDOF 8
