REMARK  Name = ZINC06906461
REMARK  11 active torsions:
REMARK  status: ('A' for Active; 'I' for Inactive)
REMARK    1  A    between atoms: C_1  and  O_2
REMARK    2  A    between atoms: O_2  and  C_3
REMARK    3  A    between atoms: C_5  and  C_13
REMARK    4  A    between atoms: C_7  and  O_11
REMARK    5  A    between atoms: C_8  and  O_9
REMARK    6  A    between atoms: O_9  and  C_10
REMARK    7  A    between atoms: O_11  and  C_12
REMARK    8  A    between atoms: C_15  and  C_27
REMARK    9  A    between atoms: C_17  and  C_22
REMARK   10  A    between atoms: C_17  and  O_26
REMARK   11  A    between atoms: C_27  and  C_29
REMARK                            x       y       z     vdW  Elec       q    Type
REMARK                         _______ _______ _______ _____ _____    ______ ____
ROOT
ATOM      1  C   UNL     1       1.336   2.274  -0.308  0.00  0.00    +0.120 C 
ATOM      2  C   UNL     1       1.827   1.288   0.758  0.00  0.00    +0.145 C 
ATOM      3  C   UNL     1       1.789  -0.126   0.170  0.00  0.00    +0.243 C 
ATOM      4  N   UNL     1       0.437  -0.408  -0.315  0.00  0.00    -0.264 N 
ATOM      5  C   UNL     1      -0.366   0.574  -0.754  0.00  0.00    +0.302 C 
ATOM      6  O   UNL     1      -1.476   0.284  -1.156  0.00  0.00    -0.253 OA
ATOM      7  N   UNL     1       0.008   1.862  -0.767  0.00  0.00    -0.292 N 
ATOM      8  H   UNL     1       0.115  -1.323  -0.320  0.00  0.00    +0.153 HD
ATOM      9  H   UNL     1      -0.612   2.534  -1.091  0.00  0.00    +0.151 HD
ENDROOT
BRANCH   1  12
ATOM     10  C   UNL     1       2.285   5.771   0.764  0.00  0.00    +0.165 A 
ATOM     11  C   UNL     1       2.353   4.497   0.222  0.00  0.00    +0.055 A 
ATOM     12  C   UNL     1       1.257   3.658   0.284  0.00  0.00    -0.019 A 
ATOM     13  C   UNL     1       0.087   4.086   0.882  0.00  0.00    +0.055 A 
ATOM     14  C   UNL     1       0.012   5.357   1.432  0.00  0.00    +0.165 A 
ATOM     15  C   UNL     1       1.112   6.204   1.371  0.00  0.00    +0.204 A 
BRANCH  10  17
ATOM     16  C   UNL     1       4.536   6.086   0.063  0.00  0.00    +0.277 C 
ATOM     17  O   UNL     1       3.364   6.597   0.702  0.00  0.00    -0.491 OA
ENDBRANCH  10  17
BRANCH  15  18
ATOM     18  O   UNL     1       1.041   7.454   1.905  0.00  0.00    -0.488 OA
ATOM     19  C   UNL     1       0.597   8.503   1.044  0.00  0.00    +0.277 C 
ENDBRANCH  15  18
BRANCH  14  20
ATOM     20  O   UNL     1      -1.138   5.775   2.026  0.00  0.00    -0.491 OA
ATOM     21  C   UNL     1      -2.228   4.851   2.051  0.00  0.00    +0.277 C 
ENDBRANCH  14  20
ENDBRANCH   1  12
BRANCH   3  22
ATOM     22  C   UNL     1       2.779  -0.224  -0.992  0.00  0.00    +0.436 C 
ATOM     23  F   UNL     1       2.357   0.605  -2.037  0.00  0.00    -0.166 F 
ATOM     24  F   UNL     1       4.047   0.181  -0.559  0.00  0.00    -0.166 F 
ATOM     25  F   UNL     1       2.841  -1.547  -1.442  0.00  0.00    -0.166 F 
ENDBRANCH   3  22
BRANCH   3  26
ATOM     26  O   UNL     1       2.141  -1.073   1.180  0.00  0.00    -0.364 OA
ATOM     27  H   UNL     1       2.132  -1.992   0.878  0.00  0.00    +0.212 HD
ENDBRANCH   3  26
BRANCH   2  28
ATOM     28  C   UNL     1       0.928   1.359   1.966  0.00  0.00    +0.179 C 
ATOM     29  O   UNL     1      -0.263   1.550   1.825  0.00  0.00    -0.291 OA
BRANCH  28  30
ATOM     30  C   UNL     1       1.471   1.202   3.260  0.00  0.00    +0.055 A 
ATOM     31  C   UNL     1       0.825   1.238   4.492  0.00  0.00    +0.019 A 
ATOM     32  C   UNL     1       1.600   1.050   5.606  0.00  0.00    +0.008 A 
ATOM     33  C   UNL     1       2.938   0.852   5.460  0.00  0.00    +0.046 A 
ATOM     34  S   UNL     1       3.164   0.915   3.743  0.00  0.00    -0.094 S 
ENDBRANCH  28  30
ENDBRANCH   2  28
TORSDOF 8
