REMARK  Name = ZINC47964350
REMARK  7 active torsions:
REMARK  status: ('A' for Active; 'I' for Inactive)
REMARK    1  A    between atoms: N_5  and  C_8
REMARK    2  A    between atoms: C_8  and  C_9
REMARK    3  A    between atoms: C_9  and  C_10
REMARK    4  A    between atoms: C_10  and  N_11
REMARK    5  A    between atoms: C_12  and  C_14
REMARK    6  A    between atoms: N_16  and  C_17
REMARK    7  A    between atoms: C_18  and  C_26
REMARK                            x       y       z     vdW  Elec       q    Type
REMARK                         _______ _______ _______ _____ _____    ______ ____
ROOT
ATOM      1  N   UNL     1       3.173  -4.739  -2.422  0.00  0.00    -0.308 N 
ATOM      2  C   UNL     1       3.634  -5.790  -3.129  0.00  0.00    +0.299 C 
ATOM      3  O   UNL     1       3.860  -5.672  -4.315  0.00  0.00    -0.265 OA
ATOM      4  H   UNL     1       2.992  -4.834  -1.474  0.00  0.00    +0.149 HD
ENDROOT
BRANCH   2   5
ATOM      5  C   UNL     1       3.867  -7.100  -2.452  0.00  0.00    +0.304 C 
ATOM      6  O   UNL     1       3.641  -7.219  -1.265  0.00  0.00    -0.265 OA
ATOM      7  N   UNL     1       4.329  -8.151  -3.158  0.00  0.00    -0.271 N 
ATOM      8  H   UNL     1       4.509  -8.056  -4.106  0.00  0.00    +0.156 HD
BRANCH   7   9
ATOM      9  C   UNL     1       4.545  -9.366  -2.530  0.00  0.00    +0.090 A 
ATOM     10  C   UNL     1       5.017 -10.556  -3.072  0.00  0.00    +0.084 A 
ATOM     11  C   UNL     1       5.153 -11.698  -2.185  0.00  0.00    -0.018 A 
ATOM     12  C   UNL     1       4.804 -11.497  -0.893  0.00  0.00    -0.004 A 
ATOM     13  S   UNL     1       4.297  -9.801  -0.818  0.00  0.00    -0.077 S 
ATOM     14  C   UNL     1       4.845 -12.495   0.222  0.00  0.00    +0.043 C 
ATOM     15  C   UNL     1       4.993 -13.897  -0.386  0.00  0.00    +0.005 C 
ATOM     16  C   UNL     1       6.112 -13.863  -1.432  0.00  0.00    +0.005 C 
ATOM     17  C   UNL     1       5.659 -13.060  -2.651  0.00  0.00    +0.037 C 
BRANCH  10  18
ATOM     18  C   UNL     1       5.357 -10.653  -4.459  0.00  0.00    +0.102 C 
ATOM     19  N   UNL     1       5.626 -10.730  -5.560  0.00  0.00    -0.191 NA
ENDBRANCH  10  18
ENDBRANCH   7   9
ENDBRANCH   2   5
BRANCH   1  20
ATOM     20  C   UNL     1       2.944  -3.454  -3.087  0.00  0.00    +0.103 C 
BRANCH  20  21
ATOM     21  C   UNL     1       2.424  -2.438  -2.067  0.00  0.00    +0.000 C 
BRANCH  21  22
ATOM     22  C   UNL     1       2.185  -1.096  -2.761  0.00  0.00    -0.077 C 
BRANCH  22  27
ATOM     23  C   UNL     1      -0.019   1.544   0.011  0.00  0.00    -0.002 C 
ATOM     24  C   UNL     1       1.397   2.058  -0.000  0.00  0.00    -0.002 C 
ATOM     25  C   UNL     1       1.946   2.302  -1.420  0.00  0.00    -0.019 C 
ATOM     26  C   UNL     1       1.569   1.179  -2.402  0.00  0.00    -0.079 C 
ATOM     27  N   UNL     1       1.686  -0.121  -1.782  0.00  0.00    +0.380 N 
ATOM     28  C   UNL     1       0.344  -0.518  -1.321  0.00  0.00    -0.079 C 
ATOM     29  C   UNL     1       0.002  -0.004   0.002  0.00  0.00    -0.019 C 
ATOM     30  H   UNL     1       2.317  -0.070  -0.997  0.00  0.00    -0.082 HD
ENDBRANCH  22  27
ENDBRANCH  21  22
ENDBRANCH  20  21
ENDBRANCH   1  20
TORSDOF 7
