REMARK  Name = ZINC05566719
REMARK  5 active torsions:
REMARK  status: ('A' for Active; 'I' for Inactive)
REMARK    1  A    between atoms: C_4  and  N_7
REMARK    2  A    between atoms: N_7  and  C_8
REMARK    3  A    between atoms: C_8  and  N_10
REMARK    4  A    between atoms: N_10  and  N_11
REMARK    5  A    between atoms: C_12  and  C_14
REMARK                            x       y       z     vdW  Elec       q    Type
REMARK                         _______ _______ _______ _____ _____    ______ ____
ROOT
ATOM      1  N   UNL     1      -5.143   1.344   1.069  0.00  0.00    -0.235 N 
ATOM      2  C   UNL     1      -4.318   1.035   0.049  0.00  0.00    +0.235 C 
ATOM      3  O   UNL     1      -4.714   0.337  -0.861  0.00  0.00    -0.274 OA
ATOM      4  H   UNL     1      -4.784   1.976   1.894  0.00  0.00    +0.173 HD
ENDROOT
BRANCH   2   5
ATOM      5  C   UNL     1      -2.904   1.556   0.038  0.00  0.00    +0.049 C 
ATOM      6  C   UNL     1      -2.188   1.063  -1.221  0.00  0.00    +0.019 C 
ATOM      7  C   UNL     1      -0.753   1.593  -1.232  0.00  0.00    -0.009 C 
ATOM      8  C   UNL     1      -0.013   1.086   0.008  0.00  0.00    +0.007 C 
ATOM      9  C   UNL     1      -0.729   1.579   1.267  0.00  0.00    -0.009 C 
ATOM     10  C   UNL     1      -2.164   1.050   1.278  0.00  0.00    +0.019 C 
ATOM     11  C   UNL     1      -0.750   3.109   1.275  0.00  0.00    +0.007 C 
ATOM     12  C   UNL     1      -1.490   3.616   0.036  0.00  0.00    -0.009 C 
ATOM     13  C   UNL     1      -0.773   3.123  -1.223  0.00  0.00    +0.007 C 
ATOM     14  C   UNL     1      -2.925   3.086   0.047  0.00  0.00    +0.019 C 
ENDBRANCH   2   5
BRANCH   1  15
ATOM     15  N   UNL     1      -6.457   0.859   1.079  0.00  0.00    -0.246 N 
ATOM     16  H   UNL     1      -6.816   0.226   0.254  0.00  0.00    +0.172 HD
BRANCH  15  17
ATOM     17  C   UNL     1      -7.281   1.168   2.100  0.00  0.00    +0.147 C 
ATOM     18  S   UNL     1      -8.888   0.575   2.112  0.00  0.00    -0.017 S 
BRANCH  17  19
ATOM     19  N   UNL     1      -6.841   1.943   3.111  0.00  0.00    -0.323 N 
ATOM     20  H   UNL     1      -5.809   2.324   3.103  0.00  0.00    +0.148 HD
BRANCH  19  24
ATOM     21  C   UNL     1      -8.687   4.166   6.249  0.00  0.00    +0.000 C 
ATOM     22  C   UNL     1      -7.846   2.945   6.625  0.00  0.00    +0.002 C 
ATOM     23  C   UNL     1      -6.910   2.594   5.467  0.00  0.00    +0.022 C 
ATOM     24  C   UNL     1      -7.738   2.279   4.220  0.00  0.00    +0.072 C 
ATOM     25  C   UNL     1      -8.579   3.500   3.844  0.00  0.00    +0.022 C 
ATOM     26  C   UNL     1      -9.515   3.851   5.002  0.00  0.00    +0.002 C 
ENDBRANCH  19  24
ENDBRANCH  17  19
ENDBRANCH  15  17
ENDBRANCH   1  15
TORSDOF 5
