REMARK  Name = ZINC00849837
REMARK  4 active torsions:
REMARK  status: ('A' for Active; 'I' for Inactive)
REMARK    1  A    between atoms: C_1  and  C_2
REMARK    2  A    between atoms: C_5  and  N_23
REMARK    3  A    between atoms: N_16  and  C_17
REMARK    4  A    between atoms: N_23  and  C_24
REMARK                            x       y       z     vdW  Elec       q    Type
REMARK                         _______ _______ _______ _____ _____    ______ ____
ROOT
ATOM      1  C   UNL     1       7.126   4.740  -0.730  0.00  0.00    +0.028 C 
ATOM      2  C   UNL     1       6.065   3.997   0.084  0.00  0.00    +0.082 C 
ATOM      3  C   UNL     1       4.681   4.221  -0.538  0.00  0.00    +0.049 C 
ATOM      4  C   UNL     1       3.648   3.413   0.248  0.00  0.00    +0.104 C 
ATOM      5  C   UNL     1       3.767   3.699   1.722  0.00  0.00    -0.006 A 
ATOM      6  C   UNL     1       2.688   3.423   2.547  0.00  0.00    +0.007 A 
ATOM      7  C   UNL     1       2.767   3.671   3.903  0.00  0.00    +0.000 A 
ATOM      8  C   UNL     1       3.925   4.197   4.447  0.00  0.00    +0.002 A 
ATOM      9  C   UNL     1       5.003   4.477   3.632  0.00  0.00    +0.024 A 
ATOM     10  C   UNL     1       4.926   4.229   2.266  0.00  0.00    +0.043 A 
ATOM     11  N   UNL     1       6.031   4.524   1.456  0.00  0.00    -0.252 N 
ATOM     12  C   UNL     1       7.044   5.277   1.926  0.00  0.00    +0.311 C 
ATOM     13  O   UNL     1       8.104   5.311   1.330  0.00  0.00    -0.252 OA
ATOM     14  N   UNL     1       6.883   5.994   3.056  0.00  0.00    -0.269 N 
ATOM     15  H   UNL     1       6.004   6.073   3.459  0.00  0.00    +0.156 HD
ENDROOT
BRANCH  14  16
ATOM     16  C   UNL     1       7.984   6.623   3.648  0.00  0.00    +0.035 A 
ATOM     17  C   UNL     1       9.225   6.583   3.028  0.00  0.00    +0.023 A 
ATOM     18  C   UNL     1      10.308   7.211   3.611  0.00  0.00    +0.002 A 
ATOM     19  C   UNL     1      10.159   7.869   4.818  0.00  0.00    +0.000 A 
ATOM     20  C   UNL     1       8.926   7.906   5.442  0.00  0.00    +0.002 A 
ATOM     21  C   UNL     1       7.838   7.286   4.860  0.00  0.00    +0.023 A 
ENDBRANCH  14  16
BRANCH   4  22
ATOM     22  N   UNL     1       3.872   1.985   0.014  0.00  0.00    -0.337 N 
ATOM     23  H   UNL     1       4.343   1.452   0.674  0.00  0.00    +0.147 HD
BRANCH  22  24
ATOM     24  C   UNL     1       3.406   1.389  -1.161  0.00  0.00    +0.028 A 
ATOM     25  C   UNL     1       2.640   2.123  -2.057  0.00  0.00    +0.023 A 
ATOM     26  C   UNL     1       2.181   1.530  -3.217  0.00  0.00    +0.002 A 
ATOM     27  C   UNL     1       2.483   0.208  -3.487  0.00  0.00    +0.000 A 
ATOM     28  C   UNL     1       3.245  -0.525  -2.596  0.00  0.00    +0.002 A 
ATOM     29  C   UNL     1       3.707   0.061  -1.434  0.00  0.00    +0.023 A 
ENDBRANCH  22  24
ENDBRANCH   4  22
TORSDOF 3
