REMARK  Name = ZINC21259510
REMARK  9 active torsions:
REMARK  status: ('A' for Active; 'I' for Inactive)
REMARK    1  A    between atoms: C_1  and  C_2
REMARK    2  A    between atoms: C_2  and  C_3
REMARK    3  A    between atoms: C_6  and  C_9
REMARK    4  A    between atoms: C_14  and  C_20
REMARK    5  A    between atoms: C_22  and  O_30
REMARK    6  A    between atoms: C_23  and  O_27
REMARK    7  A    between atoms: O_27  and  C_28
REMARK    8  A    between atoms: C_28  and  C_29
REMARK    9  A    between atoms: O_30  and  C_31
REMARK                            x       y       z     vdW  Elec       q    Type
REMARK                         _______ _______ _______ _____ _____    ______ ____
ROOT
ATOM      1  C   UNL     1       2.065  -0.335   5.949  0.00  0.00    +0.032 C 
ATOM      2  C   UNL     1       2.738  -1.673   5.635  0.00  0.00    +0.059 C 
ATOM      3  C   UNL     1       3.426  -2.196   6.871  0.00  0.00    +0.018 C 
ATOM      4  C   UNL     1       2.944  -1.918   8.101  0.00  0.00    +0.020 C 
ATOM      5  C   UNL     1       3.646  -2.458   9.325  0.00  0.00    +0.063 C 
ATOM      6  C   UNL     1       4.222  -3.840   9.012  0.00  0.00    +0.109 C 
ATOM      7  C   UNL     1       4.974  -3.778   7.707  0.00  0.00    +0.218 C 
ATOM      8  O   UNL     1       5.961  -4.463   7.545  0.00  0.00    -0.275 OA
ATOM      9  N   UNL     1       4.553  -2.964   6.724  0.00  0.00    -0.289 N 
ATOM     10  C   UNL     1       1.796  -1.128   8.275  0.00  0.00    +0.162 C 
ATOM     11  O   UNL     1       1.383  -0.910   9.397  0.00  0.00    -0.292 OA
ATOM     12  C   UNL     1       1.067  -0.546   7.093  0.00  0.00    +0.088 C 
ATOM     13  H   UNL     1       5.130  -2.919   5.788  0.00  0.00    +0.155 HD
ENDROOT
BRANCH   5  14
ATOM     14  C   UNL     1       4.763  -1.524   9.715  0.00  0.00    -0.035 A 
ATOM     15  C   UNL     1       4.760  -0.928  10.963  0.00  0.00    +0.053 A 
ATOM     16  C   UNL     1       5.786  -0.070  11.324  0.00  0.00    +0.163 A 
ATOM     17  C   UNL     1       6.819   0.190  10.429  0.00  0.00    +0.176 A 
ATOM     18  C   UNL     1       6.817  -0.411   9.180  0.00  0.00    +0.063 A 
ATOM     19  C   UNL     1       5.792  -1.271   8.828  0.00  0.00    +0.023 A 
ATOM     20 BR   UNL     1       8.219  -0.062   7.960  0.00  0.00    -0.046 Br
BRANCH  16  21
ATOM     21  O   UNL     1       5.783   0.517  12.550  0.00  0.00    -0.491 OA
ATOM     22  C   UNL     1       4.690   0.205  13.417  0.00  0.00    +0.277 C 
ENDBRANCH  16  21
BRANCH  17  23
ATOM     23  O   UNL     1       7.828   1.032  10.779  0.00  0.00    -0.487 OA
BRANCH  23  24
ATOM     24  C   UNL     1       8.966   0.450  11.418  0.00  0.00    +0.226 C 
ATOM     25  C   UNL     1       9.988   1.544  11.734  0.00  0.00    +0.048 C 
ENDBRANCH  23  24
ENDBRANCH  17  23
ENDBRANCH   5  14
BRANCH   1  29
ATOM     26  C   UNL     1       0.000   1.080   2.488  0.00  0.00    -0.048 A 
ATOM     27  C   UNL     1      -0.347  -0.133   3.052  0.00  0.00    +0.004 A 
ATOM     28  C   UNL     1       0.324  -0.593   4.170  0.00  0.00    +0.004 A 
ATOM     29  C   UNL     1       1.337   0.165   4.728  0.00  0.00    -0.043 A 
ATOM     30  C   UNL     1       1.681   1.380   4.166  0.00  0.00    +0.004 A 
ATOM     31  C   UNL     1       1.012   1.838   3.046  0.00  0.00    +0.004 A 
BRANCH  26  33
ATOM     32  C   UNL     1      -0.013   1.086   0.008  0.00  0.00    +0.009 C 
ATOM     33  C   UNL     1      -0.729   1.579   1.267  0.00  0.00    +0.032 C 
ENDBRANCH  26  33
ENDBRANCH   1  29
TORSDOF 6
