REMARK  Name = ZINC13120982
REMARK  6 active torsions:
REMARK  status: ('A' for Active; 'I' for Inactive)
REMARK    1  A    between atoms: C_1  and  C_2
REMARK    2  A    between atoms: C_2  and  C_26
REMARK    3  A    between atoms: N_5  and  C_9
REMARK    4  A    between atoms: C_9  and  C_10
REMARK    5  A    between atoms: N_12  and  C_13
REMARK    6  A    between atoms: N_12  and  C_21
REMARK                            x       y       z     vdW  Elec       q    Type
REMARK                         _______ _______ _______ _____ _____    ______ ____
ROOT
ATOM      1  C   UNL     1       2.870  -1.895  -1.409  0.00  0.00    +0.213 C 
ENDROOT
BRANCH   1   6
ATOM      2  C   UNL     1      -0.017   1.527   0.011  0.00  0.00    +0.047 C 
ATOM      3  C   UNL     1       0.002  -0.003   0.000  0.00  0.00    +0.135 C 
ATOM      4  C   UNL     1       0.815  -0.517  -1.171  0.00  0.00    +0.251 C 
ATOM      5  O   UNL     1       0.596  -0.336  -2.350  0.00  0.00    -0.272 OA
ATOM      6  N   UNL     1       1.831  -1.217  -0.630  0.00  0.00    -0.215 N 
ATOM      7  C   UNL     1       1.774  -1.216   0.707  0.00  0.00    +0.310 C 
ATOM      8  O   UNL     1       2.582  -1.780   1.418  0.00  0.00    -0.252 OA
ATOM      9  N   UNL     1       0.722  -0.521   1.176  0.00  0.00    -0.281 N 
ATOM     10  H   UNL     1       0.485  -0.387   2.107  0.00  0.00    +0.152 HD
BRANCH   3  11
ATOM     11  C   UNL     1      -1.403  -0.548  -0.044  0.00  0.00    -0.016 A 
ATOM     12  C   UNL     1      -2.005  -0.808  -1.261  0.00  0.00    +0.006 A 
ATOM     13  C   UNL     1      -3.293  -1.309  -1.302  0.00  0.00    +0.000 A 
ATOM     14  C   UNL     1      -3.978  -1.550  -0.126  0.00  0.00    +0.000 A 
ATOM     15  C   UNL     1      -3.375  -1.291   1.091  0.00  0.00    +0.000 A 
ATOM     16  C   UNL     1      -2.086  -0.794   1.132  0.00  0.00    +0.006 A 
ENDBRANCH   3  11
ENDBRANCH   1   6
BRANCH   1  17
ATOM     17  C   UNL     1       4.020  -0.950  -1.644  0.00  0.00    +0.234 C 
ATOM     18  O   UNL     1       3.938   0.205  -1.284  0.00  0.00    -0.274 OA
ATOM     19  N   UNL     1       5.139  -1.388  -2.254  0.00  0.00    -0.292 N 
BRANCH  19  20
ATOM     20  C   UNL     1       6.296  -0.500  -2.387  0.00  0.00    +0.099 C 
ATOM     21  C   UNL     1       5.891   0.751  -3.184  0.00  0.00    +0.046 C 
ATOM     22  C   UNL     1       7.027   1.804  -3.043  0.00  0.00    +0.168 C 
ATOM     23  S   UNL     1       7.453   1.603  -1.262  0.00  0.00    -0.029 S 
ATOM     24  O   UNL     1       6.693   2.528  -0.497  0.00  0.00    -0.174 OA
ATOM     25  O   UNL     1       8.868   1.578  -1.125  0.00  0.00    -0.174 OA
ATOM     26  C   UNL     1       6.793  -0.090  -0.980  0.00  0.00    +0.188 C 
ENDBRANCH  19  20
BRANCH  19  27
ATOM     27  C   UNL     1       5.197  -2.752  -2.785  0.00  0.00    +0.076 C 
ATOM     28  C   UNL     1       6.301  -3.553  -2.064  0.00  0.00    +0.022 C 
ATOM     29  C   UNL     1       6.912  -4.442  -3.175  0.00  0.00    +0.002 C 
ATOM     30  C   UNL     1       6.900  -3.506  -4.408  0.00  0.00    +0.002 C 
ATOM     31  C   UNL     1       5.578  -2.723  -4.276  0.00  0.00    +0.022 C 
ENDBRANCH  19  27
ENDBRANCH   1  17
TORSDOF 5
