REMARK  Name = ZINC36246233
REMARK  5 active torsions:
REMARK  status: ('A' for Active; 'I' for Inactive)
REMARK    1  A    between atoms: C_4  and  C_7
REMARK    2  A    between atoms: C_7  and  N_8
REMARK    3  A    between atoms: N_8  and  C_9
REMARK    4  A    between atoms: N_8  and  S_16
REMARK    5  A    between atoms: S_16  and  C_19
REMARK                            x       y       z     vdW  Elec       q    Type
REMARK                         _______ _______ _______ _____ _____    ______ ____
ROOT
ATOM      1  N   UNL     1       4.072  -1.046   1.344  0.00  0.00    -0.199 N 
ENDROOT
BRANCH   1   2
ATOM      2  C   UNL     1       3.604  -2.231   1.916  0.00  0.00    +0.053 A 
ATOM      3  C   UNL     1       2.252  -2.548   1.853  0.00  0.00    +0.025 A 
ATOM      4  C   UNL     1       1.793  -3.720   2.420  0.00  0.00    +0.003 A 
ATOM      5  C   UNL     1       2.675  -4.579   3.049  0.00  0.00    +0.015 A 
ATOM      6  C   UNL     1       4.022  -4.266   3.113  0.00  0.00    +0.020 A 
ATOM      7  C   UNL     1       4.489  -3.098   2.543  0.00  0.00    +0.040 A 
ATOM      8 BR   UNL     1       5.224  -5.444   3.975  0.00  0.00    -0.050 Br
ENDBRANCH   1   2
BRANCH   1   9
ATOM      9  S   UNL     1       4.811   0.095   2.290  0.00  0.00    +0.075 S 
ATOM     10  O   UNL     1       5.204  -0.563   3.486  0.00  0.00    -0.150 OA
ATOM     11  O   UNL     1       5.737   0.776   1.455  0.00  0.00    -0.150 OA
BRANCH   9  12
ATOM     12  C   UNL     1       3.581   1.272   2.743  0.00  0.00    +0.109 A 
ATOM     13  C   UNL     1       3.280   2.320   1.893  0.00  0.00    +0.029 A 
ATOM     14  C   UNL     1       2.316   3.244   2.249  0.00  0.00    +0.002 A 
ATOM     15  C   UNL     1       1.651   3.120   3.455  0.00  0.00    +0.000 A 
ATOM     16  C   UNL     1       1.951   2.071   4.304  0.00  0.00    +0.002 A 
ATOM     17  C   UNL     1       2.913   1.145   3.947  0.00  0.00    +0.029 A 
ENDBRANCH   9  12
ENDBRANCH   1   9
BRANCH   1  18
ATOM     18  C   UNL     1       3.908  -0.811  -0.093  0.00  0.00    +0.166 C 
BRANCH  18  22
ATOM     19  C   UNL     1       7.061  -2.755  -2.222  0.00  0.00    +0.000 A 
ATOM     20  C   UNL     1       5.928  -3.463  -1.867  0.00  0.00    +0.000 A 
ATOM     21  C   UNL     1       4.908  -2.834  -1.178  0.00  0.00    +0.005 A 
ATOM     22  C   UNL     1       5.021  -1.497  -0.844  0.00  0.00    -0.028 A 
ATOM     23  C   UNL     1       6.154  -0.790  -1.198  0.00  0.00    +0.005 A 
ATOM     24  C   UNL     1       7.174  -1.418  -1.888  0.00  0.00    +0.000 A 
ENDBRANCH  18  22
ENDBRANCH   1  18
TORSDOF 5
