REMARK  Name = ZINC13500989
REMARK  12 active torsions:
REMARK  status: ('A' for Active; 'I' for Inactive)
REMARK    1  A    between atoms: C_1  and  C_2
REMARK    2  A    between atoms: C_2  and  C_3
REMARK    3  A    between atoms: C_3  and  C_4
REMARK    4  A    between atoms: C_4  and  C_6
REMARK    5  A    between atoms: C_4  and  N_72
REMARK    6  A    between atoms: N_10  and  C_11
REMARK    7  A    between atoms: C_16  and  C_17
REMARK    8  A    between atoms: C_16  and  N_72
REMARK    9  A    between atoms: C_17  and  C_18
REMARK   10  A    between atoms: C_24  and  C_25
REMARK   11  A    between atoms: C_24  and  N_72
REMARK   12  A    between atoms: C_29  and  C_37
REMARK                            x       y       z     vdW  Elec       q    Type
REMARK                         _______ _______ _______ _____ _____    ______ ____
ROOT
ATOM      1  N   UNL     1      -2.213   1.792  -1.250  0.00  0.00    +0.389 N 
ATOM      2  H   UNL     1      -1.986   1.625  -2.237  0.00  0.00    -0.080 HD
ENDROOT
BRANCH   1   3
ATOM      3  C   UNL     1      -0.961   1.794  -0.464  0.00  0.00    +0.003 C 
BRANCH   3   4
ATOM      4  C   UNL     1      -0.133   0.601  -0.868  0.00  0.00    +0.138 A 
ATOM      5  N   UNL     1      -0.558  -0.630  -1.022  0.00  0.00    -0.115 NA
ATOM      6  N   UNL     1       0.446  -1.355  -1.377  0.00  0.00    -0.023 NA
ATOM      7  N   UNL     1       1.500  -0.620  -1.453  0.00  0.00    -0.044 NA
ATOM      8  N   UNL     1       1.183   0.593  -1.147  0.00  0.00    -0.228 N 
BRANCH   8   9
ATOM      9  C   UNL     1       2.087   1.746  -1.110  0.00  0.00    +0.111 C 
ATOM     10  C   UNL     1       2.751   1.941  -2.489  0.00  0.00    +0.027 C 
ATOM     11  C   UNL     1       4.194   2.394  -2.155  0.00  0.00    +0.002 C 
ATOM     12  C   UNL     1       4.541   1.540  -0.910  0.00  0.00    +0.002 C 
ATOM     13  C   UNL     1       3.225   1.491  -0.106  0.00  0.00    +0.027 C 
ENDBRANCH   8   9
ENDBRANCH   3   4
BRANCH   3  14
ATOM     14  C   UNL     1      -1.267   1.719   1.033  0.00  0.00    -0.008 C 
BRANCH  14  16
ATOM     15  C   UNL     1      -0.259   1.675   3.318  0.00  0.00    +0.004 C 
ATOM     16  C   UNL     1       0.033   1.854   1.827  0.00  0.00    -0.005 C 
ENDBRANCH  14  16
ENDBRANCH   3  14
ENDBRANCH   1   3
BRANCH   1  17
ATOM     17  C   UNL     1      -3.106   0.715  -0.774  0.00  0.00    -0.073 C 
BRANCH  17  18
ATOM     18  C   UNL     1      -4.198   0.484  -1.821  0.00  0.00    +0.016 C 
BRANCH  18  19
ATOM     19  C   UNL     1      -5.133  -0.596  -1.340  0.00  0.00    -0.049 A 
ATOM     20  C   UNL     1      -4.881  -1.919  -1.655  0.00  0.00    +0.003 A 
ATOM     21  C   UNL     1      -5.737  -2.909  -1.210  0.00  0.00    +0.000 A 
ATOM     22  C   UNL     1      -6.849  -2.577  -0.460  0.00  0.00    +0.000 A 
ATOM     23  C   UNL     1      -7.104  -1.254  -0.151  0.00  0.00    +0.000 A 
ATOM     24  C   UNL     1      -6.246  -0.263  -0.591  0.00  0.00    +0.003 A 
ENDBRANCH  18  19
ENDBRANCH  17  18
ENDBRANCH   1  17
BRANCH   1  25
ATOM     25  C   UNL     1      -2.888   3.101  -1.127  0.00  0.00    -0.037 C 
BRANCH  25  26
ATOM     26  C   UNL     1      -2.184   4.093  -2.016  0.00  0.00    +0.001 A 
ATOM     27  C   UNL     1      -2.620   4.291  -3.285  0.00  0.00    +0.017 A 
ATOM     28  C   UNL     1      -1.914   5.262  -4.123  0.00  0.00    -0.001 A 
ATOM     29  C   UNL     1      -2.317   5.509  -5.440  0.00  0.00    +0.013 A 
ATOM     30  C   UNL     1      -1.638   6.421  -6.196  0.00  0.00    -0.050 A 
ATOM     31  C   UNL     1      -0.551   7.106  -5.669  0.00  0.00    +0.005 A 
ATOM     32  C   UNL     1      -0.137   6.879  -4.375  0.00  0.00    +0.026 A 
ATOM     33  C   UNL     1      -0.813   5.954  -3.586  0.00  0.00    +0.049 A 
ATOM     34  N   UNL     1      -0.420   5.707  -2.288  0.00  0.00    -0.322 N 
ATOM     35  H   UNL     1       0.339   6.185  -1.919  0.00  0.00    +0.169 HD
ATOM     36  C   UNL     1      -1.078   4.817  -1.524  0.00  0.00    +0.251 A 
ATOM     37  O   UNL     1      -0.706   4.628  -0.378  0.00  0.00    -0.268 OA
ATOM     38  C   UNL     1      -2.072   6.687  -7.614  0.00  0.00    +0.044 C 
ENDBRANCH  25  26
ENDBRANCH   1  25
TORSDOF 10
