REMARK  Name = ZINC12151636
REMARK  10 active torsions:
REMARK  status: ('A' for Active; 'I' for Inactive)
REMARK    1  A    between atoms: C_1  and  C_2
REMARK    2  A    between atoms: C_2  and  S_3
REMARK    3  A    between atoms: S_3  and  N_6
REMARK    4  A    between atoms: N_6  and  C_7
REMARK    5  A    between atoms: C_11  and  N_13
REMARK    6  A    between atoms: C_16  and  N_62
REMARK    7  A    between atoms: C_19  and  C_21
REMARK    8  A    between atoms: C_19  and  C_22
REMARK    9  A    between atoms: C_19  and  N_62
REMARK   10  A    between atoms: C_22  and  N_23
REMARK                            x       y       z     vdW  Elec       q    Type
REMARK                         _______ _______ _______ _____ _____    ______ ____
ROOT
ATOM      1  N   UNL     1      -4.527   0.196   2.335  0.00  0.00    -0.330 N 
ATOM      2  C   UNL     1      -3.409  -0.204   3.199  0.00  0.00    +0.103 C 
ATOM      3  C   UNL     1      -2.217   0.724   2.956  0.00  0.00    +0.003 C 
ATOM      4  C   UNL     1      -1.804   0.641   1.484  0.00  0.00    -0.068 C 
ATOM      5  C   UNL     1      -2.999   1.014   0.603  0.00  0.00    +0.003 C 
ATOM      6  C   UNL     1      -4.169   0.079   0.916  0.00  0.00    +0.103 C 
ENDROOT
BRANCH   1  11
ATOM      7  C   UNL     1      -7.983  -1.059   2.207  0.00  0.00    +0.049 A 
ATOM      8  C   UNL     1      -7.946  -2.023   3.207  0.00  0.00    +0.024 A 
ATOM      9  C   UNL     1      -6.779  -2.246   3.911  0.00  0.00    +0.004 A 
ATOM     10  C   UNL     1      -5.644  -1.512   3.623  0.00  0.00    +0.023 A 
ATOM     11  C   UNL     1      -5.674  -0.546   2.625  0.00  0.00    +0.031 A 
ATOM     12  C   UNL     1      -6.847  -0.316   1.920  0.00  0.00    +0.047 A 
BRANCH   7  13
ATOM     13  N   UNL     1      -9.165  -0.834   1.497  0.00  0.00    -0.221 N 
ATOM     14  H   UNL     1      -9.140  -0.742   0.531  0.00  0.00    +0.173 HD
BRANCH  13  15
ATOM     15  S   UNL     1     -10.607  -0.722   2.302  0.00  0.00    +0.043 S 
ATOM     16  O   UNL     1     -11.577  -0.520   1.283  0.00  0.00    -0.155 OA
ATOM     17  O   UNL     1     -10.653  -1.879   3.126  0.00  0.00    -0.155 OA
BRANCH  15  19
ATOM     18  C   UNL     1     -11.746   0.972   4.123  0.00  0.00    +0.030 C 
ATOM     19  C   UNL     1     -10.456   0.768   3.325  0.00  0.00    +0.185 C 
ENDBRANCH  15  19
ENDBRANCH  13  15
ENDBRANCH   7  13
ENDBRANCH   1  11
BRANCH   4  20
ATOM     20  N   UNL     1      -0.699   1.583   1.227  0.00  0.00    +0.384 N 
ATOM     21  H   UNL     1      -0.824   2.420   1.810  0.00  0.00    -0.085 HD
ATOM     22  H   UNL     1      -0.706   1.852   0.236  0.00  0.00    -0.085 HD
BRANCH  20  23
ATOM     23  C   UNL     1       0.596   0.955   1.552  0.00  0.00    -0.055 C 
ATOM     24  C   UNL     1       1.099   0.168   0.340  0.00  0.00    -0.012 C 
BRANCH  23  25
ATOM     25  C   UNL     1       1.608   2.045   1.908  0.00  0.00    +0.106 C 
BRANCH  25  26
ATOM     26  N   UNL     1       1.186   2.720   3.138  0.00  0.00    -0.348 N 
ATOM     27  C   UNL     1       0.462   3.880   3.189  0.00  0.00    +0.087 A 
ATOM     28  C   UNL     1       0.241   4.226   4.467  0.00  0.00    +0.027 A 
ATOM     29  C   UNL     1       0.883   3.209   5.303  0.00  0.00    -0.000 A 
ATOM     30  C   UNL     1       1.464   2.285   4.414  0.00  0.00    +0.049 A 
ATOM     31  C   UNL     1       2.154   1.191   4.924  0.00  0.00    +0.026 A 
ATOM     32  C   UNL     1       2.262   1.024   6.288  0.00  0.00    +0.002 A 
ATOM     33  C   UNL     1       1.688   1.939   7.160  0.00  0.00    +0.001 A 
ATOM     34  C   UNL     1       1.005   3.021   6.681  0.00  0.00    +0.010 A 
ENDBRANCH  25  26
ENDBRANCH  23  25
ENDBRANCH  20  23
ENDBRANCH   4  20
TORSDOF 8
