REMARK  Name = ZINC34747410
REMARK  6 active torsions:
REMARK  status: ('A' for Active; 'I' for Inactive)
REMARK    1  A    between atoms: C_1  and  C_2
REMARK    2  A    between atoms: C_5  and  C_33
REMARK    3  A    between atoms: C_6  and  C_8
REMARK    4  A    between atoms: C_8  and  N_9
REMARK    5  A    between atoms: N_22  and  C_25
REMARK    6  A    between atoms: C_25  and  C_26
REMARK                            x       y       z     vdW  Elec       q    Type
REMARK                         _______ _______ _______ _____ _____    ______ ____
ROOT
ATOM      1  N   UNL     1       1.602  -3.604   3.163  0.00  0.00    -0.276 N 
ATOM      2  C   UNL     1       2.024  -4.762   2.623  0.00  0.00    +0.264 A 
ATOM      3  O   UNL     1       1.284  -5.415   1.906  0.00  0.00    -0.267 OA
ATOM      4  C   UNL     1       3.352  -5.217   2.901  0.00  0.00    +0.076 A 
ATOM      5  C   UNL     1       4.012  -6.434   2.426  0.00  0.00    -0.023 A 
ATOM      6  C   UNL     1       5.281  -6.640   2.834  0.00  0.00    -0.004 A 
ATOM      7  S   UNL     1       5.668  -5.246   3.858  0.00  0.00    -0.073 S 
ATOM      8  C   UNL     1       4.119  -4.389   3.737  0.00  0.00    +0.117 A 
ATOM      9  N   UNL     1       3.642  -3.256   4.239  0.00  0.00    -0.208 NA
ATOM     10  C   UNL     1       2.417  -2.858   3.963  0.00  0.00    +0.202 A 
ATOM     11  N   UNL     1       1.952  -1.679   4.490  0.00  0.00    -0.304 N 
ATOM     12  C   UNL     1       2.168  -1.348   5.907  0.00  0.00    +0.089 C 
ATOM     13  C   UNL     1       2.760   0.063   5.992  0.00  0.00    -0.059 C 
ATOM     14  N   UNL     1       1.888   1.002   5.276  0.00  0.00    +0.387 N 
ATOM     15  C   UNL     1       1.862   0.670   3.846  0.00  0.00    -0.059 C 
ATOM     16  C   UNL     1       1.230  -0.708   3.654  0.00  0.00    +0.089 C 
ATOM     17  C   UNL     1       6.168  -7.799   2.492  0.00  0.00    +0.043 C 
ATOM     18  C   UNL     1       5.296  -8.918   1.903  0.00  0.00    +0.005 C 
ATOM     19  C   UNL     1       4.372  -8.314   0.842  0.00  0.00    +0.005 C 
ATOM     20  C   UNL     1       3.314  -7.437   1.512  0.00  0.00    +0.037 C 
ATOM     21  H   UNL     1       0.953   0.944   5.651  0.00  0.00    -0.081 HD
ENDROOT
BRANCH   1  22
ATOM     22  C   UNL     1       0.244  -3.133   2.882  0.00  0.00    +0.163 C 
BRANCH  22  28
ATOM     23  C   UNL     1      -3.025  -6.863   2.213  0.00  0.00    +0.044 C 
ATOM     24  C   UNL     1      -2.318  -5.895   3.127  0.00  0.00    -0.050 A 
ATOM     25  C   UNL     1      -2.586  -5.904   4.483  0.00  0.00    +0.003 A 
ATOM     26  C   UNL     1      -1.938  -5.016   5.321  0.00  0.00    +0.004 A 
ATOM     27  C   UNL     1      -1.022  -4.119   4.803  0.00  0.00    -0.046 A 
ATOM     28  C   UNL     1      -0.754  -4.111   3.447  0.00  0.00    -0.024 A 
ATOM     29  C   UNL     1      -1.399  -5.002   2.610  0.00  0.00    +0.009 A 
ATOM     30  C   UNL     1      -0.317  -3.150   5.717  0.00  0.00    +0.044 C 
ENDBRANCH  22  28
ENDBRANCH   1  22
BRANCH  14  31
ATOM     31  C   UNL     1       2.397   2.369   5.450  0.00  0.00    +0.018 C 
BRANCH  31  32
ATOM     32  C   UNL     1       1.438   3.346   4.820  0.00  0.00    +0.194 C 
ATOM     33  O   UNL     1       0.429   2.943   4.280  0.00  0.00    -0.278 OA
ATOM     34  N   UNL     1       1.700   4.668   4.857  0.00  0.00    -0.331 N 
ATOM     35  H   UNL     1       2.506   4.990   5.290  0.00  0.00    +0.145 HD
ATOM     36  H   UNL     1       1.083   5.296   4.452  0.00  0.00    +0.145 HD
ENDBRANCH  31  32
ENDBRANCH  14  31
TORSDOF 4
