REMARK  Name = ZINC66130230
REMARK  6 active torsions:
REMARK  status: ('A' for Active; 'I' for Inactive)
REMARK    1  A    between atoms: C_1  and  C_2
REMARK    2  A    between atoms: C_2  and  C_3
REMARK    3  A    between atoms: C_3  and  C_5
REMARK    4  A    between atoms: C_3  and  N_6
REMARK    5  A    between atoms: C_16  and  C_17
REMARK    6  A    between atoms: C_16  and  C_18
REMARK                            x       y       z     vdW  Elec       q    Type
REMARK                         _______ _______ _______ _____ _____    ______ ____
ROOT
ATOM      1  N   UNL     1      -2.149  -0.181   1.298  0.00  0.00    -0.270 N 
ATOM      2  C   UNL     1      -1.679  -0.464   2.529  0.00  0.00    +0.250 C 
ATOM      3  O   UNL     1      -0.708  -1.183   2.665  0.00  0.00    -0.270 OA
ATOM      4  C   UNL     1      -2.353   0.106   3.709  0.00  0.00    +0.058 A 
ATOM      5  C   UNL     1      -2.030  -0.301   5.002  0.00  0.00    +0.015 A 
ATOM      6  C   UNL     1      -2.694   0.255   6.076  0.00  0.00    +0.001 A 
ATOM      7  C   UNL     1      -3.678   1.211   5.877  0.00  0.00    +0.002 A 
ATOM      8  C   UNL     1      -4.006   1.626   4.600  0.00  0.00    +0.024 A 
ATOM      9  C   UNL     1      -3.345   1.082   3.512  0.00  0.00    +0.041 A 
ATOM     10  N   UNL     1      -3.624   1.485   2.211  0.00  0.00    -0.319 N 
ATOM     11  C   UNL     1      -3.411   0.536   1.115  0.00  0.00    +0.125 C 
ATOM     12  C   UNL     1      -3.375   1.295  -0.213  0.00  0.00    +0.059 C 
ATOM     13  H   UNL     1      -3.951   2.380   2.030  0.00  0.00    +0.148 HD
ENDROOT
BRANCH  11  14
ATOM     14  C   UNL     1      -4.548  -0.453   1.090  0.00  0.00    -0.006 A 
ATOM     15  C   UNL     1      -4.388  -1.674   0.462  0.00  0.00    +0.007 A 
ATOM     16  C   UNL     1      -5.431  -2.581   0.439  0.00  0.00    +0.000 A 
ATOM     17  C   UNL     1      -6.633  -2.267   1.045  0.00  0.00    +0.000 A 
ATOM     18  C   UNL     1      -6.792  -1.047   1.674  0.00  0.00    +0.000 A 
ATOM     19  C   UNL     1      -5.748  -0.141   1.700  0.00  0.00    +0.007 A 
ENDBRANCH  11  14
BRANCH   1  20
ATOM     20  C   UNL     1      -1.379  -0.594   0.121  0.00  0.00    +0.075 C 
ATOM     21  C   UNL     1      -1.118  -2.100   0.185  0.00  0.00    +0.028 C 
BRANCH  20  23
ATOM     22  C   UNL     1      -0.302   1.651  -0.092  0.00  0.00    +0.006 C 
ATOM     23  C   UNL     1      -0.044   0.154   0.097  0.00  0.00    +0.019 C 
ENDBRANCH  20  23
ENDBRANCH   1  20
TORSDOF 3
