REMARK  Name = ZINC45578167
REMARK  9 active torsions:
REMARK  status: ('A' for Active; 'I' for Inactive)
REMARK    1  A    between atoms: C_1  and  C_2
REMARK    2  A    between atoms: C_2  and  C_3
REMARK    3  A    between atoms: C_2  and  C_4
REMARK    4  A    between atoms: C_2  and  N_19
REMARK    5  A    between atoms: C_4  and  N_5
REMARK    6  A    between atoms: C_6  and  C_8
REMARK    7  A    between atoms: C_8  and  N_9
REMARK    8  A    between atoms: N_9  and  C_10
REMARK    9  A    between atoms: N_9  and  C_11
REMARK                            x       y       z     vdW  Elec       q    Type
REMARK                         _______ _______ _______ _____ _____    ______ ____
ROOT
ATOM      1  C   UNL     1      -1.523  -0.094   0.078  0.00  0.00    +0.091 C 
ENDROOT
BRANCH   1   2
ATOM      2  N   UNL     1      -1.928  -1.502   0.115  0.00  0.00    -0.318 N 
ATOM      3  C   UNL     1      -3.235  -1.826   0.182  0.00  0.00    +0.196 C 
ATOM      4  O   UNL     1      -4.075  -0.952   0.213  0.00  0.00    -0.278 OA
ATOM      5  H   UNL     1      -1.256  -2.201   0.090  0.00  0.00    +0.149 HD
BRANCH   3   6
ATOM      6  C   UNL     1      -3.651  -3.274   0.220  0.00  0.00    +0.019 C 
BRANCH   6   7
ATOM      7  N   UNL     1      -5.115  -3.361   0.293  0.00  0.00    +0.387 N 
ATOM      8  C   UNL     1      -5.700  -2.820  -0.942  0.00  0.00    -0.095 C 
ATOM      9  H   UNL     1      -5.445  -2.826   1.083  0.00  0.00    -0.081 HD
BRANCH   7  10
ATOM     10  C   UNL     1      -5.516  -4.765   0.450  0.00  0.00    -0.046 C 
ATOM     11  C   UNL     1      -4.913  -5.325   1.749  0.00  0.00    +0.009 C 
ATOM     12  C   UNL     1      -5.596  -6.690   2.051  0.00  0.00    +0.164 C 
ATOM     13  S   UNL     1      -7.342  -6.298   1.610  0.00  0.00    -0.033 S 
ATOM     14  O   UNL     1      -7.878  -7.370   0.847  0.00  0.00    -0.174 OA
ATOM     15  O   UNL     1      -8.025  -5.859   2.776  0.00  0.00    -0.174 OA
ATOM     16  C   UNL     1      -7.060  -4.857   0.504  0.00  0.00    +0.151 C 
ENDBRANCH   7  10
ENDBRANCH   6   7
ENDBRANCH   3   6
ENDBRANCH   1   2
BRANCH   1  18
ATOM     17  C   UNL     1       0.425   1.466  -0.036  0.00  0.00    -0.008 C 
ATOM     18  C   UNL     1       0.002  -0.004   0.002  0.00  0.00    -0.055 C 
ATOM     19  C   UNL     1       0.615  -0.679   1.231  0.00  0.00    -0.008 C 
BRANCH  18  20
ATOM     20  N   UNL     1       0.473  -0.681  -1.214  0.00  0.00    +0.387 N 
ATOM     21  C   UNL     1       1.927  -0.503  -1.345  0.00  0.00    -0.073 C 
ATOM     22  C   UNL     1       2.439  -1.456  -2.426  0.00  0.00    +0.017 C 
ATOM     23  C   UNL     1       1.615  -1.297  -3.678  0.00  0.00    -0.048 A 
ATOM     24  C   UNL     1       2.113  -1.800  -4.870  0.00  0.00    +0.004 A 
ATOM     25  C   UNL     1       1.385  -1.676  -6.036  0.00  0.00    +0.000 A 
ATOM     26  C   UNL     1       0.153  -1.047  -6.014  0.00  0.00    +0.000 A 
ATOM     27  C   UNL     1      -0.342  -0.545  -4.828  0.00  0.00    +0.002 A 
ATOM     28  C   UNL     1       0.389  -0.667  -3.656  0.00  0.00    -0.061 A 
ATOM     29  C   UNL     1      -0.186  -0.097  -2.386  0.00  0.00    -0.042 C 
ATOM     30  H   UNL     1       0.255  -1.664  -1.159  0.00  0.00    -0.080 HD
ENDBRANCH  18  20
ENDBRANCH   1  18
TORSDOF 6
