REMARK  Name = ZINC00707306
REMARK  10 active torsions:
REMARK  status: ('A' for Active; 'I' for Inactive)
REMARK    1  A    between atoms: C_1  and  C_2
REMARK    2  A    between atoms: C_5  and  N_9
REMARK    3  A    between atoms: C_12  and  C_19
REMARK    4  A    between atoms: C_14  and  C_17
REMARK    5  A    between atoms: C_15  and  N_16
REMARK    6  A    between atoms: C_22  and  O_26
REMARK    7  A    between atoms: C_23  and  O_25
REMARK    8  A    between atoms: O_26  and  C_27
REMARK    9  A    between atoms: C_31  and  C_33
REMARK   10  A    between atoms: C_31  and  C_34
REMARK                            x       y       z     vdW  Elec       q    Type
REMARK                         _______ _______ _______ _____ _____    ______ ____
ROOT
ATOM      1  N   UNL     1      -6.877  -1.656  -0.310  0.00  0.00    -0.260 N 
ATOM      2  C   UNL     1      -5.914  -1.921   0.628  0.00  0.00    +0.025 C 
ATOM      3  C   UNL     1      -5.624  -1.020   1.590  0.00  0.00    +0.025 C 
ATOM      4  C   UNL     1      -6.349   0.301   1.659  0.00  0.00    +0.097 C 
ATOM      5  C   UNL     1      -7.620   0.262   0.864  0.00  0.00    +0.077 C 
ATOM      6  C   UNL     1      -7.833  -0.693  -0.076  0.00  0.00    +0.107 C 
ATOM      7  C   UNL     1      -4.637  -1.284   2.557  0.00  0.00    +0.162 C 
ATOM      8  O   UNL     1      -4.412  -0.458   3.419  0.00  0.00    -0.292 OA
ATOM      9  C   UNL     1      -3.856  -2.569   2.542  0.00  0.00    +0.086 C 
ATOM     10  C   UNL     1      -3.770  -3.084   1.101  0.00  0.00    -0.023 C 
ATOM     11  C   UNL     1      -5.192  -3.244   0.559  0.00  0.00    +0.058 C 
ATOM     12  C   UNL     1      -3.002  -2.078   0.241  0.00  0.00    +0.011 C 
ATOM     13  C   UNL     1      -3.051  -4.434   1.080  0.00  0.00    +0.011 C 
ENDROOT
BRANCH   1  18
ATOM     14  C   UNL     1      -6.929  -4.546  -5.193  0.00  0.00    +0.045 C 
ATOM     15  C   UNL     1      -6.915  -3.779  -3.896  0.00  0.00    -0.032 A 
ATOM     16  C   UNL     1      -7.626  -4.249  -2.807  0.00  0.00    +0.006 A 
ATOM     17  C   UNL     1      -7.615  -3.548  -1.618  0.00  0.00    +0.024 A 
ATOM     18  C   UNL     1      -6.889  -2.368  -1.514  0.00  0.00    +0.041 A 
ATOM     19  C   UNL     1      -6.180  -1.895  -2.610  0.00  0.00    +0.044 A 
ATOM     20  C   UNL     1      -6.190  -2.604  -3.797  0.00  0.00    +0.046 A 
ATOM     21 CL   UNL     1      -5.298  -2.017  -5.165  0.00  0.00    -0.083 Cl
ENDBRANCH   1  18
BRANCH   4  22
ATOM     22  C   UNL     1      -5.456   1.383   1.110  0.00  0.00    -0.031 A 
ATOM     23  C   UNL     1      -5.019   1.319  -0.201  0.00  0.00    +0.008 A 
ATOM     24  C   UNL     1      -4.204   2.312  -0.711  0.00  0.00    +0.050 A 
ATOM     25  C   UNL     1      -3.814   3.370   0.095  0.00  0.00    +0.161 A 
ATOM     26  C   UNL     1      -4.253   3.435   1.414  0.00  0.00    +0.159 A 
ATOM     27  C   UNL     1      -5.075   2.439   1.917  0.00  0.00    +0.053 A 
BRANCH  26  28
ATOM     28  O   UNL     1      -3.877   4.473   2.207  0.00  0.00    -0.503 OA
ATOM     29  H   UNL     1      -4.480   5.229   2.177  0.00  0.00    +0.292 HD
ENDBRANCH  26  28
BRANCH  25  30
ATOM     30  O   UNL     1      -3.008   4.345  -0.403  0.00  0.00    -0.491 OA
ATOM     31  C   UNL     1      -2.596   4.213  -1.765  0.00  0.00    +0.277 C 
ENDBRANCH  25  30
ENDBRANCH   4  22
BRANCH   6  32
ATOM     32  N   UNL     1      -9.004  -0.699  -0.797  0.00  0.00    -0.345 N 
ATOM     33  H   UNL     1      -9.195  -1.429  -1.405  0.00  0.00    +0.144 HD
ATOM     34  H   UNL     1      -9.638   0.028  -0.696  0.00  0.00    +0.144 HD
ENDBRANCH   6  32
BRANCH   5  35
ATOM     35  C   UNL     1      -8.629   1.251   1.101  0.00  0.00    +0.099 C 
ATOM     36  N   UNL     1      -9.429   2.035   1.289  0.00  0.00    -0.191 NA
ENDBRANCH   5  35
TORSDOF 6
