REMARK  Name = ZINC05092535
REMARK  7 active torsions:
REMARK  status: ('A' for Active; 'I' for Inactive)
REMARK    1  A    between atoms: C_1  and  C_2
REMARK    2  A    between atoms: C_2  and  N_3
REMARK    3  A    between atoms: N_3  and  C_4
REMARK    4  A    between atoms: N_3  and  C_6
REMARK    5  A    between atoms: C_4  and  C_5
REMARK    6  A    between atoms: C_9  and  C_12
REMARK    7  A    between atoms: C_17  and  C_29
REMARK                            x       y       z     vdW  Elec       q    Type
REMARK                         _______ _______ _______ _____ _____    ______ ____
ROOT
ATOM      1  C   UNL     1       0.364  -6.132  -1.473  0.00  0.00    +0.032 C 
ATOM      2  C   UNL     1      -1.104  -6.566  -1.550  0.00  0.00    +0.088 C 
ATOM      3  C   UNL     1      -1.153  -8.056  -1.707  0.00  0.00    +0.163 C 
ATOM      4  C   UNL     1      -0.113  -8.785  -2.330  0.00  0.00    +0.039 C 
ATOM      5  C   UNL     1      -0.347 -10.276  -2.363  0.00  0.00    +0.172 C 
ATOM      6  N   UNL     1       0.565 -11.010  -3.214  0.00  0.00    -0.329 N 
ATOM      7  C   UNL     1       1.927 -11.065  -2.927  0.00  0.00    +0.049 A 
ATOM      8  C   UNL     1       2.551 -12.257  -2.595  0.00  0.00    +0.025 A 
ATOM      9  C   UNL     1       3.897 -12.252  -2.271  0.00  0.00    +0.002 A 
ATOM     10  C   UNL     1       4.614 -11.070  -2.275  0.00  0.00    +0.002 A 
ATOM     11  C   UNL     1       3.998  -9.880  -2.623  0.00  0.00    +0.025 A 
ATOM     12  C   UNL     1       2.658  -9.887  -2.969  0.00  0.00    +0.052 A 
ATOM     13  N   UNL     1       2.007  -8.752  -3.440  0.00  0.00    -0.316 N 
ATOM     14  C   UNL     1       0.960  -8.144  -2.824  0.00  0.00    +0.017 C 
ATOM     15  C   UNL     1       1.065  -6.631  -2.735  0.00  0.00    +0.059 C 
ATOM     16  O   UNL     1      -2.120  -8.659  -1.284  0.00  0.00    -0.292 OA
ATOM     17  H   UNL     1       0.222 -11.471  -3.996  0.00  0.00    +0.147 HD
ATOM     18  H   UNL     1       2.324  -8.366  -4.271  0.00  0.00    +0.152 HD
ENDROOT
BRANCH   1  22
ATOM     19  C   UNL     1       0.609  -1.872  -1.272  0.00  0.00    +0.013 A 
ATOM     20  C   UNL     1       1.141  -2.643  -0.256  0.00  0.00    +0.022 A 
ATOM     21  C   UNL     1       1.062  -4.022  -0.321  0.00  0.00    +0.006 A 
ATOM     22  C   UNL     1       0.450  -4.629  -1.402  0.00  0.00    -0.043 A 
ATOM     23  C   UNL     1      -0.082  -3.857  -2.418  0.00  0.00    +0.006 A 
ATOM     24  C   UNL     1      -0.007  -2.479  -2.351  0.00  0.00    +0.022 A 
BRANCH  19  25
ATOM     25  N   UNL     1       0.690  -0.478  -1.207  0.00  0.00    -0.394 NA
ATOM     26  H   UNL     1       0.251  -0.077  -2.022  0.00  0.00    +0.126 HD
BRANCH  25  28
ATOM     27  C   UNL     1      -0.019   1.526   0.010  0.00  0.00    +0.022 C 
ATOM     28  C   UNL     1       0.002  -0.004   0.002  0.00  0.00    +0.081 C 
ENDBRANCH  25  28
BRANCH  25  29
ATOM     29  C   UNL     1       2.100  -0.070  -1.159  0.00  0.00    +0.081 C 
ATOM     30  C   UNL     1       2.786  -0.454  -2.472  0.00  0.00    +0.022 C 
ENDBRANCH  25  29
ENDBRANCH  19  25
ENDBRANCH   1  22
BRANCH   5  31
ATOM     31  C   UNL     1      -0.219 -10.810  -0.959  0.00  0.00    +0.130 A 
ATOM     32  C   UNL     1      -1.239 -11.108  -0.135  0.00  0.00    +0.047 A 
ATOM     33  C   UNL     1      -0.668 -11.574   1.072  0.00  0.00    +0.041 A 
ATOM     34  C   UNL     1       0.667 -11.533   0.912  0.00  0.00    +0.195 A 
ATOM     35  O   UNL     1       0.933 -11.075  -0.322  0.00  0.00    -0.466 OA
ENDBRANCH   5  31
TORSDOF 5
