REMARK  Name = ZINC14461384
REMARK  9 active torsions:
REMARK  status: ('A' for Active; 'I' for Inactive)
REMARK    1  A    between atoms: C_1  and  C_2
REMARK    2  A    between atoms: C_2  and  N_3
REMARK    3  A    between atoms: N_3  and  C_4
REMARK    4  A    between atoms: N_3  and  C_6
REMARK    5  A    between atoms: C_4  and  C_5
REMARK    6  A    between atoms: C_9  and  C_12
REMARK    7  A    between atoms: C_23  and  S_28
REMARK    8  A    between atoms: S_28  and  N_31
REMARK    9  A    between atoms: N_31  and  C_32
REMARK                            x       y       z     vdW  Elec       q    Type
REMARK                         _______ _______ _______ _____ _____    ______ ____
ROOT
ATOM      1  C   UNL     1      -3.131  -7.376   1.089  0.00  0.00    +0.105 C 
ATOM      2  C   UNL     1      -2.033  -6.881   0.165  0.00  0.00    +0.029 C 
ATOM      3  C   UNL     1      -0.846  -6.155   0.813  0.00  0.00    +0.033 C 
ATOM      4  C   UNL     1       0.286  -6.483  -0.162  0.00  0.00    -0.030 C 
ATOM      5  C   UNL     1       0.022  -7.618  -0.798  0.00  0.00    -0.023 C 
ATOM      6  C   UNL     1      -1.284  -8.161  -0.315  0.00  0.00    +0.049 C 
ATOM      7  C   UNL     1      -2.208  -8.928  -1.179  0.00  0.00    -0.018 A 
ATOM      8  C   UNL     1      -1.773  -9.643  -2.274  0.00  0.00    +0.034 A 
ATOM      9  C   UNL     1      -2.674 -10.356  -3.044  0.00  0.00    +0.109 A 
ATOM     10  C   UNL     1      -4.018 -10.353  -2.715  0.00  0.00    +0.030 A 
ATOM     11  C   UNL     1      -4.463  -9.636  -1.624  0.00  0.00    +0.025 A 
ATOM     12  C   UNL     1      -3.567  -8.910  -0.848  0.00  0.00    +0.031 A 
ATOM     13  N   UNL     1      -4.048  -8.163   0.235  0.00  0.00    -0.336 N 
ATOM     14  H   UNL     1      -4.999  -8.159   0.428  0.00  0.00    +0.147 HD
ENDROOT
BRANCH   1  18
ATOM     15  C   UNL     1      -5.201  -4.067   2.824  0.00  0.00    +0.013 A 
ATOM     16  C   UNL     1      -4.259  -4.758   3.563  0.00  0.00    +0.022 A 
ATOM     17  C   UNL     1      -3.589  -5.828   3.002  0.00  0.00    +0.007 A 
ATOM     18  C   UNL     1      -3.862  -6.210   1.701  0.00  0.00    -0.027 A 
ATOM     19  C   UNL     1      -4.805  -5.520   0.963  0.00  0.00    +0.007 A 
ATOM     20  C   UNL     1      -5.478  -4.452   1.526  0.00  0.00    +0.022 A 
BRANCH  15  21
ATOM     21  N   UNL     1      -5.879  -2.985   3.392  0.00  0.00    -0.394 NA
ATOM     22  H   UNL     1      -6.528  -2.604   2.720  0.00  0.00    +0.126 HD
BRANCH  21  24
ATOM     23  C   UNL     1      -7.453  -2.281   5.131  0.00  0.00    +0.022 C 
ATOM     24  C   UNL     1      -6.614  -3.436   4.582  0.00  0.00    +0.081 C 
ENDBRANCH  21  24
BRANCH  21  25
ATOM     25  C   UNL     1      -4.911  -1.949   3.779  0.00  0.00    +0.081 C 
ATOM     26  C   UNL     1      -4.234  -1.391   2.525  0.00  0.00    +0.022 C 
ENDBRANCH  21  25
ENDBRANCH  15  21
ENDBRANCH   1  18
BRANCH   9  27
ATOM     27  S   UNL     1      -2.111 -11.267  -4.443  0.00  0.00    +0.072 S 
ATOM     28  O   UNL     1      -3.187 -11.294  -5.370  0.00  0.00    -0.150 OA
ATOM     29  O   UNL     1      -0.831 -10.747  -4.777  0.00  0.00    -0.150 OA
BRANCH  27  30
ATOM     30  N   UNL     1      -1.873 -12.829  -3.947  0.00  0.00    -0.216 N 
ATOM     31  H   UNL     1      -2.397 -13.546  -4.336  0.00  0.00    +0.174 HD
BRANCH  30  32
ATOM     32  C   UNL     1      -0.916 -13.113  -2.970  0.00  0.00    +0.048 A 
ATOM     33  C   UNL     1       0.435 -13.092  -3.291  0.00  0.00    +0.024 A 
ATOM     34  C   UNL     1       1.378 -13.373  -2.321  0.00  0.00    +0.002 A 
ATOM     35  C   UNL     1       0.978 -13.676  -1.033  0.00  0.00    +0.000 A 
ATOM     36  C   UNL     1      -0.367 -13.697  -0.710  0.00  0.00    +0.002 A 
ATOM     37  C   UNL     1      -1.314 -13.411  -1.673  0.00  0.00    +0.024 A 
ENDBRANCH  30  32
ENDBRANCH  27  30
ENDBRANCH   9  27
TORSDOF 7
