REMARK  Name = ZINC06032922
REMARK  5 active torsions:
REMARK  status: ('A' for Active; 'I' for Inactive)
REMARK    1  A    between atoms: C_1  and  C_2
REMARK    2  A    between atoms: C_5  and  N_8
REMARK    3  A    between atoms: C_17  and  S_18
REMARK    4  A    between atoms: S_18  and  C_19
REMARK    5  A    between atoms: C_19  and  C_20
REMARK                            x       y       z     vdW  Elec       q    Type
REMARK                         _______ _______ _______ _____ _____    ______ ____
ROOT
ATOM      1  N   UNL     1       1.205   6.072   0.017  0.00  0.00    -0.255 N 
ATOM      2  C   UNL     1       1.626   4.890  -0.491  0.00  0.00    +0.268 A 
ATOM      3  O   UNL     1       2.746   4.745  -0.949  0.00  0.00    -0.267 OA
ATOM      4  C   UNL     1       0.674   3.820  -0.458  0.00  0.00    +0.076 A 
ATOM      5  C   UNL     1       0.875   2.463  -0.938  0.00  0.00    -0.023 A 
ATOM      6  C   UNL     1      -0.168   1.612  -0.808  0.00  0.00    -0.004 A 
ATOM      7  S   UNL     1      -1.458   2.568  -0.052  0.00  0.00    -0.073 S 
ATOM      8  C   UNL     1      -0.596   4.102   0.096  0.00  0.00    +0.117 A 
ATOM      9  N   UNL     1      -0.948   5.286   0.581  0.00  0.00    -0.216 NA
ATOM     10  C   UNL     1      -0.044   6.255   0.535  0.00  0.00    +0.177 A 
ATOM     11  C   UNL     1      -0.222   0.173  -1.220  0.00  0.00    +0.043 C 
ATOM     12  C   UNL     1       0.961  -0.109  -2.157  0.00  0.00    +0.005 C 
ATOM     13  C   UNL     1       2.233   0.465  -1.526  0.00  0.00    +0.005 C 
ATOM     14  C   UNL     1       2.186   1.993  -1.563  0.00  0.00    +0.037 C 
ENDROOT
BRANCH   1  19
ATOM     15  C   UNL     1       4.800  10.463  -0.005  0.00  0.00    +0.044 C 
ATOM     16  C   UNL     1       3.845   9.297   0.001  0.00  0.00    -0.050 A 
ATOM     17  C   UNL     1       3.811   8.439   1.085  0.00  0.00    +0.005 A 
ATOM     18  C   UNL     1       2.937   7.370   1.093  0.00  0.00    +0.026 A 
ATOM     19  C   UNL     1       2.092   7.157   0.012  0.00  0.00    +0.052 A 
ATOM     20  C   UNL     1       2.133   8.017  -1.077  0.00  0.00    +0.026 A 
ATOM     21  C   UNL     1       3.006   9.087  -1.078  0.00  0.00    +0.005 A 
ENDBRANCH   1  19
BRANCH  10  22
ATOM     22  S   UNL     1      -0.473   7.843   1.167  0.00  0.00    -0.082 S 
BRANCH  22  23
ATOM     23  C   UNL     1      -2.172   7.520   1.701  0.00  0.00    +0.138 C 
BRANCH  23  24
ATOM     24  C   UNL     1      -2.768   8.794   2.302  0.00  0.00    +0.260 C 
ATOM     25  O   UNL     1      -2.755   9.843   1.320  0.00  0.00    -0.348 OA
ATOM     26  C   UNL     1      -2.481  11.050   2.071  0.00  0.00    +0.191 C 
ATOM     27  C   UNL     1      -1.495  10.533   3.148  0.00  0.00    +0.191 C 
ATOM     28  O   UNL     1      -1.986   9.207   3.430  0.00  0.00    -0.348 OA
ENDBRANCH  23  24
ENDBRANCH  22  23
ENDBRANCH  10  22
TORSDOF 4
