REMARK  Name = ZINC15001774
REMARK  10 active torsions:
REMARK  status: ('A' for Active; 'I' for Inactive)
REMARK    1  A    between atoms: C_1  and  O_2
REMARK    2  A    between atoms: O_2  and  C_3
REMARK    3  A    between atoms: C_3  and  C_4
REMARK    4  A    between atoms: C_7  and  C_9
REMARK    5  A    between atoms: C_9  and  N_66
REMARK    6  A    between atoms: C_12  and  C_15
REMARK    7  A    between atoms: C_15  and  C_26
REMARK    8  A    between atoms: N_18  and  C_22
REMARK    9  A    between atoms: C_22  and  C_23
REMARK   10  A    between atoms: C_26  and  C_27
REMARK                            x       y       z     vdW  Elec       q    Type
REMARK                         _______ _______ _______ _____ _____    ______ ____
ROOT
ATOM      1  C   UNL     1       0.640   3.376   0.014  0.00  0.00    +0.119 C 
ATOM      2  C   UNL     1      -0.871   3.261   0.028  0.00  0.00    +0.247 C 
ATOM      3  O   UNL     1      -1.675   4.169   0.040  0.00  0.00    -0.273 OA
ATOM      4  N   UNL     1      -1.137   1.940   0.018  0.00  0.00    -0.224 N 
ATOM      5  C   UNL     1      -0.014   1.211   0.009  0.00  0.00    +0.309 C 
ATOM      6  O   UNL     1       0.002  -0.004   0.002  0.00  0.00    -0.252 OA
ATOM      7  N   UNL     1       1.094   1.974   0.002  0.00  0.00    -0.284 N 
ATOM      8  H   UNL     1       2.012   1.662  -0.008  0.00  0.00    +0.151 HD
ENDROOT
BRANCH   1  11
ATOM      9  C   UNL     1       0.886   4.249  -3.727  0.00  0.00    -0.078 C 
ATOM     10  C   UNL     1       0.457   3.477  -2.477  0.00  0.00    -0.013 C 
ATOM     11  C   UNL     1       1.113   4.105  -1.245  0.00  0.00    +0.018 C 
ATOM     12  C   UNL     1       0.715   5.581  -1.161  0.00  0.00    -0.013 C 
ATOM     13  C   UNL     1       1.136   6.292  -2.449  0.00  0.00    -0.078 C 
ATOM     14  N   UNL     1       0.452   5.656  -3.595  0.00  0.00    +0.384 N 
ATOM     15  H   UNL     1      -0.561   5.678  -3.431  0.00  0.00    -0.081 HD
BRANCH  14  16
ATOM     16  C   UNL     1       0.754   6.396  -4.837  0.00  0.00    -0.003 C 
BRANCH  16  20
ATOM     17  C   UNL     1      -0.393   9.840  -4.442  0.00  0.00    +0.131 A 
ATOM     18  C   UNL     1       0.894  10.001  -4.083  0.00  0.00    +0.047 A 
ATOM     19  C   UNL     1       1.506   8.730  -4.176  0.00  0.00    +0.043 A 
ATOM     20  C   UNL     1       0.560   7.870  -4.593  0.00  0.00    +0.089 A 
ATOM     21  O   UNL     1      -0.589   8.548  -4.750  0.00  0.00    -0.464 OA
BRANCH  17  22
ATOM     22  C   UNL     1      -1.436  10.927  -4.490  0.00  0.00    +0.233 C 
BRANCH  22  24
ATOM     23  C   UNL     1      -2.399  12.573  -5.942  0.00  0.00    +0.194 C 
ATOM     24  O   UNL     1      -1.440  11.525  -5.788  0.00  0.00    -0.375 OA
ENDBRANCH  22  24
ENDBRANCH  17  22
ENDBRANCH  16  20
ENDBRANCH  14  16
ENDBRANCH   1  11
BRANCH   4  25
ATOM     25  C   UNL     1      -2.487   1.371   0.020  0.00  0.00    +0.121 C 
BRANCH  25  26
ATOM     26  C   UNL     1      -2.951   1.165   1.463  0.00  0.00    +0.007 C 
ATOM     27  C   UNL     1      -3.219  -0.270   1.921  0.00  0.00    +0.005 C 
ATOM     28  C   UNL     1      -4.388   0.687   1.681  0.00  0.00    +0.005 C 
ENDBRANCH  25  26
ENDBRANCH   4  25
BRANCH   1  29
ATOM     29  C   UNL     1       1.140   4.093   1.270  0.00  0.00    +0.072 C 
BRANCH  29  30
ATOM     30  C   UNL     1       0.721   3.317   2.492  0.00  0.00    -0.027 A 
ATOM     31  C   UNL     1      -0.436   3.659   3.165  0.00  0.00    +0.005 A 
ATOM     32  C   UNL     1      -0.823   2.945   4.283  0.00  0.00    +0.000 A 
ATOM     33  C   UNL     1      -0.047   1.894   4.735  0.00  0.00    +0.001 A 
ATOM     34  C   UNL     1       1.113   1.554   4.066  0.00  0.00    +0.020 A 
ATOM     35  C   UNL     1       1.498   2.265   2.944  0.00  0.00    +0.044 A 
ATOM     36 CL   UNL     1       2.956   1.839   2.103  0.00  0.00    -0.083 Cl
ENDBRANCH  29  30
ENDBRANCH   1  29
TORSDOF 9
