REMARK  Name = ZINC01374670
REMARK  14 active torsions:
REMARK  status: ('A' for Active; 'I' for Inactive)
REMARK    1  A    between atoms: C_1  and  C_2
REMARK    2  A    between atoms: C_2  and  C_3
REMARK    3  A    between atoms: C_3  and  C_5
REMARK    4  A    between atoms: C_3  and  N_17
REMARK    5  A    between atoms: N_9  and  C_10
REMARK    6  A    between atoms: C_10  and  C_11
REMARK    7  A    between atoms: N_17  and  C_18
REMARK    8  A    between atoms: N_17  and  C_27
REMARK    9  A    between atoms: C_18  and  C_19
REMARK   10  A    between atoms: C_22  and  O_25
REMARK   11  A    between atoms: O_25  and  C_26
REMARK   12  A    between atoms: C_27  and  C_28
REMARK   13  A    between atoms: C_33  and  O_40
REMARK   14  A    between atoms: O_40  and  C_41
REMARK                            x       y       z     vdW  Elec       q    Type
REMARK                         _______ _______ _______ _____ _____    ______ ____
ROOT
ATOM      1  N   UNL     1      -0.228   0.519   2.360  0.00  0.00    -0.284 NA
ENDROOT
BRANCH   1   2
ATOM      2  C   UNL     1      -0.105  -0.830   1.793  0.00  0.00    +0.127 C 
BRANCH   2   3
ATOM      3  C   UNL     1      -1.022  -0.961   0.604  0.00  0.00    +0.169 A 
ATOM      4  N   UNL     1      -1.617   0.015  -0.036  0.00  0.00    -0.112 NA
ATOM      5  N   UNL     1      -2.314  -0.501  -0.990  0.00  0.00    -0.023 NA
ATOM      6  N   UNL     1      -2.178  -1.781  -0.974  0.00  0.00    -0.044 NA
ATOM      7  N   UNL     1      -1.385  -2.103  -0.009  0.00  0.00    -0.223 N 
BRANCH   7   8
ATOM      8  C   UNL     1      -0.962  -3.458   0.354  0.00  0.00    +0.182 C 
BRANCH   8   9
ATOM      9  C   UNL     1      -1.931  -4.037   1.351  0.00  0.00    -0.026 A 
ATOM     10  C   UNL     1      -1.723  -3.853   2.705  0.00  0.00    +0.005 A 
ATOM     11  C   UNL     1      -2.612  -4.385   3.620  0.00  0.00    +0.000 A 
ATOM     12  C   UNL     1      -3.711  -5.100   3.181  0.00  0.00    +0.000 A 
ATOM     13  C   UNL     1      -3.920  -5.283   1.827  0.00  0.00    +0.000 A 
ATOM     14  C   UNL     1      -3.033  -4.748   0.912  0.00  0.00    +0.005 A 
ENDBRANCH   8   9
ENDBRANCH   7   8
ENDBRANCH   2   3
BRANCH   2  16
ATOM     15  C   UNL     1       2.273  -0.925   2.554  0.00  0.00    +0.006 C 
ATOM     16  C   UNL     1       1.341  -1.068   1.350  0.00  0.00    +0.023 C 
ENDBRANCH   2  16
ENDBRANCH   1   2
BRANCH   1  17
ATOM     17  C   UNL     1       0.177   0.536   3.772  0.00  0.00    +0.120 C 
BRANCH  17  18
ATOM     18  C   UNL     1      -0.333   1.794   4.426  0.00  0.00    -0.033 A 
ATOM     19  C   UNL     1       0.507   2.883   4.575  0.00  0.00    +0.008 A 
ATOM     20  C   UNL     1       0.043   4.038   5.174  0.00  0.00    +0.046 A 
ATOM     21  C   UNL     1      -1.267   4.105   5.626  0.00  0.00    +0.120 A 
ATOM     22  C   UNL     1      -2.108   3.012   5.475  0.00  0.00    +0.046 A 
ATOM     23  C   UNL     1      -1.640   1.861   4.870  0.00  0.00    +0.008 A 
BRANCH  21  24
ATOM     24  O   UNL     1      -1.726   5.240   6.216  0.00  0.00    -0.495 OA
ATOM     25  C   UNL     1      -3.086   5.237   6.657  0.00  0.00    +0.277 C 
ENDBRANCH  21  24
ENDBRANCH  17  18
ENDBRANCH   1  17
BRANCH   1  26
ATOM     26  C   UNL     1       0.549   1.491   1.579  0.00  0.00    +0.126 C 
BRANCH  26  27
ATOM     27  C   UNL     1      -0.221   1.869   0.339  0.00  0.00    +0.031 A 
ATOM     28  C   UNL     1      -1.264   2.733   0.429  0.00  0.00    +0.020 A 
ATOM     29  C   UNL     1      -1.991   3.080  -0.792  0.00  0.00    -0.001 A 
ATOM     30  C   UNL     1      -3.075   3.966  -0.761  0.00  0.00    +0.013 A 
ATOM     31  C   UNL     1      -3.733   4.271  -1.915  0.00  0.00    +0.046 A 
ATOM     32  C   UNL     1      -3.336   3.709  -3.128  0.00  0.00    +0.122 A 
ATOM     33  C   UNL     1      -2.267   2.832  -3.179  0.00  0.00    +0.072 A 
ATOM     34  C   UNL     1      -1.584   2.509  -2.014  0.00  0.00    +0.053 A 
ATOM     35  N   UNL     1      -0.515   1.639  -2.037  0.00  0.00    -0.322 N 
ATOM     36  H   UNL     1      -0.235   1.246  -2.879  0.00  0.00    +0.169 HD
ATOM     37  C   UNL     1       0.149   1.329  -0.909  0.00  0.00    +0.254 A 
ATOM     38  O   UNL     1       1.093   0.560  -0.968  0.00  0.00    -0.268 OA
BRANCH  32  39
ATOM     39  O   UNL     1      -4.004   4.024  -4.267  0.00  0.00    -0.495 OA
ATOM     40  C   UNL     1      -5.098   4.935  -4.147  0.00  0.00    +0.277 C 
ENDBRANCH  32  39
ENDBRANCH  26  27
ENDBRANCH   1  26
TORSDOF 11
