REMARK  Name = ZINC39678386
REMARK  7 active torsions:
REMARK  status: ('A' for Active; 'I' for Inactive)
REMARK    1  A    between atoms: C_1  and  C_2
REMARK    2  A    between atoms: C_7  and  C_8
REMARK    3  A    between atoms: C_8  and  C_9
REMARK    4  A    between atoms: C_13  and  C_22
REMARK    5  A    between atoms: N_24  and  C_25
REMARK    6  A    between atoms: C_25  and  C_26
REMARK    7  A    between atoms: C_31  and  N_32
REMARK                            x       y       z     vdW  Elec       q    Type
REMARK                         _______ _______ _______ _____ _____    ______ ____
ROOT
ATOM      1  C   UNL     1      -2.238   0.465   3.021  0.00  0.00    +0.220 C 
ATOM      2  O   UNL     1      -3.183   0.455   2.261  0.00  0.00    -0.275 OA
ATOM      3  N   UNL     1      -2.256   1.263   4.108  0.00  0.00    -0.300 N 
ATOM      4  C   UNL     1      -1.203   1.417   5.139  0.00  0.00    +0.121 C 
ATOM      5  C   UNL     1      -1.190   2.928   5.460  0.00  0.00    +0.100 C 
ATOM      6  C   UNL     1      -2.591   3.425   5.067  0.00  0.00    -0.004 C 
ATOM      7  C   UNL     1      -3.331   2.189   4.537  0.00  0.00    +0.115 C 
ATOM      8  C   UNL     1      -2.489   4.481   3.971  0.00  0.00    -0.010 C 
ATOM      9  C   UNL     1      -3.890   5.002   3.638  0.00  0.00    -0.082 C 
ATOM     10  N   UNL     1      -4.500   5.575   4.843  0.00  0.00    +0.379 N 
ATOM     11  C   UNL     1      -4.680   4.532   5.859  0.00  0.00    -0.082 C 
ATOM     12  C   UNL     1      -3.312   3.991   6.287  0.00  0.00    -0.010 C 
ATOM     13  H   UNL     1      -3.901   6.300   5.210  0.00  0.00    -0.086 HD
ATOM     14  H   UNL     1      -5.398   5.972   4.608  0.00  0.00    -0.086 HD
ENDROOT
BRANCH   5  15
ATOM     15  C   UNL     1      -0.945   3.149   6.931  0.00  0.00    +0.218 C 
ATOM     16  O   UNL     1      -1.498   2.447   7.750  0.00  0.00    -0.275 OA
ATOM     17  N   UNL     1      -0.111   4.128   7.335  0.00  0.00    -0.311 N 
ATOM     18  H   UNL     1       0.332   4.690   6.680  0.00  0.00    +0.149 HD
BRANCH  17  19
ATOM     19  C   UNL     1       0.127   4.343   8.765  0.00  0.00    +0.141 C 
BRANCH  19  20
ATOM     20  C   UNL     1       1.090   5.488   8.947  0.00  0.00    -0.009 A 
ATOM     21  C   UNL     1       2.425   5.235   9.194  0.00  0.00    +0.007 A 
ATOM     22  C   UNL     1       3.310   6.284   9.362  0.00  0.00    +0.000 A 
ATOM     23  C   UNL     1       2.861   7.590   9.282  0.00  0.00    +0.002 A 
ATOM     24  C   UNL     1       1.528   7.850   9.035  0.00  0.00    +0.023 A 
ATOM     25  C   UNL     1       0.637   6.798   8.861  0.00  0.00    +0.034 A 
BRANCH  25  26
ATOM     26  N   UNL     1      -0.711   7.057   8.605  0.00  0.00    -0.330 N 
ATOM     27  C   UNL     1      -1.668   7.203   9.710  0.00  0.00    +0.105 C 
ATOM     28  C   UNL     1      -2.409   8.534   9.549  0.00  0.00    +0.019 C 
ATOM     29  C   UNL     1      -3.042   8.595   8.158  0.00  0.00    +0.003 C 
ATOM     30  C   UNL     1      -1.945   8.521   7.093  0.00  0.00    +0.019 C 
ATOM     31  C   UNL     1      -1.198   7.196   7.226  0.00  0.00    +0.105 C 
ENDBRANCH  25  26
ENDBRANCH  19  20
ENDBRANCH  17  19
ENDBRANCH   5  15
BRANCH   1  32
ATOM     32  C   UNL     1      -1.044  -0.413   2.751  0.00  0.00    +0.131 C 
BRANCH  32  39
ATOM     33  C   UNL     1      -0.412   0.760   0.188  0.00  0.00    +0.044 C 
ATOM     34  C   UNL     1      -0.972  -0.638   0.260  0.00  0.00    -0.047 A 
ATOM     35  C   UNL     1      -1.177  -1.360  -0.901  0.00  0.00    +0.003 A 
ATOM     36  C   UNL     1      -1.690  -2.642  -0.835  0.00  0.00    +0.000 A 
ATOM     37  C   UNL     1      -1.998  -3.202   0.391  0.00  0.00    +0.000 A 
ATOM     38  C   UNL     1      -1.791  -2.479   1.551  0.00  0.00    +0.004 A 
ATOM     39  C   UNL     1      -1.274  -1.199   1.486  0.00  0.00    -0.036 A 
ENDBRANCH  32  39
ENDBRANCH   1  32
TORSDOF 6
