REMARK  Name = ZINC13019854
REMARK  8 active torsions:
REMARK  status: ('A' for Active; 'I' for Inactive)
REMARK    1  A    between atoms: C_1  and  C_2
REMARK    2  A    between atoms: C_2  and  C_4
REMARK    3  A    between atoms: C_2  and  S_16
REMARK    4  A    between atoms: N_6  and  C_7
REMARK    5  A    between atoms: S_16  and  C_17
REMARK    6  A    between atoms: C_20  and  C_25
REMARK    7  A    between atoms: N_21  and  C_22
REMARK    8  A    between atoms: C_22  and  C_23
REMARK                            x       y       z     vdW  Elec       q    Type
REMARK                         _______ _______ _______ _____ _____    ______ ____
ROOT
ATOM      1  C   UNL     1      -5.294   0.182   3.303  0.00  0.00    +0.029 C 
ATOM      2  C   UNL     1      -3.884  -0.329   3.605  0.00  0.00    +0.137 C 
ENDROOT
BRANCH   2   3
ATOM      3  C   UNL     1      -3.652  -0.315   5.094  0.00  0.00    +0.230 C 
ATOM      4  O   UNL     1      -3.106   0.636   5.613  0.00  0.00    -0.274 OA
ATOM      5  N   UNL     1      -4.051  -1.357   5.848  0.00  0.00    -0.285 N 
ATOM      6  H   UNL     1      -4.548  -2.086   5.444  0.00  0.00    +0.155 HD
BRANCH   5   7
ATOM      7  C   UNL     1      -3.751  -1.388   7.214  0.00  0.00    +0.034 A 
ATOM      8  C   UNL     1      -3.735  -0.211   7.951  0.00  0.00    +0.023 A 
ATOM      9  C   UNL     1      -3.438  -0.247   9.298  0.00  0.00    +0.006 A 
ATOM     10  C   UNL     1      -3.155  -1.453   9.919  0.00  0.00    -0.044 A 
ATOM     11  C   UNL     1      -3.170  -2.627   9.189  0.00  0.00    -0.042 A 
ATOM     12  C   UNL     1      -3.473  -2.596   7.839  0.00  0.00    +0.027 A 
ATOM     13  C   UNL     1      -2.832  -3.795  10.090  0.00  0.00    +0.036 C 
ATOM     14  C   UNL     1      -3.038  -3.270  11.526  0.00  0.00    +0.009 C 
ATOM     15  C   UNL     1      -2.805  -1.754  11.361  0.00  0.00    +0.036 C 
ENDBRANCH   5   7
ENDBRANCH   2   3
BRANCH   2  16
ATOM     16  S   UNL     1      -2.668   0.740   2.794  0.00  0.00    -0.073 S 
BRANCH  16  17
ATOM     17  C   UNL     1      -3.061   0.424   1.106  0.00  0.00    +0.193 A 
ATOM     18  N   UNL     1      -3.997  -0.383   0.662  0.00  0.00    -0.122 NA
ATOM     19  N   UNL     1      -4.013  -0.378  -0.623  0.00  0.00    -0.128 NA
ATOM     20  C   UNL     1      -3.090   0.440  -1.080  0.00  0.00    +0.172 A 
ATOM     21  N   UNL     1      -2.448   0.974   0.015  0.00  0.00    -0.291 N 
BRANCH  20  22
ATOM     22  C   UNL     1      -2.797   0.727  -2.494  0.00  0.00    +0.056 A 
ATOM     23  C   UNL     1      -3.188   0.039  -3.615  0.00  0.00    +0.019 A 
ATOM     24  C   UNL     1      -2.791   0.505  -4.848  0.00  0.00    +0.008 A 
ATOM     25  C   UNL     1      -2.018   1.620  -4.917  0.00  0.00    +0.046 A 
ATOM     26  S   UNL     1      -1.834   2.056  -3.196  0.00  0.00    -0.094 S 
ENDBRANCH  20  22
BRANCH  21  27
ATOM     27  C   UNL     1      -1.343   1.936   0.011  0.00  0.00    +0.250 C 
BRANCH  27  28
ATOM     28  C   UNL     1      -0.031   1.194  -0.007  0.00  0.00    +0.375 C 
ATOM     29  O   UNL     1      -0.021  -0.015  -0.016  0.00  0.00    -0.244 OA
ATOM     30  O   UNL     1       1.125   1.875  -0.020  0.00  0.00    -0.244 OA
ENDBRANCH  27  28
ENDBRANCH  21  27
ENDBRANCH  16  17
ENDBRANCH   2  16
TORSDOF 7
