REMARK  Name = ZINC67043248
REMARK  8 active torsions:
REMARK  status: ('A' for Active; 'I' for Inactive)
REMARK    1  A    between atoms: C_1  and  C_2
REMARK    2  A    between atoms: C_2  and  C_3
REMARK    3  A    between atoms: C_2  and  C_4
REMARK    4  A    between atoms: C_9  and  N_12
REMARK    5  A    between atoms: N_15  and  N_16
REMARK    6  A    between atoms: C_17  and  C_19
REMARK    7  A    between atoms: C_19  and  C_20
REMARK    8  A    between atoms: C_20  and  C_21
REMARK                            x       y       z     vdW  Elec       q    Type
REMARK                         _______ _______ _______ _____ _____    ______ ____
ROOT
ATOM      1  N   UNL     1       4.830   2.202  -3.175  0.00  0.00    -0.295 N 
ATOM      2  C   UNL     1       5.901   1.992  -3.966  0.00  0.00    +0.316 C 
ATOM      3  O   UNL     1       6.312   0.862  -4.145  0.00  0.00    -0.251 OA
ATOM      4  N   UNL     1       6.516   3.035  -4.558  0.00  0.00    -0.218 N 
ATOM      5  H   UNL     1       4.502   3.104  -3.033  0.00  0.00    +0.151 HD
ATOM      6  H   UNL     1       7.287   2.884  -5.127  0.00  0.00    +0.174 HD
ENDROOT
BRANCH   1  12
ATOM      7  C   UNL     1       0.603  -0.549  -1.268  0.00  0.00    +0.218 C 
ATOM      8  O   UNL     1      -0.081  -1.194  -2.034  0.00  0.00    -0.275 OA
ATOM      9  N   UNL     1       1.900  -0.321  -1.552  0.00  0.00    -0.301 N 
ATOM     10  C   UNL     1       2.771   0.358  -0.582  0.00  0.00    +0.109 C 
ATOM     11  C   UNL     1       3.440   1.551  -1.271  0.00  0.00    +0.041 C 
ATOM     12  C   UNL     1       4.160   1.069  -2.532  0.00  0.00    +0.077 C 
ATOM     13  C   UNL     1       3.144   0.460  -3.501  0.00  0.00    +0.041 C 
ATOM     14  C   UNL     1       2.473  -0.751  -2.835  0.00  0.00    +0.109 C 
BRANCH   7  16
ATOM     15  C   UNL     1      -0.417   1.451  -0.217  0.00  0.00    +0.017 C 
ATOM     16  C   UNL     1       0.002  -0.004   0.002  0.00  0.00    +0.069 C 
ATOM     17  C   UNL     1      -1.224  -0.836   0.385  0.00  0.00    +0.017 C 
ENDBRANCH   7  16
ENDBRANCH   1  12
BRANCH   4  18
ATOM     18  N   UNL     1       6.043   4.337  -4.352  0.00  0.00    -0.233 N 
ATOM     19  C   UNL     1       6.658   5.380  -4.944  0.00  0.00    +0.229 C 
ATOM     20  O   UNL     1       7.622   5.191  -5.655  0.00  0.00    -0.274 OA
ATOM     21  H   UNL     1       5.272   4.488  -3.783  0.00  0.00    +0.173 HD
BRANCH  19  22
ATOM     22  C   UNL     1       6.149   6.780  -4.722  0.00  0.00    +0.097 C 
BRANCH  22  23
ATOM     23  C   UNL     1       7.019   7.769  -5.501  0.00  0.00    +0.013 C 
BRANCH  23  24
ATOM     24  C   UNL     1       6.501   9.191  -5.276  0.00  0.00    -0.011 C 
ATOM     25  C   UNL     1       5.100   9.325  -5.875  0.00  0.00    +0.003 C 
ATOM     26  C   UNL     1       4.583  10.747  -5.650  0.00  0.00    +0.000 C 
ATOM     27  C   UNL     1       5.524  11.746  -6.326  0.00  0.00    +0.000 C 
ATOM     28  C   UNL     1       6.926  11.612  -5.727  0.00  0.00    +0.000 C 
ATOM     29  C   UNL     1       7.443  10.189  -5.952  0.00  0.00    +0.003 C 
ENDBRANCH  23  24
ENDBRANCH  22  23
ENDBRANCH  19  22
ENDBRANCH   4  18
TORSDOF 6
