REMARK  Name = ZINC21246149
REMARK  5 active torsions:
REMARK  status: ('A' for Active; 'I' for Inactive)
REMARK    1  A    between atoms: C_1  and  C_2
REMARK    2  A    between atoms: C_2  and  O_3
REMARK    3  A    between atoms: O_3  and  C_4
REMARK    4  A    between atoms: C_7  and  C_10
REMARK    5  A    between atoms: C_15  and  C_21
REMARK                            x       y       z     vdW  Elec       q    Type
REMARK                         _______ _______ _______ _____ _____    ______ ____
ROOT
ATOM      1  C   UNL     1       3.867   2.802   0.647  0.00  0.00    +0.032 C 
ATOM      2  C   UNL     1       3.073   3.377  -0.528  0.00  0.00    +0.059 C 
ATOM      3  C   UNL     1       1.665   2.836  -0.501  0.00  0.00    +0.018 C 
ATOM      4  C   UNL     1       1.404   1.609  -0.003  0.00  0.00    +0.020 C 
ATOM      5  C   UNL     1      -0.013   1.086   0.008  0.00  0.00    +0.063 C 
ATOM      6  C   UNL     1      -0.751   1.593  -1.232  0.00  0.00    +0.109 C 
ATOM      7  C   UNL     1      -0.522   3.076  -1.370  0.00  0.00    +0.218 C 
ATOM      8  O   UNL     1      -1.397   3.783  -1.823  0.00  0.00    -0.275 OA
ATOM      9  N   UNL     1       0.649   3.616  -0.993  0.00  0.00    -0.289 N 
ATOM     10  C   UNL     1       2.428   0.797   0.513  0.00  0.00    +0.162 C 
ATOM     11  O   UNL     1       2.156  -0.307   0.942  0.00  0.00    -0.292 OA
ATOM     12  C   UNL     1       3.855   1.273   0.543  0.00  0.00    +0.088 C 
ATOM     13  H   UNL     1       0.786   4.704  -1.084  0.00  0.00    +0.155 HD
ENDROOT
BRANCH   5  14
ATOM     14  C   UNL     1      -0.719   1.572   1.247  0.00  0.00    -0.039 A 
ATOM     15  C   UNL     1      -0.856   2.928   1.477  0.00  0.00    +0.005 A 
ATOM     16  C   UNL     1      -1.508   3.375   2.611  0.00  0.00    +0.020 A 
ATOM     17  C   UNL     1      -2.014   2.464   3.522  0.00  0.00    +0.041 A 
ATOM     18  C   UNL     1      -1.871   1.107   3.294  0.00  0.00    +0.020 A 
ATOM     19  C   UNL     1      -1.224   0.662   2.157  0.00  0.00    +0.005 A 
ATOM     20 CL   UNL     1      -2.827   3.025   4.950  0.00  0.00    -0.084 Cl
ENDBRANCH   5  14
BRANCH   1  24
ATOM     21  C   UNL     1       7.896   4.218   0.497  0.00  0.00    +0.121 A 
ATOM     22  C   UNL     1       7.108   4.482   1.607  0.00  0.00    +0.046 A 
ATOM     23  C   UNL     1       5.806   4.024   1.653  0.00  0.00    +0.007 A 
ATOM     24  C   UNL     1       5.288   3.301   0.594  0.00  0.00    -0.043 A 
ATOM     25  C   UNL     1       6.074   3.032  -0.511  0.00  0.00    +0.007 A 
ATOM     26  C   UNL     1       7.375   3.494  -0.565  0.00  0.00    +0.046 A 
BRANCH  21  27
ATOM     27  O   UNL     1       9.178   4.668   0.450  0.00  0.00    -0.492 OA
BRANCH  27  29
ATOM     28  C   UNL     1      11.339   4.943  -0.596  0.00  0.00    +0.048 C 
ATOM     29  C   UNL     1       9.931   4.359  -0.725  0.00  0.00    +0.225 C 
ENDBRANCH  27  29
ENDBRANCH  21  27
ENDBRANCH   1  24
TORSDOF 4
