REMARK  Name = ZINC40683148
REMARK  5 active torsions:
REMARK  status: ('A' for Active; 'I' for Inactive)
REMARK    1  A    between atoms: C_1  and  C_2
REMARK    2  A    between atoms: C_9  and  N_12
REMARK    3  A    between atoms: C_14  and  N_30
REMARK    4  A    between atoms: C_15  and  O_19
REMARK    5  A    between atoms: O_19  and  C_20
REMARK                            x       y       z     vdW  Elec       q    Type
REMARK                         _______ _______ _______ _____ _____    ______ ____
ROOT
ATOM      1  N   UNL     1       0.040  -1.963   3.621  0.00  0.00    -0.296 N 
ATOM      2  C   UNL     1      -0.051  -2.643   4.830  0.00  0.00    +0.151 A 
ATOM      3  C   UNL     1      -0.163  -1.941   6.033  0.00  0.00    +0.128 A 
ATOM      4  C   UNL     1      -0.251  -2.672   7.217  0.00  0.00    +0.246 A 
ATOM      5  N   UNL     1      -0.225  -4.000   7.157  0.00  0.00    -0.199 NA
ATOM      6  C   UNL     1      -0.117  -4.625   6.003  0.00  0.00    +0.227 A 
ATOM      7  N   UNL     1      -0.037  -3.973   4.860  0.00  0.00    -0.218 NA
ATOM      8  H   UNL     1       0.113  -0.996   3.613  0.00  0.00    +0.154 HD
ENDROOT
BRANCH   1  17
ATOM      9  C   UNL     1       2.392   0.958   0.307  0.00  0.00    +0.065 C 
ATOM     10  C   UNL     1       1.749  -0.402   0.218  0.00  0.00    +0.039 A 
ATOM     11  C   UNL     1       1.755  -1.077  -1.000  0.00  0.00    +0.023 A 
ATOM     12  C   UNL     1       1.177  -2.311  -1.099  0.00  0.00    +0.012 A 
ATOM     13  C   UNL     1       0.587  -2.862   0.055  0.00  0.00    +0.002 A 
ATOM     14  C   UNL     1      -0.026  -4.125   0.029  0.00  0.00    +0.010 A 
ATOM     15  C   UNL     1      -0.588  -4.632   1.161  0.00  0.00    +0.003 A 
ATOM     16  C   UNL     1      -0.566  -3.914   2.354  0.00  0.00    +0.025 A 
ATOM     17  C   UNL     1       0.025  -2.672   2.420  0.00  0.00    +0.059 A 
ATOM     18  C   UNL     1       0.617  -2.120   1.261  0.00  0.00    +0.092 A 
ATOM     19  N   UNL     1       1.203  -0.921   1.291  0.00  0.00    -0.250 NA
ENDBRANCH   1  17
BRANCH   3  20
ATOM     20  N   UNL     1      -0.186  -0.538   6.049  0.00  0.00    -0.351 N 
ATOM     21  H   UNL     1      -0.124  -0.042   5.218  0.00  0.00    +0.143 HD
ATOM     22  H   UNL     1      -0.265  -0.064   6.892  0.00  0.00    +0.143 HD
ENDBRANCH   3  20
BRANCH   4  23
ATOM     23  O   UNL     1      -0.361  -2.038   8.411  0.00  0.00    -0.436 OA
BRANCH  23  24
ATOM     24  C   UNL     1      -0.338  -2.794   9.539  0.00  0.00    +0.138 A 
ATOM     25  C   UNL     1      -1.512  -3.123  10.178  0.00  0.00    +0.047 A 
ATOM     26  C   UNL     1      -1.501  -3.897  11.335  0.00  0.00    +0.004 A 
ATOM     27  C   UNL     1      -0.332  -4.351  11.864  0.00  0.00    +0.009 A 
ATOM     28  C   UNL     1       0.888  -4.039  11.241  0.00  0.00    -0.014 A 
ATOM     29  C   UNL     1       0.888  -3.255  10.061  0.00  0.00    +0.024 A 
ATOM     30  C   UNL     1       2.107  -2.948   9.437  0.00  0.00    +0.012 A 
ATOM     31  C   UNL     1       3.272  -3.410   9.969  0.00  0.00    +0.001 A 
ATOM     32  C   UNL     1       3.273  -4.185  11.127  0.00  0.00    +0.001 A 
ATOM     33  C   UNL     1       2.111  -4.493  11.765  0.00  0.00    +0.008 A 
ENDBRANCH  23  24
ENDBRANCH   4  23
TORSDOF 4
