REMARK  Name = ZINC22017264
REMARK  6 active torsions:
REMARK  status: ('A' for Active; 'I' for Inactive)
REMARK    1  A    between atoms: C_4  and  C_7
REMARK    2  A    between atoms: C_8  and  C_9
REMARK    3  A    between atoms: C_9  and  C_25
REMARK    4  A    between atoms: N_10  and  N_11
REMARK    5  A    between atoms: C_12  and  C_14
REMARK    6  A    between atoms: C_17  and  C_19
REMARK                            x       y       z     vdW  Elec       q    Type
REMARK                         _______ _______ _______ _____ _____    ______ ____
ROOT
ATOM      1  C   UNL     1       3.707  -1.087   0.266  0.00  0.00    +0.089 C 
ATOM      2  N   UNL     1       3.466  -2.328  -0.077  0.00  0.00    -0.180 NA
ENDROOT
BRANCH   1   3
ATOM      3  C   UNL     1       2.581  -0.156   0.517  0.00  0.00    +0.002 A 
ATOM      4  C   UNL     1       1.265  -0.599   0.389  0.00  0.00    +0.010 A 
ATOM      5  C   UNL     1       0.221   0.272   0.625  0.00  0.00    +0.001 A 
ATOM      6  C   UNL     1       0.478   1.583   0.988  0.00  0.00    +0.000 A 
ATOM      7  C   UNL     1       1.782   2.027   1.116  0.00  0.00    +0.001 A 
ATOM      8  C   UNL     1       2.834   1.166   0.883  0.00  0.00    +0.010 A 
ENDBRANCH   1   3
BRANCH   2   9
ATOM      9  N   UNL     1       4.521  -3.164  -0.466  0.00  0.00    -0.206 N 
ATOM     10  C   UNL     1       4.292  -4.470  -0.707  0.00  0.00    +0.236 C 
ATOM     11  O   UNL     1       3.172  -4.922  -0.587  0.00  0.00    -0.274 OA
ATOM     12  H   UNL     1       5.536  -2.754  -0.576  0.00  0.00    +0.177 HD
BRANCH  10  13
ATOM     13  C   UNL     1       5.426  -5.369  -1.126  0.00  0.00    +0.085 C 
ATOM     14  C   UNL     1       5.883  -6.439  -0.133  0.00  0.00    +0.022 C 
ATOM     15  C   UNL     1       5.102  -6.842  -1.385  0.00  0.00    +0.032 C 
BRANCH  15  16
ATOM     16  C   UNL     1       3.672  -7.282  -1.202  0.00  0.00    -0.044 A 
ATOM     17  C   UNL     1       3.061  -7.149   0.031  0.00  0.00    +0.004 A 
ATOM     18  C   UNL     1       1.748  -7.548   0.198  0.00  0.00    +0.000 A 
ATOM     19  C   UNL     1       1.050  -8.090  -0.865  0.00  0.00    +0.000 A 
ATOM     20  C   UNL     1       1.663  -8.229  -2.096  0.00  0.00    +0.000 A 
ATOM     21  C   UNL     1       2.975  -7.825  -2.264  0.00  0.00    +0.004 A 
ENDBRANCH  15  16
ENDBRANCH  10  13
ENDBRANCH   2   9
BRANCH   1  23
ATOM     22  C   UNL     1       6.052  -1.465   0.814  0.00  0.00    +0.010 C 
ATOM     23  C   UNL     1       5.091  -0.618   0.402  0.00  0.00    +0.030 C 
BRANCH  22  27
ATOM     24  C   UNL     1      10.096  -0.189   0.945  0.00  0.00    +0.000 A 
ATOM     25  C   UNL     1       9.768  -1.478   1.328  0.00  0.00    +0.001 A 
ATOM     26  C   UNL     1       8.456  -1.900   1.288  0.00  0.00    +0.008 A 
ATOM     27  C   UNL     1       7.456  -1.022   0.860  0.00  0.00    -0.025 A 
ATOM     28  C   UNL     1       7.795   0.277   0.470  0.00  0.00    +0.008 A 
ATOM     29  C   UNL     1       9.111   0.686   0.521  0.00  0.00    +0.001 A 
ENDBRANCH  22  27
ENDBRANCH   1  23
TORSDOF 6
