REMARK  Name = ZINC14623591
REMARK  20 active torsions:
REMARK  status: ('A' for Active; 'I' for Inactive)
REMARK    1  A    between atoms: C_1  and  C_2
REMARK    2  A    between atoms: C_2  and  C_3
REMARK    3  A    between atoms: C_3  and  C_4
REMARK    4  A    between atoms: C_4  and  N_5
REMARK    5  A    between atoms: C_6  and  N_36
REMARK    6  A    between atoms: C_7  and  N_14
REMARK    7  A    between atoms: N_14  and  C_15
REMARK    8  A    between atoms: C_15  and  C_16
REMARK    9  A    between atoms: C_16  and  C_17
REMARK   10  A    between atoms: C_17  and  C_18
REMARK   11  A    between atoms: C_17  and  C_19
REMARK   12  A    between atoms: C_20  and  C_22
REMARK   13  A    between atoms: C_22  and  C_23
REMARK   14  A    between atoms: C_23  and  C_24
REMARK   15  A    between atoms: C_26  and  O_34
REMARK   16  A    between atoms: C_27  and  O_32
REMARK   17  A    between atoms: C_28  and  O_30
REMARK   18  A    between atoms: O_30  and  C_31
REMARK   19  A    between atoms: O_32  and  C_33
REMARK   20  A    between atoms: O_34  and  C_35
REMARK                            x       y       z     vdW  Elec       q    Type
REMARK                         _______ _______ _______ _____ _____    ______ ____
ROOT
ATOM      1  N   UNL     1      -0.359   1.397   3.664  0.00  0.00    -0.264 N 
ATOM      2  C   UNL     1       0.258   1.223   2.477  0.00  0.00    +0.220 C 
ATOM      3  O   UNL     1       1.356   0.709   2.433  0.00  0.00    -0.275 OA
ENDROOT
BRANCH   1   6
ATOM      4  N   UNL     1       0.991  -0.921   6.175  0.00  0.00    -0.280 N 
ATOM      5  C   UNL     1       0.416  -0.462   5.013  0.00  0.00    +0.127 A 
ATOM      6  C   UNL     1       0.228   0.895   4.845  0.00  0.00    +0.140 A 
ATOM      7  C   UNL     1       0.636   1.770   5.869  0.00  0.00    +0.277 A 
ATOM      8  O   UNL     1       0.486   2.973   5.744  0.00  0.00    -0.266 OA
ATOM      9  N   UNL     1       1.189   1.268   6.990  0.00  0.00    -0.273 N 
ATOM     10  H   UNL     1       1.472   1.887   7.722  0.00  0.00    +0.173 HD
ATOM     11  C   UNL     1       1.365  -0.058   7.136  0.00  0.00    +0.331 A 
ATOM     12  O   UNL     1       1.871  -0.484   8.157  0.00  0.00    -0.246 OA
BRANCH   5  13
ATOM     13  N   UNL     1       0.033  -1.344   4.031  0.00  0.00    -0.343 N 
ATOM     14  H   UNL     1      -0.470  -1.028   3.264  0.00  0.00    +0.144 HD
ATOM     15  H   UNL     1       0.266  -2.283   4.104  0.00  0.00    +0.144 HD
ENDBRANCH   5  13
BRANCH   4  16
ATOM     16  C   UNL     1       1.197  -2.359   6.367  0.00  0.00    +0.128 C 
BRANCH  16  17
ATOM     17  C   UNL     1       2.574  -2.752   5.830  0.00  0.00    +0.021 C 
BRANCH  17  19
ATOM     18  C   UNL     1       4.167  -4.647   5.493  0.00  0.00    +0.004 C 
ATOM     19  C   UNL     1       2.790  -4.254   6.030  0.00  0.00    -0.002 C 
ENDBRANCH  17  19
ENDBRANCH  16  17
ENDBRANCH   4  16
ENDBRANCH   1   6
BRANCH   1  20
ATOM     20  C   UNL     1      -1.639   2.107   3.727  0.00  0.00    +0.114 C 
BRANCH  20  21
ATOM     21  C   UNL     1      -2.787   1.101   3.628  0.00  0.00    +0.022 C 
BRANCH  21  22
ATOM     22  C   UNL     1      -4.123   1.843   3.694  0.00  0.00    -0.016 C 
ATOM     23  C   UNL     1      -4.268   2.743   2.466  0.00  0.00    +0.007 C 
ATOM     24  C   UNL     1      -5.269   0.829   3.722  0.00  0.00    +0.007 C 
ENDBRANCH  21  22
ENDBRANCH  20  21
ENDBRANCH   1  20
BRANCH   2  25
ATOM     25  C   UNL     1      -0.417   1.667   1.204  0.00  0.00    +0.101 C 
BRANCH  25  26
ATOM     26  C   UNL     1       0.489   1.357   0.011  0.00  0.00    +0.044 C 
BRANCH  26  27
ATOM     27  C   UNL     1      -0.185   1.801  -1.261  0.00  0.00    -0.040 A 
ATOM     28  C   UNL     1      -0.999   0.923  -1.952  0.00  0.00    +0.053 A 
ATOM     29  C   UNL     1      -1.626   1.329  -3.120  0.00  0.00    +0.165 A 
ATOM     30  C   UNL     1      -1.426   2.617  -3.602  0.00  0.00    +0.204 A 
ATOM     31  C   UNL     1      -0.603   3.495  -2.907  0.00  0.00    +0.165 A 
ATOM     32  C   UNL     1       0.016   3.083  -1.736  0.00  0.00    +0.053 A 
BRANCH  31  33
ATOM     33  O   UNL     1      -0.404   4.757  -3.374  0.00  0.00    -0.491 OA
ATOM     34  C   UNL     1       0.455   5.604  -2.609  0.00  0.00    +0.277 C 
ENDBRANCH  31  33
BRANCH  30  35
ATOM     35  O   UNL     1      -2.035   3.018  -4.751  0.00  0.00    -0.488 OA
ATOM     36  C   UNL     1      -1.324   2.803  -5.972  0.00  0.00    +0.277 C 
ENDBRANCH  30  35
BRANCH  29  37
ATOM     37  O   UNL     1      -2.431   0.466  -3.797  0.00  0.00    -0.491 OA
ATOM     38  C   UNL     1      -2.590  -0.841  -3.244  0.00  0.00    +0.277 C 
ENDBRANCH  29  37
ENDBRANCH  26  27
ENDBRANCH  25  26
ENDBRANCH   2  25
TORSDOF 14
