REMARK  Name = ZINC26417323
REMARK  11 active torsions:
REMARK  status: ('A' for Active; 'I' for Inactive)
REMARK    1  A    between atoms: C_1  and  C_2
REMARK    2  A    between atoms: C_2  and  C_3
REMARK    3  A    between atoms: C_2  and  N_4
REMARK    4  A    between atoms: C_11  and  C_23
REMARK    5  A    between atoms: C_13  and  C_21
REMARK    6  A    between atoms: C_14  and  N_20
REMARK    7  A    between atoms: C_15  and  C_16
REMARK    8  A    between atoms: C_15  and  C_18
REMARK    9  A    between atoms: C_26  and  C_29
REMARK   10  A    between atoms: C_29  and  O_31
REMARK   11  A    between atoms: O_31  and  C_32
REMARK                            x       y       z     vdW  Elec       q    Type
REMARK                         _______ _______ _______ _____ _____    ______ ____
ROOT
ATOM      1  N   UNL     1      -2.838   2.171   3.549  0.00  0.00    -0.296 NA
ATOM      2  C   UNL     1      -2.775   3.565   3.081  0.00  0.00    +0.112 C 
ATOM      3  C   UNL     1      -3.671   3.701   1.880  0.00  0.00    -0.009 C 
ATOM      4  C   UNL     1      -3.910   2.696   1.090  0.00  0.00    -0.028 C 
ATOM      5  C   UNL     1      -3.311   1.328   1.279  0.00  0.00    +0.044 C 
ATOM      6  C   UNL     1      -2.391   1.264   2.490  0.00  0.00    +0.093 C 
ATOM      7  C   UNL     1      -2.513   0.973   0.020  0.00  0.00    +0.069 C 
ATOM      8  C   UNL     1      -3.288   1.306  -1.217  0.00  0.00    +0.057 C 
ATOM      9  C   UNL     1      -4.310   2.157  -1.275  0.00  0.00    +0.054 C 
ATOM     10  C   UNL     1      -4.858   2.883  -0.079  0.00  0.00    +0.202 C 
ENDROOT
BRANCH   7  11
ATOM     11  C   UNL     1      -1.221   1.750   0.017  0.00  0.00    -0.039 A 
ATOM     12  C   UNL     1      -0.013   1.076   0.008  0.00  0.00    +0.005 A 
ATOM     13  C   UNL     1       1.173   1.780   0.000  0.00  0.00    +0.015 A 
ATOM     14  C   UNL     1       1.153   3.176   0.008  0.00  0.00    +0.059 A 
ATOM     15  C   UNL     1      -0.070   3.850   0.022  0.00  0.00    +0.015 A 
ATOM     16  C   UNL     1      -1.249   3.133   0.030  0.00  0.00    +0.005 A 
BRANCH  14  17
ATOM     17  C   UNL     1       2.419   3.937  -0.001  0.00  0.00    +0.339 C 
ATOM     18  O   UNL     1       3.481   3.349  -0.014  0.00  0.00    -0.245 OA
BRANCH  17  19
ATOM     19  O   UNL     1       2.395   5.284   0.006  0.00  0.00    -0.464 OA
ATOM     20  C   UNL     1       3.677   5.966  -0.003  0.00  0.00    +0.280 C 
ENDBRANCH  17  19
ENDBRANCH  14  17
ENDBRANCH   7  11
BRANCH   1  22
ATOM     21  C   UNL     1      -2.539   2.951   5.851  0.00  0.00    +0.024 C 
ATOM     22  C   UNL     1      -2.043   1.988   4.770  0.00  0.00    +0.051 C 
ATOM     23  C   UNL     1      -2.190   0.548   5.264  0.00  0.00    +0.024 C 
ENDBRANCH   1  22
BRANCH   9  24
ATOM     24  N   UNL     1      -4.894   2.384  -2.494  0.00  0.00    -0.358 N 
ATOM     25  H   UNL     1      -5.740   3.082  -2.576  0.00  0.00    +0.142 HD
ATOM     26  H   UNL     1      -4.516   1.869  -3.389  0.00  0.00    +0.142 HD
ENDBRANCH   9  24
BRANCH  10  27
ATOM     27  C   UNL     1      -6.180   2.335   0.267  0.00  0.00    +0.095 C 
ATOM     28  N   UNL     1      -7.200   1.912   0.533  0.00  0.00    -0.194 NA
ENDBRANCH  10  27
BRANCH  10  29
ATOM     29  C   UNL     1      -4.983   4.317  -0.388  0.00  0.00    +0.095 C 
ATOM     30  N   UNL     1      -5.079   5.423  -0.626  0.00  0.00    -0.194 NA
ENDBRANCH  10  29
BRANCH   8  31
ATOM     31  C   UNL     1      -2.901   0.656  -2.433  0.00  0.00    +0.097 C 
ATOM     32  N   UNL     1      -2.593   0.141  -3.398  0.00  0.00    -0.191 NA
ENDBRANCH   8  31
TORSDOF 8
