REMARK  Name = ZINC08870831
REMARK  8 active torsions:
REMARK  status: ('A' for Active; 'I' for Inactive)
REMARK    1  A    between atoms: C_1  and  C_2
REMARK    2  A    between atoms: C_5  and  S_11
REMARK    3  A    between atoms: C_7  and  N_8
REMARK    4  A    between atoms: S_11  and  N_14
REMARK    5  A    between atoms: N_14  and  C_15
REMARK    6  A    between atoms: C_17  and  S_26
REMARK    7  A    between atoms: C_18  and  O_25
REMARK    8  A    between atoms: S_26  and  C_27
REMARK                            x       y       z     vdW  Elec       q    Type
REMARK                         _______ _______ _______ _____ _____    ______ ____
ROOT
ATOM      1  C   UNL     1      -1.196   2.798   2.625  0.00  0.00    +0.057 A 
ATOM      2  C   UNL     1      -0.594   4.014   2.393  0.00  0.00    +0.044 A 
ATOM      3  C   UNL     1       0.265   4.578   3.340  0.00  0.00    +0.061 A 
ATOM      4  C   UNL     1       0.529   3.927   4.530  0.00  0.00    +0.138 A 
ATOM      5  C   UNL     1      -0.072   2.683   4.792  0.00  0.00    +0.026 A 
ATOM      6  C   UNL     1      -0.949   2.114   3.834  0.00  0.00    +0.008 A 
ATOM      7  C   UNL     1      -1.541   0.869   4.097  0.00  0.00    +0.010 A 
ATOM      8  C   UNL     1      -1.278   0.231   5.271  0.00  0.00    +0.001 A 
ATOM      9  C   UNL     1      -0.421   0.793   6.216  0.00  0.00    +0.001 A 
ATOM     10  C   UNL     1       0.176   1.995   5.993  0.00  0.00    +0.012 A 
ENDROOT
BRANCH   1  11
ATOM     11  N   UNL     1      -2.052   2.246   1.670  0.00  0.00    -0.216 N 
ATOM     12  H   UNL     1      -2.833   1.744   1.951  0.00  0.00    +0.174 HD
BRANCH  11  13
ATOM     13  S   UNL     1      -1.735   2.449   0.057  0.00  0.00    +0.072 S 
ATOM     14  O   UNL     1      -1.605   3.847  -0.158  0.00  0.00    -0.150 OA
ATOM     15  O   UNL     1      -2.680   1.654  -0.646  0.00  0.00    -0.150 OA
BRANCH  13  20
ATOM     16  C   UNL     1       3.686   0.033  -1.030  0.00  0.00    +0.046 C 
ATOM     17  C   UNL     1       2.332   0.636  -0.757  0.00  0.00    -0.020 A 
ATOM     18  C   UNL     1       2.228   1.968  -0.401  0.00  0.00    +0.007 A 
ATOM     19  C   UNL     1       0.986   2.521  -0.149  0.00  0.00    +0.029 A 
ATOM     20  C   UNL     1      -0.151   1.742  -0.255  0.00  0.00    +0.111 A 
ATOM     21  C   UNL     1      -0.047   0.411  -0.612  0.00  0.00    +0.061 A 
ATOM     22  C   UNL     1       1.195  -0.142  -0.863  0.00  0.00    +0.131 A 
BRANCH  22  23
ATOM     23  N   UNL     1       1.307  -1.568  -1.245  0.00  0.00    +0.057 N 
ATOM     24  O   UNL     1       0.320  -2.282  -1.230  0.00  0.00    -0.126 OA
ATOM     25  O   UNL     1       2.386  -2.027  -1.575  0.00  0.00    -0.126 OA
ENDBRANCH  22  23
ENDBRANCH  13  20
ENDBRANCH  11  13
ENDBRANCH   1  11
BRANCH   4  26
ATOM     26  O   UNL     1       1.368   4.487   5.444  0.00  0.00    -0.505 OA
ATOM     27  H   UNL     1       0.925   5.060   6.085  0.00  0.00    +0.292 HD
ENDBRANCH   4  26
BRANCH   3  28
ATOM     28  S   UNL     1       1.019   6.137   3.013  0.00  0.00    -0.027 S 
BRANCH  28  29
ATOM     29  C   UNL     1       2.656   5.611   2.628  0.00  0.00    +0.263 A 
ATOM     30  N   UNL     1       3.041   4.362   2.539  0.00  0.00    -0.203 NA
ATOM     31  C   UNL     1       4.365   4.336   2.223  0.00  0.00    +0.110 A 
ATOM     32  C   UNL     1       5.283   3.308   2.005  0.00  0.00    +0.031 A 
ATOM     33  C   UNL     1       6.591   3.613   1.701  0.00  0.00    +0.002 A 
ATOM     34  C   UNL     1       7.000   4.935   1.610  0.00  0.00    +0.004 A 
ATOM     35  C   UNL     1       6.102   5.961   1.824  0.00  0.00    +0.048 A 
ATOM     36  C   UNL     1       4.783   5.672   2.131  0.00  0.00    +0.156 A 
ATOM     37  O   UNL     1       3.694   6.432   2.389  0.00  0.00    -0.430 OA
ENDBRANCH  28  29
ENDBRANCH   3  28
TORSDOF 7
