REMARK  Name = ZINC50360378
REMARK  4 active torsions:
REMARK  status: ('A' for Active; 'I' for Inactive)
REMARK    1  A    between atoms: N_3  and  C_6
REMARK    2  A    between atoms: C_11  and  N_13
REMARK    3  A    between atoms: N_13  and  C_14
REMARK    4  A    between atoms: C_14  and  C_15
REMARK                            x       y       z     vdW  Elec       q    Type
REMARK                         _______ _______ _______ _____ _____    ______ ____
ROOT
ATOM      1  C   UNL     1       3.521   0.638  -0.028  0.00  0.00    +0.074 C 
ATOM      2  C   UNL     1       4.027  -0.132  -1.265  0.00  0.00    +0.023 C 
ATOM      3  C   UNL     1       4.282  -1.567  -0.741  0.00  0.00    +0.000 C 
ATOM      4  C   UNL     1       4.858  -1.316   0.675  0.00  0.00    -0.014 C 
ATOM      5  C   UNL     1       4.049  -0.113   1.206  0.00  0.00    -0.048 C 
ENDROOT
BRANCH   1   8
ATOM      6  C   UNL     1      -0.016   1.337   0.009  0.00  0.00    +0.101 A 
ATOM      7  C   UNL     1       1.259   1.771  -0.000  0.00  0.00    +0.104 A 
ATOM      8  N   UNL     1       2.056   0.658  -0.014  0.00  0.00    -0.337 N 
ATOM      9  C   UNL     1       1.240  -0.418  -0.012  0.00  0.00    +0.174 A 
ATOM     10  N   UNL     1       0.002  -0.004   0.002  0.00  0.00    -0.352 N 
ATOM     11  H   UNL     1      -0.781  -0.576   0.007  0.00  0.00    +0.166 HD
ENDBRANCH   1   8
BRANCH   5  12
ATOM     12  N   UNL     1       4.918   0.768   1.998  0.00  0.00    +0.387 N 
ATOM     13  H   UNL     1       5.739   1.002   1.461  0.00  0.00    -0.085 HD
ATOM     14  H   UNL     1       4.417   1.612   2.231  0.00  0.00    -0.085 HD
BRANCH  12  15
ATOM     15  C   UNL     1       5.319   0.080   3.232  0.00  0.00    -0.006 C 
BRANCH  15  16
ATOM     16  C   UNL     1       6.210   0.984   4.045  0.00  0.00    +0.091 A 
ATOM     17  C   UNL     1       5.799   1.856   4.983  0.00  0.00    +0.059 A 
ATOM     18  C   UNL     1       6.957   2.490   5.489  0.00  0.00    +0.070 A 
ATOM     19  C   UNL     1       8.008   1.966   4.829  0.00  0.00    +0.184 A 
ATOM     20  O   UNL     1       7.548   1.051   3.959  0.00  0.00    -0.454 OA
ATOM     21 BR   UNL     1       9.822   2.434   5.087  0.00  0.00    -0.007 Br
ATOM     22 BR   UNL     1       7.020   3.818   6.833  0.00  0.00    -0.046 Br
ENDBRANCH  15  16
ENDBRANCH  12  15
ENDBRANCH   5  12
TORSDOF 4
