REMARK  Name = ZINC26576212
REMARK  7 active torsions:
REMARK  status: ('A' for Active; 'I' for Inactive)
REMARK    1  A    between atoms: C_1  and  C_2
REMARK    2  A    between atoms: C_2  and  C_3
REMARK    3  A    between atoms: C_3  and  O_41
REMARK    4  A    between atoms: C_15  and  C_39
REMARK    5  A    between atoms: C_19  and  C_31
REMARK    6  A    between atoms: C_31  and  N_32
REMARK    7  A    between atoms: C_35  and  C_38
REMARK                            x       y       z     vdW  Elec       q    Type
REMARK                         _______ _______ _______ _____ _____    ______ ____
ROOT
ATOM      1  C   UNL     1       4.539   2.920   6.609  0.00  0.00    +0.162 C 
ATOM      2  C   UNL     1       3.172   2.349   6.296  0.00  0.00    +0.054 C 
ATOM      3  C   UNL     1       2.251   2.242   7.526  0.00  0.00    +0.032 C 
ATOM      4  C   UNL     1       1.277   1.121   7.148  0.00  0.00    +0.003 C 
ATOM      5  C   UNL     1       0.397   1.403   6.174  0.00  0.00    +0.058 C 
ATOM      6  C   UNL     1      -0.482   0.467   5.471  0.00  0.00    +0.085 C 
ATOM      7  N   UNL     1      -0.611  -0.832   5.589  0.00  0.00    -0.273 NA
ATOM      8  C   UNL     1      -1.328  -1.513   4.522  0.00  0.00    +0.141 C 
ATOM      9  C   UNL     1      -1.752  -2.908   4.870  0.00  0.00    +0.020 C 
ATOM     10  C   UNL     1      -2.648  -3.506   4.075  0.00  0.00    +0.042 C 
ATOM     11  C   UNL     1      -3.173  -2.791   2.897  0.00  0.00    -0.036 C 
ATOM     12  C   UNL     1      -3.130  -1.456   2.848  0.00  0.00    -0.012 C 
ATOM     13  C   UNL     1      -2.536  -0.726   4.025  0.00  0.00    +0.065 C 
ATOM     14  C   UNL     1      -2.144   0.683   3.661  0.00  0.00    -0.070 C 
ATOM     15  C   UNL     1      -1.192   1.232   4.411  0.00  0.00    -0.005 C 
ATOM     16  C   UNL     1      -0.597   2.607   4.416  0.00  0.00    +0.151 C 
ATOM     17  N   UNL     1       0.260   2.680   5.594  0.00  0.00    -0.265 N 
ATOM     18  C   UNL     1       0.843   3.778   6.151  0.00  0.00    +0.227 C 
ATOM     19  O   UNL     1       0.899   4.851   5.588  0.00  0.00    -0.275 OA
ATOM     20  C   UNL     1       1.409   3.547   7.513  0.00  0.00    +0.120 C 
ATOM     21  C   UNL     1       2.175   4.675   8.142  0.00  0.00    +0.245 C 
ATOM     22  O   UNL     1       3.420   4.949   7.445  0.00  0.00    -0.462 OA
ATOM     23  C   UNL     1       4.414   4.079   7.579  0.00  0.00    +0.339 C 
ATOM     24  O   UNL     1       5.217   4.210   8.473  0.00  0.00    -0.248 OA
ATOM     25  C   UNL     1      -3.758  -3.567   1.746  0.00  0.00    +0.045 C 
ATOM     26 CL   UNL     1      -3.190  -5.116   4.431  0.00  0.00    -0.084 Cl
ENDROOT
BRANCH   1  28
ATOM     27  C   UNL     1       6.573   3.989   5.627  0.00  0.00    +0.007 C 
ATOM     28  C   UNL     1       5.191   3.411   5.315  0.00  0.00    +0.043 C 
ENDBRANCH   1  28
BRANCH   1  29
ATOM     29  O   UNL     1       5.356   1.902   7.190  0.00  0.00    -0.377 OA
ATOM     30  H   UNL     1       5.050   1.422   8.132  0.00  0.00    +0.211 HD
ENDBRANCH   1  29
BRANCH  14  31
ATOM     31  C   UNL     1      -2.794   1.427   2.523  0.00  0.00    -0.046 C 
BRANCH  31  32
ATOM     32  N   UNL     1      -2.115   1.088   1.265  0.00  0.00    +0.382 N 
ATOM     33  C   UNL     1      -0.731   1.580   1.266  0.00  0.00    -0.078 C 
ATOM     34  C   UNL     1      -0.013   1.086   0.008  0.00  0.00    -0.016 C 
ATOM     35  C   UNL     1      -0.755   1.594  -1.231  0.00  0.00    -0.018 C 
ATOM     36  C   UNL     1      -2.206   1.108  -1.183  0.00  0.00    -0.016 C 
ATOM     37  C   UNL     1      -2.861   1.601   0.109  0.00  0.00    -0.078 C 
ATOM     38  C   UNL     1      -0.076   1.053  -2.491  0.00  0.00    +0.007 C 
ATOM     39  H   UNL     1      -2.082  -0.008   1.182  0.00  0.00    -0.081 HD
ENDBRANCH  31  32
ENDBRANCH  14  31
TORSDOF 4
