REMARK  Name = ZINC63362476
REMARK  7 active torsions:
REMARK  status: ('A' for Active; 'I' for Inactive)
REMARK    1  A    between atoms: C_1  and  C_2
REMARK    2  A    between atoms: C_8  and  O_13
REMARK    3  A    between atoms: O_13  and  C_14
REMARK    4  A    between atoms: N_20  and  C_23
REMARK    5  A    between atoms: C_28  and  C_29
REMARK    6  A    between atoms: N_31  and  C_32
REMARK    7  A    between atoms: C_32  and  C_33
REMARK                            x       y       z     vdW  Elec       q    Type
REMARK                         _______ _______ _______ _____ _____    ______ ____
ROOT
ATOM      1  C   UNL     1      -0.019   1.526   0.010  0.00  0.00    +0.044 C 
ATOM      2  C   UNL     1       0.002  -0.004   0.002  0.00  0.00    +0.137 C 
ATOM      3  C   UNL     1       0.726  -0.558  -1.231  0.00  0.00    +0.139 C 
ATOM      4  C   UNL     1       2.217  -0.372  -0.975  0.00  0.00    -0.034 C 
ATOM      5  C   UNL     1       2.681   0.359  -1.983  0.00  0.00    +0.003 A 
ATOM      6  C   UNL     1       4.038   0.814  -2.321  0.00  0.00    +0.055 A 
ATOM      7  C   UNL     1       4.167   1.573  -3.443  0.00  0.00    +0.121 A 
ATOM      8  C   UNL     1       3.094   1.933  -4.273  0.00  0.00    +0.047 A 
ATOM      9  C   UNL     1       1.805   1.566  -4.057  0.00  0.00    +0.029 A 
ATOM     10  C   UNL     1       1.540   0.738  -2.873  0.00  0.00    +0.043 A 
ATOM     11  N   UNL     1       0.417   0.228  -2.429  0.00  0.00    -0.375 N 
ATOM     12  C   UNL     1       2.918  -0.898   0.254  0.00  0.00    +0.052 C 
ATOM     13  C   UNL     1       2.121  -0.403   1.478  0.00  0.00    +0.115 C 
ATOM     14  N   UNL     1       0.693  -0.557   1.189  0.00  0.00    -0.268 N 
ATOM     15  C   UNL     1      -0.230  -1.218   1.900  0.00  0.00    +0.317 C 
ATOM     16  O   UNL     1      -0.016  -1.719   2.986  0.00  0.00    -0.252 OA
ATOM     17  N   UNL     1      -1.415  -1.264   1.276  0.00  0.00    -0.192 N 
ATOM     18  C   UNL     1      -1.390  -0.589   0.109  0.00  0.00    +0.253 C 
ATOM     19  O   UNL     1      -2.295  -0.474  -0.689  0.00  0.00    -0.272 OA
ATOM     20  H   UNL     1      -0.463   0.347  -2.817  0.00  0.00    +0.160 HD
ENDROOT
BRANCH  17  21
ATOM     21  C   UNL     1      -2.537  -1.930   1.773  0.00  0.00    +0.058 A 
ATOM     22  C   UNL     1      -3.440  -1.261   2.587  0.00  0.00    +0.025 A 
ATOM     23  C   UNL     1      -4.550  -1.920   3.078  0.00  0.00    +0.002 A 
ATOM     24  C   UNL     1      -4.770  -3.251   2.762  0.00  0.00    +0.001 A 
ATOM     25  C   UNL     1      -3.884  -3.931   1.956  0.00  0.00    +0.015 A 
ATOM     26  C   UNL     1      -2.760  -3.275   1.448  0.00  0.00    +0.059 A 
BRANCH  26  27
ATOM     27  C   UNL     1      -1.810  -3.996   0.579  0.00  0.00    +0.246 C 
ATOM     28  O   UNL     1      -0.830  -3.423   0.142  0.00  0.00    -0.270 OA
ATOM     29  N   UNL     1      -2.028  -5.289   0.268  0.00  0.00    -0.309 N 
ATOM     30  H   UNL     1      -2.809  -5.746   0.616  0.00  0.00    +0.149 HD
BRANCH  29  31
ATOM     31  C   UNL     1      -1.085  -6.004  -0.595  0.00  0.00    +0.136 C 
BRANCH  31  32
ATOM     32  C   UNL     1      -1.562  -7.445  -0.788  0.00  0.00    +0.135 C 
ATOM     33  C   UNL     1      -0.559  -8.230  -1.671  0.00  0.00    +0.035 C 
ATOM     34  C   UNL     1      -0.842  -9.687  -1.213  0.00  0.00    +0.031 C 
ATOM     35  C   UNL     1      -1.179  -9.501   0.282  0.00  0.00    +0.160 C 
ATOM     36  O   UNL     1      -1.580  -8.138   0.470  0.00  0.00    -0.375 OA
ENDBRANCH  31  32
ENDBRANCH  29  31
ENDBRANCH  26  27
ENDBRANCH  17  21
BRANCH   7  37
ATOM     37  O   UNL     1       5.409   2.009  -3.781  0.00  0.00    -0.495 OA
ATOM     38  C   UNL     1       5.518   2.804  -4.964  0.00  0.00    +0.277 C 
ENDBRANCH   7  37
TORSDOF 5
