REMARK  Name = ZINC13063822
REMARK  11 active torsions:
REMARK  status: ('A' for Active; 'I' for Inactive)
REMARK    1  A    between atoms: C_1  and  C_2
REMARK    2  A    between atoms: C_2  and  C_3
REMARK    3  A    between atoms: C_3  and  C_5
REMARK    4  A    between atoms: C_3  and  N_69
REMARK    5  A    between atoms: N_9  and  C_10
REMARK    6  A    between atoms: C_15  and  C_16
REMARK    7  A    between atoms: C_15  and  N_69
REMARK    8  A    between atoms: C_16  and  C_17
REMARK    9  A    between atoms: C_23  and  C_24
REMARK   10  A    between atoms: C_23  and  N_69
REMARK   11  A    between atoms: C_29  and  C_36
REMARK                            x       y       z     vdW  Elec       q    Type
REMARK                         _______ _______ _______ _____ _____    ______ ____
ROOT
ATOM      1  N   UNL     1      -2.211   1.789  -1.244  0.00  0.00    +0.389 N 
ATOM      2  H   UNL     1      -1.981   1.622  -2.231  0.00  0.00    -0.080 HD
ENDROOT
BRANCH   1   3
ATOM      3  C   UNL     1      -0.961   1.789  -0.454  0.00  0.00    +0.003 C 
BRANCH   3   4
ATOM      4  C   UNL     1      -0.134   0.595  -0.856  0.00  0.00    +0.138 A 
ATOM      5  N   UNL     1      -0.560  -0.635  -1.011  0.00  0.00    -0.115 NA
ATOM      6  N   UNL     1       0.444  -1.362  -1.363  0.00  0.00    -0.023 NA
ATOM      7  N   UNL     1       1.499  -0.628  -1.436  0.00  0.00    -0.044 NA
ATOM      8  N   UNL     1       1.183   0.585  -1.130  0.00  0.00    -0.228 N 
BRANCH   8   9
ATOM      9  C   UNL     1       2.089   1.736  -1.090  0.00  0.00    +0.111 C 
ATOM     10  C   UNL     1       2.757   1.931  -2.467  0.00  0.00    +0.027 C 
ATOM     11  C   UNL     1       4.200   2.382  -2.128  0.00  0.00    +0.002 C 
ATOM     12  C   UNL     1       4.542   1.527  -0.882  0.00  0.00    +0.002 C 
ATOM     13  C   UNL     1       3.223   1.480  -0.083  0.00  0.00    +0.027 C 
ENDBRANCH   8   9
ENDBRANCH   3   4
BRANCH   3  15
ATOM     14  C   UNL     1       0.026   1.847   1.841  0.00  0.00    +0.002 C 
ATOM     15  C   UNL     1      -1.273   1.713   1.042  0.00  0.00    -0.011 C 
ENDBRANCH   3  15
ENDBRANCH   1   3
BRANCH   1  16
ATOM     16  C   UNL     1      -3.107   0.713  -0.770  0.00  0.00    -0.073 C 
BRANCH  16  17
ATOM     17  C   UNL     1      -4.196   0.483  -1.821  0.00  0.00    +0.016 C 
BRANCH  17  18
ATOM     18  C   UNL     1      -5.134  -0.595  -1.344  0.00  0.00    -0.049 A 
ATOM     19  C   UNL     1      -4.883  -1.918  -1.658  0.00  0.00    +0.003 A 
ATOM     20  C   UNL     1      -5.741  -2.908  -1.216  0.00  0.00    +0.000 A 
ATOM     21  C   UNL     1      -6.856  -2.574  -0.470  0.00  0.00    +0.000 A 
ATOM     22  C   UNL     1      -7.110  -1.250  -0.161  0.00  0.00    +0.000 A 
ATOM     23  C   UNL     1      -6.249  -0.261  -0.598  0.00  0.00    +0.003 A 
ENDBRANCH  17  18
ENDBRANCH  16  17
ENDBRANCH   1  16
BRANCH   1  24
ATOM     24  C   UNL     1      -2.885   3.099  -1.122  0.00  0.00    -0.037 C 
BRANCH  24  25
ATOM     25  C   UNL     1      -2.177   4.090  -2.009  0.00  0.00    +0.001 A 
ATOM     26  C   UNL     1      -2.608   4.289  -3.279  0.00  0.00    +0.017 A 
ATOM     27  C   UNL     1      -1.898   5.259  -4.115  0.00  0.00    -0.001 A 
ATOM     28  C   UNL     1      -2.296   5.507  -5.433  0.00  0.00    +0.010 A 
ATOM     29  C   UNL     1      -1.613   6.419  -6.186  0.00  0.00    +0.004 A 
ATOM     30  C   UNL     1      -0.527   7.102  -5.656  0.00  0.00    -0.048 A 
ATOM     31  C   UNL     1      -0.117   6.874  -4.360  0.00  0.00    +0.029 A 
ATOM     32  C   UNL     1      -0.797   5.949  -3.574  0.00  0.00    +0.049 A 
ATOM     33  N   UNL     1      -0.409   5.702  -2.274  0.00  0.00    -0.322 N 
ATOM     34  H   UNL     1       0.350   6.178  -1.903  0.00  0.00    +0.169 HD
ATOM     35  C   UNL     1      -1.071   4.813  -1.513  0.00  0.00    +0.251 A 
ATOM     36  O   UNL     1      -0.703   4.622  -0.366  0.00  0.00    -0.268 OA
ATOM     37  C   UNL     1       0.211   8.103  -6.506  0.00  0.00    +0.044 C 
ENDBRANCH  24  25
ENDBRANCH   1  24
TORSDOF 9
