REMARK  Name = ZINC36586638
REMARK  14 active torsions:
REMARK  status: ('A' for Active; 'I' for Inactive)
REMARK    1  A    between atoms: C_1  and  C_2
REMARK    2  A    between atoms: C_2  and  C_3
REMARK    3  A    between atoms: C_2  and  C_4
REMARK    4  A    between atoms: C_2  and  N_5
REMARK    5  A    between atoms: C_6  and  C_8
REMARK    6  A    between atoms: C_8  and  C_10
REMARK    7  A    between atoms: C_8  and  N_24
REMARK    8  A    between atoms: N_24  and  C_35
REMARK    9  A    between atoms: C_25  and  C_27
REMARK   10  A    between atoms: C_28  and  O_34
REMARK   11  A    between atoms: C_32  and  O_33
REMARK   12  A    between atoms: C_35  and  C_36
REMARK   13  A    between atoms: C_35  and  C_37
REMARK   14  A    between atoms: C_35  and  C_38
REMARK                            x       y       z     vdW  Elec       q    Type
REMARK                         _______ _______ _______ _____ _____    ______ ____
ROOT
ATOM      1  C   UNL     1       1.827  -0.013  -3.631  0.00  0.00    +0.194 C 
ENDROOT
BRANCH   1   2
ATOM      2  C   UNL     1       1.760  -1.492  -3.910  0.00  0.00    -0.010 A 
ATOM      3  C   UNL     1       2.466  -2.342  -3.136  0.00  0.00    +0.015 A 
ATOM      4  C   UNL     1       2.437  -3.738  -3.357  0.00  0.00    -0.017 A 
ATOM      5  C   UNL     1       3.175  -4.613  -2.547  0.00  0.00    +0.008 A 
ATOM      6  C   UNL     1       3.128  -5.956  -2.782  0.00  0.00    +0.001 A 
ATOM      7  C   UNL     1       2.357  -6.473  -3.817  0.00  0.00    +0.001 A 
ATOM      8  C   UNL     1       1.628  -5.647  -4.624  0.00  0.00    +0.009 A 
ATOM      9  C   UNL     1       1.655  -4.268  -4.408  0.00  0.00    -0.010 A 
ATOM     10  C   UNL     1       0.888  -3.345  -5.249  0.00  0.00    -0.010 A 
ATOM     11  C   UNL     1       0.954  -1.960  -4.973  0.00  0.00    -0.012 A 
ATOM     12  C   UNL     1       0.219  -1.070  -5.768  0.00  0.00    +0.009 A 
ATOM     13  C   UNL     1      -0.550  -1.549  -6.788  0.00  0.00    +0.001 A 
ATOM     14  C   UNL     1      -0.617  -2.912  -7.052  0.00  0.00    +0.001 A 
ATOM     15  C   UNL     1       0.096  -3.804  -6.303  0.00  0.00    +0.009 A 
ENDBRANCH   1   2
BRANCH   1  17
ATOM     16  N   UNL     1      -0.604   0.122  -3.192  0.00  0.00    -0.309 N 
ATOM     17  C   UNL     1       0.651   0.391  -2.779  0.00  0.00    +0.239 C 
ATOM     18  O   UNL     1       0.834   0.958  -1.723  0.00  0.00    -0.273 OA
ATOM     19  H   UNL     1      -0.750  -0.331  -4.036  0.00  0.00    +0.149 HD
BRANCH  16  21
ATOM     20  C   UNL     1      -1.738   2.033  -2.170  0.00  0.00    +0.031 C 
ATOM     21  C   UNL     1      -1.747   0.515  -2.364  0.00  0.00    +0.026 C 
ATOM     22  C   UNL     1      -1.650  -0.173  -1.001  0.00  0.00    +0.031 C 
ATOM     23  C   UNL     1      -3.046   0.096  -3.055  0.00  0.00    +0.031 C 
ENDBRANCH  16  21
ENDBRANCH   1  17
BRANCH   1  24
ATOM     24  N   UNL     1       3.072   0.295  -2.923  0.00  0.00    -0.277 N 
ATOM     25  C   UNL     1       3.257  -0.146  -1.663  0.00  0.00    +0.255 C 
ATOM     26  O   UNL     1       2.364  -0.740  -1.089  0.00  0.00    -0.270 OA
BRANCH  25  27
ATOM     27  C   UNL     1       4.540   0.092  -0.981  0.00  0.00    +0.119 A 
ATOM     28  C   UNL     1       4.723   1.245  -0.203  0.00  0.00    +0.133 A 
ATOM     29  C   UNL     1       5.934   1.459   0.435  0.00  0.00    +0.046 A 
ATOM     30  C   UNL     1       6.960   0.540   0.307  0.00  0.00    +0.007 A 
ATOM     31  C   UNL     1       6.790  -0.599  -0.457  0.00  0.00    +0.046 A 
ATOM     32  C   UNL     1       5.585  -0.836  -1.099  0.00  0.00    +0.133 A 
BRANCH  32  33
ATOM     33  O   UNL     1       5.419  -1.958  -1.843  0.00  0.00    -0.506 OA
ATOM     34  H   UNL     1       5.670  -1.855  -2.771  0.00  0.00    +0.292 HD
ENDBRANCH  32  33
BRANCH  28  35
ATOM     35  O   UNL     1       3.719   2.148  -0.077  0.00  0.00    -0.506 OA
ATOM     36  H   UNL     1       3.129   1.978   0.670  0.00  0.00    +0.292 HD
ENDBRANCH  28  35
ENDBRANCH  25  27
BRANCH  24  37
ATOM     37  C   UNL     1       4.115   1.082  -3.584  0.00  0.00    +0.030 C 
ATOM     38  C   UNL     1       3.591   1.598  -4.926  0.00  0.00    +0.031 C 
ATOM     39  C   UNL     1       4.499   2.268  -2.697  0.00  0.00    +0.031 C 
ATOM     40  C   UNL     1       5.345   0.203  -3.820  0.00  0.00    +0.031 C 
ENDBRANCH  24  37
ENDBRANCH   1  24
TORSDOF 8
