REMARK  Name = ZINC14967238
REMARK  12 active torsions:
REMARK  status: ('A' for Active; 'I' for Inactive)
REMARK    1  A    between atoms: C_1  and  C_2
REMARK    2  A    between atoms: C_2  and  C_3
REMARK    3  A    between atoms: C_2  and  C_4
REMARK    4  A    between atoms: C_4  and  C_5
REMARK    5  A    between atoms: C_5  and  C_7
REMARK    6  A    between atoms: C_5  and  N_27
REMARK    7  A    between atoms: C_16  and  C_17
REMARK    8  A    between atoms: C_16  and  N_70
REMARK    9  A    between atoms: C_28  and  C_30
REMARK   10  A    between atoms: C_33  and  C_35
REMARK   11  A    between atoms: C_35  and  O_36
REMARK   12  A    between atoms: O_36  and  C_37
REMARK                            x       y       z     vdW  Elec       q    Type
REMARK                         _______ _______ _______ _____ _____    ______ ____
ROOT
ATOM      1  C   UNL     1       1.823   0.781   0.111  0.00  0.00    +0.154 A 
ATOM      2  N   UNL     1       0.891   1.670   0.338  0.00  0.00    -0.132 NA
ATOM      3  N   UNL     1      -0.262   1.096   0.357  0.00  0.00    -0.134 NA
ATOM      4  C   UNL     1      -0.117  -0.178   0.139  0.00  0.00    +0.132 A 
ATOM      5  N   UNL     1       1.210  -0.416  -0.009  0.00  0.00    -0.315 N 
ATOM      6  C   UNL     1       1.830  -1.721  -0.236  0.00  0.00    +0.106 C 
ATOM      7  C   UNL     1       0.832  -2.635  -0.953  0.00  0.00    -0.056 C 
ATOM      8  C   UNL     1      -0.773  -2.447   0.867  0.00  0.00    -0.070 C 
ATOM      9  C   UNL     1      -1.196  -1.226   0.044  0.00  0.00    +0.058 C 
ATOM     10  N   UNL     1       0.039  -3.378   0.052  0.00  0.00    +0.385 N 
ATOM     11  H   UNL     1       0.683  -3.884   0.672  0.00  0.00    -0.081 HD
ENDROOT
BRANCH   1  12
ATOM     12  C   UNL     1       3.303   1.043   0.003  0.00  0.00    +0.142 C 
BRANCH  12  13
ATOM     13  N   UNL     1       3.530   2.224  -0.834  0.00  0.00    -0.299 N 
ATOM     14  C   UNL     1       4.726   2.409  -1.428  0.00  0.00    +0.280 C 
ATOM     15  O   UNL     1       5.584   1.550  -1.348  0.00  0.00    -0.267 OA
ATOM     16  H   UNL     1       2.820   2.873  -0.960  0.00  0.00    +0.150 HD
BRANCH  14  17
ATOM     17  C   UNL     1       4.992   3.645  -2.171  0.00  0.00    +0.190 A 
ATOM     18  C   UNL     1       6.155   3.961  -2.812  0.00  0.00    +0.055 A 
ATOM     19  C   UNL     1       5.968   5.227  -3.388  0.00  0.00    +0.048 A 
ATOM     20  C   UNL     1       4.717   5.627  -3.070  0.00  0.00    +0.131 A 
ATOM     21  O   UNL     1       4.132   4.671  -2.336  0.00  0.00    -0.453 OA
BRANCH  20  22
ATOM     22  C   UNL     1       4.084   6.934  -3.474  0.00  0.00    +0.233 C 
BRANCH  22  23
ATOM     23  O   UNL     1       3.414   6.772  -4.725  0.00  0.00    -0.375 OA
ATOM     24  C   UNL     1       2.776   7.959  -5.201  0.00  0.00    +0.194 C 
ENDBRANCH  22  23
ENDBRANCH  20  22
ENDBRANCH  14  17
ENDBRANCH  12  13
BRANCH  12  25
ATOM     25  C   UNL     1       3.880   1.288   1.398  0.00  0.00    +0.033 C 
BRANCH  25  27
ATOM     26  C   UNL     1       4.619  -1.084   1.658  0.00  0.00    +0.007 C 
ATOM     27  C   UNL     1       3.734   0.019   2.241  0.00  0.00    -0.015 C 
ATOM     28  C   UNL     1       4.163   0.310   3.680  0.00  0.00    +0.007 C 
ENDBRANCH  25  27
ENDBRANCH  12  25
ENDBRANCH   1  12
BRANCH  10  29
ATOM     29  C   UNL     1      -0.840  -4.352  -0.620  0.00  0.00    -0.025 C 
BRANCH  29  30
ATOM     30  C   UNL     1      -1.473  -5.232   0.427  0.00  0.00    +0.000 A 
ATOM     31  C   UNL     1      -0.995  -6.422   0.825  0.00  0.00    +0.029 A 
ATOM     32  C   UNL     1      -1.909  -6.929   1.851  0.00  0.00    -0.000 A 
ATOM     33  C   UNL     1      -1.948  -8.087   2.629  0.00  0.00    +0.010 A 
ATOM     34  C   UNL     1      -2.967  -8.272   3.521  0.00  0.00    +0.001 A 
ATOM     35  C   UNL     1      -3.965  -7.316   3.659  0.00  0.00    +0.002 A 
ATOM     36  C   UNL     1      -3.946  -6.166   2.901  0.00  0.00    +0.026 A 
ATOM     37  C   UNL     1      -2.917  -5.957   1.988  0.00  0.00    +0.047 A 
ATOM     38  N   UNL     1      -2.623  -4.939   1.108  0.00  0.00    -0.360 N 
ATOM     39  H   UNL     1      -3.151  -4.135   0.990  0.00  0.00    +0.166 HD
ENDBRANCH  29  30
ENDBRANCH  10  29
TORSDOF 9
