REMARK  Name = ZINC52803764
REMARK  9 active torsions:
REMARK  status: ('A' for Active; 'I' for Inactive)
REMARK    1  A    between atoms: C_1  and  C_2
REMARK    2  A    between atoms: C_2  and  C_3
REMARK    3  A    between atoms: C_2  and  C_4
REMARK    4  A    between atoms: C_4  and  N_5
REMARK    5  A    between atoms: C_6  and  N_28
REMARK    6  A    between atoms: C_7  and  C_14
REMARK    7  A    between atoms: C_14  and  C_16
REMARK    8  A    between atoms: C_16  and  N_17
REMARK    9  A    between atoms: C_21  and  C_23
REMARK                            x       y       z     vdW  Elec       q    Type
REMARK                         _______ _______ _______ _____ _____    ______ ____
ROOT
ATOM      1  N   UNL     1      -2.063  -0.312  -1.321  0.00  0.00    -0.281 N 
ATOM      2  C   UNL     1      -2.697   0.891  -1.189  0.00  0.00    +0.116 A 
ATOM      3  C   UNL     1      -3.383   1.423  -2.295  0.00  0.00    +0.118 A 
ATOM      4  C   UNL     1      -3.380   0.647  -3.542  0.00  0.00    +0.266 A 
ATOM      5  O   UNL     1      -3.957   1.059  -4.531  0.00  0.00    -0.267 OA
ATOM      6  N   UNL     1      -2.723  -0.531  -3.569  0.00  0.00    -0.274 N 
ATOM      7  H   UNL     1      -2.712  -1.054  -4.386  0.00  0.00    +0.173 HD
ATOM      8  C   UNL     1      -2.080  -0.986  -2.482  0.00  0.00    +0.331 A 
ATOM      9  O   UNL     1      -1.497  -2.050  -2.549  0.00  0.00    -0.246 OA
ENDROOT
BRANCH   2  10
ATOM     10  N   UNL     1      -2.664   1.563  -0.007  0.00  0.00    -0.344 N 
ATOM     11  H   UNL     1      -2.263   1.152   0.774  0.00  0.00    +0.144 HD
ATOM     12  H   UNL     1      -3.044   2.454   0.055  0.00  0.00    +0.144 HD
ENDBRANCH   2  10
BRANCH   3  13
ATOM     13  C   UNL     1      -4.053   2.661  -2.209  0.00  0.00    +0.155 C 
ATOM     14  O   UNL     1      -3.954   3.337  -1.205  0.00  0.00    -0.294 OA
BRANCH  13  15
ATOM     15  C   UNL     1      -4.893   3.145  -3.363  0.00  0.00    +0.003 C 
BRANCH  15  16
ATOM     16  N   UNL     1      -5.480   4.449  -3.028  0.00  0.00    +0.389 N 
ATOM     17  C   UNL     1      -4.408   5.460  -2.901  0.00  0.00    -0.077 C 
ATOM     18  C   UNL     1      -4.348   6.150  -4.286  0.00  0.00    -0.020 C 
ATOM     19  C   UNL     1      -5.848   6.193  -4.680  0.00  0.00    -0.013 C 
ATOM     20  C   UNL     1      -6.397   4.871  -4.103  0.00  0.00    -0.037 C 
ATOM     21  H   UNL     1      -5.986   4.382  -2.158  0.00  0.00    -0.080 HD
BRANCH  20  22
ATOM     22  C   UNL     1      -7.778   5.091  -3.542  0.00  0.00    -0.054 A 
ATOM     23  C   UNL     1      -8.895   4.686  -4.248  0.00  0.00    +0.009 A 
ATOM     24  C   UNL     1     -10.123   4.899  -3.715  0.00  0.00    +0.045 A 
ATOM     25  S   UNL     1      -9.721   5.694  -2.168  0.00  0.00    -0.105 S 
ATOM     26  C   UNL     1      -7.944   5.684  -2.335  0.00  0.00    +0.047 A 
ENDBRANCH  20  22
ENDBRANCH  15  16
ENDBRANCH  13  15
ENDBRANCH   3  13
BRANCH   1  27
ATOM     27  C   UNL     1      -1.345  -0.874  -0.175  0.00  0.00    +0.131 C 
BRANCH  27  29
ATOM     28  C   UNL     1       0.135   1.130   0.016  0.00  0.00    +0.009 C 
ATOM     29  C   UNL     1       0.105  -0.385  -0.192  0.00  0.00    +0.003 C 
ATOM     30  C   UNL     1       0.887  -1.069   0.931  0.00  0.00    +0.009 C 
ENDBRANCH  27  29
ENDBRANCH   1  27
TORSDOF 7
