REMARK  Name = ZINC09793782
REMARK  7 active torsions:
REMARK  status: ('A' for Active; 'I' for Inactive)
REMARK    1  A    between atoms: C_4  and  C_7
REMARK    2  A    between atoms: C_7  and  N_8
REMARK    3  A    between atoms: C_9  and  N_37
REMARK    4  A    between atoms: C_10  and  N_17
REMARK    5  A    between atoms: N_17  and  C_18
REMARK    6  A    between atoms: C_18  and  C_19
REMARK    7  A    between atoms: C_24  and  C_26
REMARK                            x       y       z     vdW  Elec       q    Type
REMARK                         _______ _______ _______ _____ _____    ______ ____
ROOT
ATOM      1  N   UNL     1       5.019   3.554  -3.179  0.00  0.00    -0.276 N 
ATOM      2  C   UNL     1       4.027   3.821  -2.264  0.00  0.00    +0.128 A 
ATOM      3  C   UNL     1       2.726   3.464  -2.556  0.00  0.00    +0.140 A 
ATOM      4  C   UNL     1       2.456   2.829  -3.783  0.00  0.00    +0.277 A 
ATOM      5  O   UNL     1       1.316   2.498  -4.064  0.00  0.00    -0.266 OA
ATOM      6  N   UNL     1       3.463   2.595  -4.647  0.00  0.00    -0.273 N 
ATOM      7  H   UNL     1       3.270   2.152  -5.522  0.00  0.00    +0.173 HD
ATOM      8  C   UNL     1       4.724   2.951  -4.345  0.00  0.00    +0.331 A 
ATOM      9  O   UNL     1       5.615   2.723  -5.141  0.00  0.00    -0.246 OA
ENDROOT
BRANCH   3  10
ATOM     10  N   UNL     1       1.687   3.725  -1.638  0.00  0.00    -0.254 N 
ATOM     11  C   UNL     1       0.747   4.648  -1.929  0.00  0.00    +0.265 C 
ATOM     12  O   UNL     1      -0.096   4.935  -1.105  0.00  0.00    -0.271 OA
BRANCH  11  13
ATOM     13  C   UNL     1       0.743   5.322  -3.277  0.00  0.00    +0.296 C 
ATOM     14  C   UNL     1       1.947   6.267  -3.386  0.00  0.00    +0.283 C 
ATOM     15  O   UNL     1       1.906   6.899  -4.670  0.00  0.00    -0.484 OA
ATOM     16  C   UNL     1       0.703   7.396  -5.069  0.00  0.00    +0.162 A 
ATOM     17  C   UNL     1       0.657   8.314  -6.108  0.00  0.00    +0.049 A 
ATOM     18  C   UNL     1      -0.557   8.825  -6.527  0.00  0.00    +0.004 A 
ATOM     19  C   UNL     1      -1.728   8.424  -5.912  0.00  0.00    +0.004 A 
ATOM     20  C   UNL     1      -1.689   7.510  -4.875  0.00  0.00    +0.049 A 
ATOM     21  C   UNL     1      -0.474   6.994  -4.450  0.00  0.00    +0.163 A 
ATOM     22  O   UNL     1      -0.451   6.097  -3.426  0.00  0.00    -0.472 OA
ENDBRANCH  11  13
BRANCH  10  23
ATOM     23  C   UNL     1       1.629   2.994  -0.370  0.00  0.00    +0.188 C 
BRANCH  23  24
ATOM     24  C   UNL     1       0.746   1.782  -0.529  0.00  0.00    +0.122 A 
ATOM     25  C   UNL     1       1.149   0.562  -0.928  0.00  0.00    +0.046 A 
ATOM     26  C   UNL     1       0.002  -0.265  -0.936  0.00  0.00    +0.041 A 
ATOM     27  C   UNL     1      -1.032   0.499  -0.541  0.00  0.00    +0.195 A 
ATOM     28  O   UNL     1      -0.576   1.738  -0.295  0.00  0.00    -0.466 OA
ENDBRANCH  23  24
ENDBRANCH  10  23
ENDBRANCH   3  10
BRANCH   2  29
ATOM     29  N   UNL     1       4.327   4.438  -1.073  0.00  0.00    -0.343 N 
ATOM     30  H   UNL     1       3.646   4.530  -0.389  0.00  0.00    +0.144 HD
ATOM     31  H   UNL     1       5.221   4.781  -0.917  0.00  0.00    +0.144 HD
ENDBRANCH   2  29
BRANCH   1  32
ATOM     32  C   UNL     1       6.403   3.928  -2.882  0.00  0.00    +0.163 C 
BRANCH  32  36
ATOM     33  C   UNL     1       8.355   0.695  -0.885  0.00  0.00    +0.000 A 
ATOM     34  C   UNL     1       8.386   0.774  -2.265  0.00  0.00    +0.000 A 
ATOM     35  C   UNL     1       7.754   1.820  -2.911  0.00  0.00    +0.005 A 
ATOM     36  C   UNL     1       7.092   2.787  -2.178  0.00  0.00    -0.028 A 
ATOM     37  C   UNL     1       7.066   2.711  -0.797  0.00  0.00    +0.005 A 
ATOM     38  C   UNL     1       7.693   1.661  -0.151  0.00  0.00    +0.000 A 
ENDBRANCH  32  36
ENDBRANCH   1  32
TORSDOF 7
