REMARK  Name = ZINC21824449
REMARK  6 active torsions:
REMARK  status: ('A' for Active; 'I' for Inactive)
REMARK    1  A    between atoms: C_4  and  C_7
REMARK    2  A    between atoms: N_9  and  N_28
REMARK    3  A    between atoms: C_10  and  S_12
REMARK    4  A    between atoms: S_12  and  C_13
REMARK    5  A    between atoms: C_13  and  C_14
REMARK    6  A    between atoms: C_22  and  N_25
REMARK                            x       y       z     vdW  Elec       q    Type
REMARK                         _______ _______ _______ _____ _____    ______ ____
ROOT
ATOM      1  S   UNL     1       1.041   0.382   4.561  0.00  0.00    -0.077 S 
ENDROOT
BRANCH   1   5
ATOM      2  C   UNL     1       4.232  -1.772   4.031  0.00  0.00    +0.092 A 
ATOM      3  C   UNL     1       4.216  -1.760   5.387  0.00  0.00    +0.138 A 
ATOM      4  N   UNL     1       3.125  -1.017   5.767  0.00  0.00    -0.251 N 
ATOM      5  C   UNL     1       2.500  -0.603   4.630  0.00  0.00    +0.187 A 
ATOM      6  N   UNL     1       3.167  -1.054   3.595  0.00  0.00    -0.221 NA
BRANCH   2  10
ATOM      7  C   UNL     1       7.110  -3.718   1.580  0.00  0.00    +0.000 A 
ATOM      8  C   UNL     1       6.070  -3.017   0.997  0.00  0.00    +0.001 A 
ATOM      9  C   UNL     1       5.133  -2.384   1.788  0.00  0.00    +0.010 A 
ATOM     10  C   UNL     1       5.236  -2.451   3.176  0.00  0.00    +0.002 A 
ATOM     11  C   UNL     1       6.289  -3.155   3.758  0.00  0.00    +0.010 A 
ATOM     12  C   UNL     1       7.217  -3.789   2.957  0.00  0.00    +0.001 A 
ENDBRANCH   2  10
BRANCH   4  13
ATOM     13  N   UNL     1       2.737  -0.746   7.048  0.00  0.00    -0.296 N 
ATOM     14  H   UNL     1       1.841  -0.136   7.234  0.00  0.00    +0.163 HD
ATOM     15  H   UNL     1       3.322  -1.136   7.894  0.00  0.00    +0.163 HD
ENDBRANCH   4  13
ENDBRANCH   1   5
BRANCH   1  16
ATOM     16  C   UNL     1       0.837   0.517   2.768  0.00  0.00    +0.173 C 
BRANCH  16  17
ATOM     17  C   UNL     1      -0.386   1.343   2.462  0.00  0.00    +0.230 C 
ATOM     18  O   UNL     1      -1.054   1.795   3.368  0.00  0.00    -0.274 OA
ATOM     19  N   UNL     1      -0.738   1.578   1.182  0.00  0.00    -0.270 N 
ATOM     20  C   UNL     1      -0.013   1.086   0.008  0.00  0.00    +0.118 C 
ATOM     21  C   UNL     1      -0.797   1.615  -1.204  0.00  0.00    +0.056 C 
ATOM     22  C   UNL     1      -1.947   2.393  -0.603  0.00  0.00    -0.024 A 
ATOM     23  C   UNL     1      -1.849   2.327   0.778  0.00  0.00    +0.042 A 
ATOM     24  C   UNL     1      -2.810   2.976   1.556  0.00  0.00    +0.056 A 
ATOM     25  C   UNL     1      -3.838   3.670   0.955  0.00  0.00    +0.128 A 
ATOM     26  C   UNL     1      -3.926   3.729  -0.423  0.00  0.00    +0.033 A 
ATOM     27  C   UNL     1      -2.979   3.089  -1.201  0.00  0.00    +0.008 A 
BRANCH  25  28
ATOM     28  N   UNL     1      -4.852   4.354   1.789  0.00  0.00    +0.056 N 
ATOM     29  O   UNL     1      -4.776   4.304   3.004  0.00  0.00    -0.126 OA
ATOM     30  O   UNL     1      -5.762   4.968   1.261  0.00  0.00    -0.126 OA
ENDBRANCH  25  28
ENDBRANCH  16  17
ENDBRANCH   1  16
TORSDOF 6
