REMARK  Name = ZINC04306983
REMARK  4 active torsions:
REMARK  status: ('A' for Active; 'I' for Inactive)
REMARK    1  A    between atoms: C_1  and  C_2
REMARK    2  A    between atoms: C_2  and  C_17
REMARK    3  A    between atoms: N_5  and  C_9
REMARK    4  A    between atoms: C_9  and  C_10
REMARK                            x       y       z     vdW  Elec       q    Type
REMARK                         _______ _______ _______ _____ _____    ______ ____
ROOT
ATOM      1  C   UNL     1       1.959   5.836  -4.427  0.00  0.00    +0.047 C 
ATOM      2  C   UNL     1       3.134   5.781  -3.448  0.00  0.00    +0.136 C 
ATOM      3  C   UNL     1       2.639   5.562  -2.032  0.00  0.00    +0.251 C 
ATOM      4  O   UNL     1       1.911   6.289  -1.390  0.00  0.00    -0.272 OA
ATOM      5  N   UNL     1       3.175   4.391  -1.635  0.00  0.00    -0.220 N 
ATOM      6  C   UNL     1       3.936   3.848  -2.592  0.00  0.00    +0.310 C 
ATOM      7  O   UNL     1       4.529   2.794  -2.467  0.00  0.00    -0.252 OA
ATOM      8  N   UNL     1       3.970   4.596  -3.709  0.00  0.00    -0.281 N 
ATOM      9  H   UNL     1       4.455   4.397  -4.525  0.00  0.00    +0.152 HD
ENDROOT
BRANCH   2  10
ATOM     10  C   UNL     1       3.954   7.042  -3.534  0.00  0.00    -0.008 A 
ATOM     11  C   UNL     1       5.270   6.981  -3.874  0.00  0.00    +0.007 A 
ATOM     12  C   UNL     1       6.044   8.136  -3.959  0.00  0.00    +0.001 A 
ATOM     13  C   UNL     1       5.506   9.361  -3.703  0.00  0.00    +0.008 A 
ATOM     14  C   UNL     1       4.150   9.464  -3.349  0.00  0.00    -0.018 A 
ATOM     15  C   UNL     1       3.362   8.289  -3.268  0.00  0.00    -0.012 A 
ATOM     16  C   UNL     1       2.007   8.391  -2.908  0.00  0.00    +0.009 A 
ATOM     17  C   UNL     1       1.469   9.615  -2.653  0.00  0.00    +0.001 A 
ATOM     18  C   UNL     1       2.243  10.771  -2.738  0.00  0.00    +0.001 A 
ATOM     19  C   UNL     1       3.559  10.710  -3.078  0.00  0.00    +0.008 A 
ENDBRANCH   2  10
BRANCH   5  20
ATOM     20  C   UNL     1       2.956   3.790  -0.317  0.00  0.00    +0.153 C 
BRANCH  20  21
ATOM     21  C   UNL     1       1.746   2.894  -0.368  0.00  0.00    -0.028 A 
ATOM     22  C   UNL     1       0.493   3.407  -0.086  0.00  0.00    +0.005 A 
ATOM     23  C   UNL     1      -0.617   2.585  -0.132  0.00  0.00    +0.002 A 
ATOM     24  C   UNL     1      -0.477   1.251  -0.467  0.00  0.00    +0.020 A 
ATOM     25  C   UNL     1       0.777   0.736  -0.744  0.00  0.00    +0.041 A 
ATOM     26  C   UNL     1       1.888   1.559  -0.697  0.00  0.00    +0.025 A 
ATOM     27 CL   UNL     1       0.955  -0.941  -1.157  0.00  0.00    -0.084 Cl
ENDBRANCH  20  21
ENDBRANCH   5  20
TORSDOF 3
