REMARK  Name = ZINC08279672
REMARK  3 active torsions:
REMARK  status: ('A' for Active; 'I' for Inactive)
REMARK    1  A    between atoms: C_8  and  C_25
REMARK    2  A    between atoms: N_9  and  C_10
REMARK    3  A    between atoms: C_10  and  C_11
REMARK                            x       y       z     vdW  Elec       q    Type
REMARK                         _______ _______ _______ _____ _____    ______ ____
ROOT
ATOM      1  C   UNL     1       8.152   0.202  -0.070  0.00  0.00    +0.002 A 
ATOM      2  C   UNL     1       7.901  -1.163  -0.076  0.00  0.00    +0.002 A 
ATOM      3  C   UNL     1       6.605  -1.634  -0.067  0.00  0.00    +0.028 A 
ATOM      4  C   UNL     1       5.546  -0.737  -0.053  0.00  0.00    +0.070 A 
ATOM      5  C   UNL     1       5.801   0.645  -0.047  0.00  0.00    +0.090 A 
ATOM      6  C   UNL     1       7.123   1.100  -0.056  0.00  0.00    +0.030 A 
ATOM      7  N   UNL     1       4.600   1.274  -0.034  0.00  0.00    -0.226 NA
ATOM      8  C   UNL     1       3.636   0.384  -0.030  0.00  0.00    +0.161 A 
ATOM      9  N   UNL     1       4.171  -0.877  -0.036  0.00  0.00    -0.313 N 
ENDROOT
BRANCH   8  10
ATOM     10  C   UNL     1       2.192   0.695  -0.015  0.00  0.00    +0.113 A 
ATOM     11  C   UNL     1       1.746   1.992  -0.004  0.00  0.00    +0.078 A 
ATOM     12  S   UNL     1      -0.021   1.732   0.012  0.00  0.00    -0.083 S 
ATOM     13  C   UNL     1       0.002  -0.004   0.002  0.00  0.00    +0.156 A 
ATOM     14  N   UNL     1       1.284  -0.271  -0.012  0.00  0.00    -0.244 NA
ENDBRANCH   8  10
BRANCH   9  15
ATOM     15  C   UNL     1       3.425  -2.138  -0.030  0.00  0.00    +0.219 C 
BRANCH  15  16
ATOM     16  C   UNL     1       3.156  -2.569  -1.449  0.00  0.00    +0.236 C 
ATOM     17  O   UNL     1       3.548  -1.890  -2.374  0.00  0.00    -0.274 OA
ATOM     18  N   UNL     1       2.479  -3.709  -1.690  0.00  0.00    -0.297 N 
ATOM     19  C   UNL     1       1.995  -4.545  -0.583  0.00  0.00    +0.108 C 
ATOM     20  C   UNL     1       0.492  -4.783  -0.758  0.00  0.00    +0.019 C 
ATOM     21  C   UNL     1       0.228  -5.363  -2.150  0.00  0.00    +0.007 C 
ATOM     22  C   UNL     1       0.699  -4.370  -3.213  0.00  0.00    +0.010 C 
ATOM     23  C   UNL     1       2.201  -4.144  -3.069  0.00  0.00    +0.079 C 
ATOM     24  C   UNL     1       2.945  -5.464  -3.319  0.00  0.00    +0.023 C 
ATOM     25  C   UNL     1       2.626  -5.976  -4.724  0.00  0.00    +0.002 C 
ATOM     26  C   UNL     1       1.119  -6.218  -4.844  0.00  0.00    +0.000 C 
ATOM     27  C   UNL     1       0.377  -4.901  -4.607  0.00  0.00    +0.005 C 
ENDBRANCH  15  16
ENDBRANCH   9  15
TORSDOF 3
