REMARK  Name = ZINC00799733
REMARK  4 active torsions:
REMARK  status: ('A' for Active; 'I' for Inactive)
REMARK    1  A    between atoms: C_1  and  C_2
REMARK    2  A    between atoms: C_5  and  C_7
REMARK    3  A    between atoms: C_5  and  O_14
REMARK    4  A    between atoms: C_15  and  C_17
REMARK                            x       y       z     vdW  Elec       q    Type
REMARK                         _______ _______ _______ _____ _____    ______ ____
ROOT
ATOM      1  C   UNL     1      -4.943   6.857  -0.172  0.00  0.00    +0.062 C 
ATOM      2  C   UNL     1      -3.483   7.231  -0.147  0.00  0.00    +0.039 C 
ATOM      3  N   UNL     1      -2.520   6.408  -0.061  0.00  0.00    -0.183 NA
ATOM      4  N   UNL     1      -1.257   6.996  -0.051  0.00  0.00    -0.153 N 
ATOM      5  C   UNL     1      -1.415   8.456  -0.159  0.00  0.00    +0.187 C 
ATOM      6  C   UNL     1      -2.945   8.641  -0.226  0.00  0.00    +0.114 C 
ATOM      7  C   UNL     1      -0.084   6.337   0.036  0.00  0.00    +0.269 C 
ATOM      8  O   UNL     1       0.957   6.959   0.123  0.00  0.00    -0.268 OA
ENDROOT
BRANCH   5   9
ATOM      9  C   UNL     1      -0.845   9.143   1.055  0.00  0.00    +0.004 A 
ATOM     10  C   UNL     1      -0.436  10.461   0.974  0.00  0.00    +0.009 A 
ATOM     11  C   UNL     1       0.082  11.094   2.089  0.00  0.00    +0.016 A 
ATOM     12  C   UNL     1       0.201  10.405   3.282  0.00  0.00    +0.018 A 
ATOM     13  C   UNL     1      -0.203   9.084   3.361  0.00  0.00    +0.016 A 
ATOM     14  C   UNL     1      -0.727   8.454   2.247  0.00  0.00    +0.009 A 
ATOM     15 BR   UNL     1       0.917  11.267   4.805  0.00  0.00    -0.050 Br
ENDBRANCH   5   9
BRANCH   7  16
ATOM     16  C   UNL     1      -0.064   4.860   0.026  0.00  0.00    +0.039 A 
ATOM     17  C   UNL     1       1.153   4.176  -0.015  0.00  0.00    +0.014 A 
ATOM     18  C   UNL     1       1.165   2.796  -0.023  0.00  0.00    +0.015 A 
ATOM     19  C   UNL     1      -0.026   2.091   0.009  0.00  0.00    +0.013 A 
ATOM     20  C   UNL     1      -1.236   2.763   0.044  0.00  0.00    +0.015 A 
ATOM     21  C   UNL     1      -1.261   4.142   0.059  0.00  0.00    +0.014 A 
ATOM     22  I   UNL     1       0.003  -0.004  -0.004  0.00  0.00    -0.044 I 
ENDBRANCH   7  16
BRANCH   5  23
ATOM     23  O   UNL     1      -0.795   8.944  -1.350  0.00  0.00    -0.366 OA
ATOM     24  H   UNL     1       0.158   8.786  -1.391  0.00  0.00    +0.212 HD
ENDBRANCH   5  23
TORSDOF 3
