REMARK  Name = ZINC20720775
REMARK  5 active torsions:
REMARK  status: ('A' for Active; 'I' for Inactive)
REMARK    1  A    between atoms: C_1  and  C_2
REMARK    2  A    between atoms: C_2  and  N_3
REMARK    3  A    between atoms: N_3  and  C_4
REMARK    4  A    between atoms: C_10  and  C_12
REMARK    5  A    between atoms: C_19  and  C_28
REMARK                            x       y       z     vdW  Elec       q    Type
REMARK                         _______ _______ _______ _____ _____    ______ ____
ROOT
ATOM      1  C   UNL     1       6.830   3.933   0.009  0.00  0.00    +0.058 A 
ATOM      2  C   UNL     1       7.673   4.100  -1.089  0.00  0.00    +0.015 A 
ATOM      3  C   UNL     1       7.423   3.421  -2.261  0.00  0.00    +0.001 A 
ATOM      4  C   UNL     1       6.335   2.566  -2.344  0.00  0.00    +0.006 A 
ATOM      5  C   UNL     1       5.495   2.385  -1.268  0.00  0.00    -0.019 A 
ATOM      6  C   UNL     1       5.718   3.070  -0.070  0.00  0.00    +0.044 A 
ATOM      7  N   UNL     1       4.909   2.965   1.050  0.00  0.00    -0.336 N 
ATOM      8  C   UNL     1       3.799   2.001   0.980  0.00  0.00    +0.107 C 
ATOM      9  C   UNL     1       3.228   2.080  -0.421  0.00  0.00    +0.029 C 
ATOM     10  C   UNL     1       4.338   1.466  -1.331  0.00  0.00    +0.049 C 
ATOM     11  C   UNL     1       3.614   1.174  -2.592  0.00  0.00    -0.023 C 
ATOM     12  C   UNL     1       2.337   0.943  -2.303  0.00  0.00    -0.030 C 
ATOM     13  C   UNL     1       2.107   1.105  -0.798  0.00  0.00    +0.033 C 
ATOM     14  H   UNL     1       5.064   3.560   1.962  0.00  0.00    +0.147 HD
ENDROOT
BRANCH   8  15
ATOM     15  C   UNL     1       4.309   0.609   1.250  0.00  0.00    -0.002 A 
ATOM     16  C   UNL     1       5.586   0.202   1.191  0.00  0.00    +0.089 A 
ATOM     17  N   UNL     1       5.666  -1.129   1.499  0.00  0.00    -0.360 N 
ATOM     18  H   UNL     1       6.643  -1.636   1.501  0.00  0.00    +0.165 HD
ATOM     19  C   UNL     1       4.410  -1.623   1.770  0.00  0.00    +0.047 A 
ATOM     20  C   UNL     1       3.504  -0.556   1.626  0.00  0.00    +0.005 A 
ATOM     21  C   UNL     1       2.141  -0.765   1.842  0.00  0.00    +0.010 A 
ATOM     22  C   UNL     1       1.693  -2.007   2.193  0.00  0.00    +0.001 A 
ATOM     23  C   UNL     1       2.581  -3.065   2.332  0.00  0.00    +0.002 A 
ATOM     24  C   UNL     1       3.931  -2.879   2.128  0.00  0.00    +0.026 A 
ENDBRANCH   8  15
BRANCH   1  26
ATOM     25  N   UNL     1       8.377   4.899   1.637  0.00  0.00    -0.268 N 
ATOM     26  C   UNL     1       7.105   4.662   1.260  0.00  0.00    +0.253 C 
ATOM     27  O   UNL     1       6.183   5.049   1.952  0.00  0.00    -0.270 OA
BRANCH  25  28
ATOM     28  C   UNL     1       8.643   5.446   2.896  0.00  0.00    +0.037 A 
ATOM     29  C   UNL     1       9.935   5.832   3.228  0.00  0.00    +0.023 A 
ATOM     30  C   UNL     1      10.194   6.377   4.471  0.00  0.00    +0.002 A 
ATOM     31  C   UNL     1       9.169   6.529   5.387  0.00  0.00    +0.000 A 
ATOM     32  C   UNL     1       7.883   6.141   5.061  0.00  0.00    +0.002 A 
ATOM     33  C   UNL     1       7.616   5.601   3.819  0.00  0.00    +0.023 A 
ENDBRANCH  25  28
BRANCH  25  35
ATOM     34  C   UNL     1      10.029   5.877   0.121  0.00  0.00    +0.025 C 
ATOM     35  C   UNL     1       9.481   4.583   0.727  0.00  0.00    +0.110 C 
ENDBRANCH  25  35
ENDBRANCH   1  26
TORSDOF 4
