REMARK  Name = ZINC50361976
REMARK  5 active torsions:
REMARK  status: ('A' for Active; 'I' for Inactive)
REMARK    1  A    between atoms: C_5  and  C_6
REMARK    2  A    between atoms: C_6  and  C_8
REMARK    3  A    between atoms: C_6  and  N_10
REMARK    4  A    between atoms: C_8  and  N_9
REMARK    5  A    between atoms: C_14  and  C_17
REMARK                            x       y       z     vdW  Elec       q    Type
REMARK                         _______ _______ _______ _____ _____    ______ ____
ROOT
ATOM      1  C   UNL     1      -1.224  -0.898   0.030  0.00  0.00    -0.019 C 
ENDROOT
BRANCH   1   6
ATOM      2  C   UNL     1      -3.326   0.420   0.569  0.00  0.00    +0.059 A 
ATOM      3  C   UNL     1      -4.265   1.174  -0.173  0.00  0.00    +0.070 A 
ATOM      4  C   UNL     1      -3.872   1.127  -1.461  0.00  0.00    +0.184 A 
ATOM      5  O   UNL     1      -2.752   0.389  -1.535  0.00  0.00    -0.454 OA
ATOM      6  C   UNL     1      -2.417  -0.042  -0.308  0.00  0.00    +0.092 A 
ATOM      7 BR   UNL     1      -4.748   1.959  -2.916  0.00  0.00    -0.007 Br
ATOM      8 BR   UNL     1      -5.781   2.075   0.510  0.00  0.00    -0.046 Br
ENDBRANCH   1   6
BRANCH   1   9
ATOM      9  N   UNL     1      -1.164  -2.040  -0.892  0.00  0.00    +0.385 N 
ATOM     10  C   UNL     1      -0.948  -1.553  -2.259  0.00  0.00    -0.078 C 
ATOM     11  C   UNL     1      -0.804  -2.742  -3.212  0.00  0.00    -0.018 C 
ATOM     12  C   UNL     1      -2.082  -3.584  -3.165  0.00  0.00    +0.008 C 
ATOM     13  C   UNL     1      -2.339  -4.025  -1.721  0.00  0.00    +0.077 C 
ATOM     14  C   UNL     1      -2.425  -2.788  -0.824  0.00  0.00    -0.066 C 
ATOM     15  H   UNL     1      -0.401  -2.645  -0.627  0.00  0.00    -0.081 HD
BRANCH  13  16
ATOM     16  C   UNL     1      -3.655  -4.802  -1.650  0.00  0.00    +0.391 C 
ATOM     17  F   UNL     1      -3.575  -5.930  -2.474  0.00  0.00    -0.171 F 
ATOM     18  F   UNL     1      -3.888  -5.204  -0.330  0.00  0.00    -0.171 F 
ATOM     19  F   UNL     1      -4.704  -3.983  -2.080  0.00  0.00    -0.171 F 
ENDBRANCH  13  16
ENDBRANCH   1   9
BRANCH   1  20
ATOM     20  C   UNL     1       0.054  -0.068  -0.104  0.00  0.00    -0.094 C 
BRANCH  20  21
ATOM     21  N   UNL     1       1.223  -0.927   0.127  0.00  0.00    +0.377 N 
ATOM     22  H   UNL     1       1.209  -1.266   1.077  0.00  0.00    -0.090 HD
ATOM     23  H   UNL     1       1.196  -1.709  -0.510  0.00  0.00    -0.090 HD
ATOM     24  H   UNL     1       2.067  -0.396  -0.029  0.00  0.00    -0.090 HD
ENDBRANCH  20  21
ENDBRANCH   1  20
TORSDOF 5
