REMARK  Name = ZINC09505399
REMARK  10 active torsions:
REMARK  status: ('A' for Active; 'I' for Inactive)
REMARK    1  A    between atoms: C_1  and  C_2
REMARK    2  A    between atoms: C_2  and  C_3
REMARK    3  A    between atoms: C_2  and  N_59
REMARK    4  A    between atoms: C_9  and  N_15
REMARK    5  A    between atoms: C_10  and  C_11
REMARK    6  A    between atoms: C_11  and  O_13
REMARK    7  A    between atoms: O_13  and  C_14
REMARK    8  A    between atoms: C_16  and  C_18
REMARK    9  A    between atoms: N_23  and  S_24
REMARK   10  A    between atoms: S_24  and  C_27
REMARK                            x       y       z     vdW  Elec       q    Type
REMARK                         _______ _______ _______ _____ _____    ______ ____
ROOT
ATOM      1  C   UNL     1      -7.678  -1.460  -3.596  0.00  0.00    -0.073 C 
ATOM      2  C   UNL     1      -7.173  -1.081  -2.201  0.00  0.00    +0.018 C 
ATOM      3  C   UNL     1      -5.651  -1.171  -2.206  0.00  0.00    -0.025 A 
ATOM      4  C   UNL     1      -5.016  -1.860  -3.180  0.00  0.00    -0.021 A 
ATOM      5  S   UNL     1      -3.296  -1.699  -2.800  0.00  0.00    -0.079 S 
ATOM      6  C   UNL     1      -3.416  -0.732  -1.367  0.00  0.00    +0.086 A 
ATOM      7  C   UNL     1      -4.787  -0.560  -1.214  0.00  0.00    +0.091 A 
ATOM      8  C   UNL     1      -5.660  -2.590  -4.317  0.00  0.00    -0.035 C 
ATOM      9  N   UNL     1      -7.097  -2.760  -3.991  0.00  0.00    +0.384 N 
ATOM     10  H   UNL     1      -7.187  -3.418  -3.208  0.00  0.00    -0.081 HD
ENDROOT
BRANCH   6  11
ATOM     11  N   UNL     1      -2.393  -0.251  -0.564  0.00  0.00    -0.278 N 
ATOM     12  C   UNL     1      -1.110  -0.527  -0.870  0.00  0.00    +0.236 C 
ATOM     13  O   UNL     1      -0.850  -1.196  -1.848  0.00  0.00    -0.274 OA
ATOM     14  H   UNL     1      -2.601   0.285   0.217  0.00  0.00    +0.155 HD
BRANCH  12  15
ATOM     15  C   UNL     1       0.002  -0.004   0.002  0.00  0.00    +0.166 C 
ATOM     16  C   UNL     1      -0.019   1.539   0.011  0.00  0.00    +0.031 C 
ATOM     17  C   UNL     1       1.488   1.907  -0.002  0.00  0.00    +0.019 C 
ATOM     18  C   UNL     1       2.075   0.785  -0.895  0.00  0.00    +0.110 C 
ATOM     19  N   UNL     1       1.303  -0.420  -0.543  0.00  0.00    -0.164 NA
BRANCH  19  20
ATOM     20  S   UNL     1       1.815  -1.984  -0.730  0.00  0.00    +0.068 S 
ATOM     21  O   UNL     1       3.236  -1.947  -0.736  0.00  0.00    -0.152 OA
ATOM     22  O   UNL     1       1.078  -2.767   0.199  0.00  0.00    -0.152 OA
BRANCH  20  23
ATOM     23  C   UNL     1       1.318  -2.506  -2.337  0.00  0.00    +0.143 A 
ATOM     24  C   UNL     1       1.987  -2.408  -3.512  0.00  0.00    +0.036 A 
ATOM     25  C   UNL     1       1.396  -2.896  -4.662  0.00  0.00    +0.010 A 
ATOM     26  C   UNL     1       0.161  -3.448  -4.584  0.00  0.00    +0.047 A 
ATOM     27  S   UNL     1      -0.202  -3.296  -2.842  0.00  0.00    -0.077 S 
ENDBRANCH  20  23
ENDBRANCH  19  20
ENDBRANCH  12  15
ENDBRANCH   6  11
BRANCH   9  29
ATOM     28  C   UNL     1      -7.186  -4.635  -5.565  0.00  0.00    -0.014 C 
ATOM     29  C   UNL     1      -7.820  -3.303  -5.161  0.00  0.00    -0.074 C 
ATOM     30  C   UNL     1      -9.284  -3.530  -4.778  0.00  0.00    -0.014 C 
ENDBRANCH   9  29
BRANCH   7  31
ATOM     31  C   UNL     1      -5.337   0.211  -0.097  0.00  0.00    +0.342 C 
ATOM     32  O   UNL     1      -5.521   1.407  -0.215  0.00  0.00    -0.245 OA
BRANCH  31  33
ATOM     33  O   UNL     1      -5.639  -0.406   1.064  0.00  0.00    -0.464 OA
ATOM     34  C   UNL     1      -6.181   0.420   2.128  0.00  0.00    +0.280 C 
ENDBRANCH  31  33
ENDBRANCH   7  31
TORSDOF 7
