REMARK  Name = ZINC37368758
REMARK  7 active torsions:
REMARK  status: ('A' for Active; 'I' for Inactive)
REMARK    1  A    between atoms: C_1  and  C_2
REMARK    2  A    between atoms: C_5  and  O_12
REMARK    3  A    between atoms: C_6  and  S_8
REMARK    4  A    between atoms: S_8  and  N_11
REMARK    5  A    between atoms: O_12  and  C_13
REMARK    6  A    between atoms: C_13  and  C_14
REMARK    7  A    between atoms: C_19  and  C_20
REMARK                            x       y       z     vdW  Elec       q    Type
REMARK                         _______ _______ _______ _____ _____    ______ ____
ROOT
ATOM      1  C   UNL     1      -0.018   1.503   0.010  0.00  0.00    +0.044 C 
ATOM      2  C   UNL     1       0.002  -0.004   0.002  0.00  0.00    -0.048 A 
ATOM      3  C   UNL     1       0.006  -0.688  -1.200  0.00  0.00    +0.007 A 
ATOM      4  C   UNL     1       0.024  -2.069  -1.210  0.00  0.00    +0.048 A 
ATOM      5  C   UNL     1       0.039  -2.770  -0.013  0.00  0.00    +0.147 A 
ATOM      6  C   UNL     1       0.036  -2.082   1.191  0.00  0.00    +0.147 A 
ATOM      7  C   UNL     1       0.023  -0.701   1.196  0.00  0.00    +0.035 A 
ENDROOT
BRANCH   6   8
ATOM      8  S   UNL     1       0.055  -2.969   2.713  0.00  0.00    +0.059 S 
ATOM      9  O   UNL     1       1.093  -3.934   2.608  0.00  0.00    -0.153 OA
ATOM     10  O   UNL     1       0.020  -1.998   3.750  0.00  0.00    -0.153 OA
BRANCH   8  11
ATOM     11  N   UNL     1      -1.367  -3.812   2.807  0.00  0.00    -0.203 NA
ATOM     12  H   UNL     1      -1.401  -4.654   3.287  0.00  0.00    +0.144 HD
ATOM     13  H   UNL     1      -2.166  -3.464   2.382  0.00  0.00    +0.144 HD
ENDBRANCH   8  11
ENDBRANCH   6   8
BRANCH   5  14
ATOM     14  O   UNL     1       0.057  -4.129  -0.021  0.00  0.00    -0.485 OA
BRANCH  14  15
ATOM     15  C   UNL     1       0.058  -4.771  -1.298  0.00  0.00    +0.265 C 
BRANCH  15  16
ATOM     16  C   UNL     1       0.079  -6.266  -1.108  0.00  0.00    -0.007 A 
ATOM     17  C   UNL     1       0.086  -6.801   0.166  0.00  0.00    +0.007 A 
ATOM     18  C   UNL     1       0.105  -8.172   0.340  0.00  0.00    +0.000 A 
ATOM     19  C   UNL     1       0.116  -9.008  -0.761  0.00  0.00    +0.000 A 
ATOM     20  C   UNL     1       0.107  -8.473  -2.035  0.00  0.00    +0.004 A 
ATOM     21  C   UNL     1       0.084  -7.102  -2.209  0.00  0.00    -0.044 A 
ATOM     22  C   UNL     1       0.069  -6.518  -3.598  0.00  0.00    +0.044 C 
ENDBRANCH  15  16
ENDBRANCH  14  15
ENDBRANCH   5  14
TORSDOF 5
