REMARK  Name = ZINC09124653
REMARK  8 active torsions:
REMARK  status: ('A' for Active; 'I' for Inactive)
REMARK    1  A    between atoms: C_4  and  O_7
REMARK    2  A    between atoms: O_7  and  C_8
REMARK    3  A    between atoms: C_12  and  C_14
REMARK    4  A    between atoms: C_17  and  C_28
REMARK    5  A    between atoms: N_24  and  C_25
REMARK    6  A    between atoms: C_25  and  C_26
REMARK    7  A    between atoms: C_26  and  O_27
REMARK    8  A    between atoms: C_33  and  O_34
REMARK                            x       y       z     vdW  Elec       q    Type
REMARK                         _______ _______ _______ _____ _____    ______ ____
ROOT
ATOM      1  C   UNL     1       6.241  -4.494   0.260  0.00  0.00    +0.141 C 
ATOM      2  C   UNL     1       6.709  -4.748  -1.146  0.00  0.00    +0.035 A 
ATOM      3  C   UNL     1       7.028  -4.232  -2.361  0.00  0.00    +0.075 A 
ATOM      4  N   UNL     1       7.395  -5.284  -3.151  0.00  0.00    -0.276 N 
ATOM      5  H   UNL     1       7.676  -5.214  -4.077  0.00  0.00    +0.189 HD
ATOM      6  N   UNL     1       7.314  -6.380  -2.484  0.00  0.00    -0.168 NA
ATOM      7  C   UNL     1       6.904  -6.144  -1.254  0.00  0.00    +0.153 A 
ATOM      8  C   UNL     1       6.569  -6.750   0.047  0.00  0.00    +0.268 C 
ATOM      9  O   UNL     1       6.629  -7.938   0.295  0.00  0.00    -0.268 OA
ATOM     10  N   UNL     1       6.187  -5.802   0.922  0.00  0.00    -0.283 N 
ENDROOT
BRANCH   1  15
ATOM     11  C   UNL     1       3.457  -1.959   0.584  0.00  0.00    +0.129 A 
ATOM     12  C   UNL     1       2.354  -2.715   0.213  0.00  0.00    +0.046 A 
ATOM     13  C   UNL     1       2.514  -4.040  -0.141  0.00  0.00    +0.004 A 
ATOM     14  C   UNL     1       3.772  -4.615  -0.125  0.00  0.00    +0.006 A 
ATOM     15  C   UNL     1       4.872  -3.864   0.244  0.00  0.00    -0.019 A 
ATOM     16  C   UNL     1       4.719  -2.536   0.593  0.00  0.00    +0.052 A 
BRANCH  11  17
ATOM     17  O   UNL     1       3.303  -0.655   0.932  0.00  0.00    -0.456 OA
BRANCH  17  21
ATOM     18  C   UNL     1       2.210   0.196   4.819  0.00  0.00    +0.000 A 
ATOM     19  C   UNL     1       2.350  -1.119   4.413  0.00  0.00    +0.004 A 
ATOM     20  C   UNL     1       2.715  -1.407   3.112  0.00  0.00    +0.046 A 
ATOM     21  C   UNL     1       2.942  -0.375   2.212  0.00  0.00    +0.128 A 
ATOM     22  C   UNL     1       2.802   0.943   2.622  0.00  0.00    +0.046 A 
ATOM     23  C   UNL     1       2.436   1.225   3.924  0.00  0.00    +0.004 A 
ENDBRANCH  17  21
ENDBRANCH  11  17
ENDBRANCH   1  15
BRANCH   3  24
ATOM     24  C   UNL     1       6.986  -2.806  -2.754  0.00  0.00    +0.042 A 
ATOM     25  C   UNL     1       6.084  -2.373  -3.726  0.00  0.00    +0.013 A 
ATOM     26  C   UNL     1       6.049  -1.042  -4.087  0.00  0.00    +0.001 A 
ATOM     27  C   UNL     1       6.905  -0.134  -3.489  0.00  0.00    +0.004 A 
ATOM     28  C   UNL     1       7.803  -0.551  -2.525  0.00  0.00    +0.046 A 
ATOM     29  C   UNL     1       7.846  -1.884  -2.147  0.00  0.00    +0.126 A 
BRANCH  29  30
ATOM     30  O   UNL     1       8.723  -2.294  -1.195  0.00  0.00    -0.506 OA
ATOM     31  H   UNL     1       9.583  -2.567  -1.544  0.00  0.00    +0.292 HD
ENDBRANCH  29  30
ENDBRANCH   3  24
BRANCH  10  32
ATOM     32  C   UNL     1       5.783  -6.037   2.311  0.00  0.00    +0.137 C 
BRANCH  32  33
ATOM     33  C   UNL     1       7.024  -6.068   3.205  0.00  0.00    +0.175 C 
BRANCH  33  34
ATOM     34  O   UNL     1       7.648  -4.782   3.198  0.00  0.00    -0.393 OA
ATOM     35  H   UNL     1       8.443  -4.728   3.745  0.00  0.00    +0.209 HD
ENDBRANCH  33  34
ENDBRANCH  32  33
ENDBRANCH  10  32
TORSDOF 8
