REMARK  Name = ZINC01056256
REMARK  4 active torsions:
REMARK  status: ('A' for Active; 'I' for Inactive)
REMARK    1  A    between atoms: C_1  and  C_2
REMARK    2  A    between atoms: C_9  and  N_14
REMARK    3  A    between atoms: C_10  and  C_11
REMARK    4  A    between atoms: C_15  and  C_17
REMARK                            x       y       z     vdW  Elec       q    Type
REMARK                         _______ _______ _______ _____ _____    ______ ____
ROOT
ATOM      1  C   UNL     1      -8.917  -4.495   0.164  0.00  0.00    +0.008 C 
ATOM      2  C   UNL     1      -7.930  -3.360   0.443  0.00  0.00    -0.009 C 
ATOM      3  C   UNL     1      -8.311  -2.129  -0.383  0.00  0.00    +0.008 C 
ATOM      4  C   UNL     1      -7.489  -0.922   0.072  0.00  0.00    +0.037 C 
ATOM      5  C   UNL     1      -6.013  -1.300   0.056  0.00  0.00    -0.023 A 
ATOM      6  C   UNL     1      -5.626  -2.595   0.045  0.00  0.00    -0.004 A 
ATOM      7  S   UNL     1      -3.857  -2.539   0.027  0.00  0.00    -0.077 S 
ATOM      8  C   UNL     1      -3.631  -0.821   0.034  0.00  0.00    +0.085 A 
ATOM      9  C   UNL     1      -4.930  -0.331   0.055  0.00  0.00    +0.068 A 
ATOM     10  C   UNL     1      -6.513  -3.802   0.049  0.00  0.00    +0.046 C 
ENDROOT
BRANCH   9  11
ATOM     11  C   UNL     1      -5.199   1.110   0.072  0.00  0.00    +0.244 C 
ATOM     12  O   UNL     1      -5.325   1.718  -0.975  0.00  0.00    -0.270 OA
ATOM     13  N   UNL     1      -5.308   1.761   1.247  0.00  0.00    -0.325 N 
ATOM     14  H   UNL     1      -5.207   1.277   2.081  0.00  0.00    +0.145 HD
ATOM     15  H   UNL     1      -5.486   2.715   1.258  0.00  0.00    +0.145 HD
ENDBRANCH   9  11
BRANCH   8  16
ATOM     16  N   UNL     1      -2.443  -0.109   0.026  0.00  0.00    -0.275 N 
ATOM     17  C   UNL     1      -1.265  -0.763   0.011  0.00  0.00    +0.250 C 
ATOM     18  O   UNL     1      -1.245  -1.979   0.004  0.00  0.00    -0.270 OA
ATOM     19  H   UNL     1      -2.459   0.861   0.031  0.00  0.00    +0.156 HD
BRANCH  17  20
ATOM     20  C   UNL     1       0.002  -0.004   0.002  0.00  0.00    +0.056 A 
ATOM     21  C   UNL     1      -0.017   1.392   0.010  0.00  0.00    +0.029 A 
ATOM     22  C   UNL     1       1.170   2.095   0.002  0.00  0.00    +0.019 A 
ATOM     23  C   UNL     1       2.379   1.419  -0.013  0.00  0.00    +0.017 A 
ATOM     24  C   UNL     1       2.406   0.037  -0.021  0.00  0.00    +0.022 A 
ATOM     25  C   UNL     1       1.225  -0.680  -0.013  0.00  0.00    +0.053 A 
ATOM     26 CL   UNL     1       1.260  -2.415  -0.022  0.00  0.00    -0.083 Cl
ATOM     27 BR   UNL     1       1.147   3.986   0.012  0.00  0.00    -0.050 Br
ENDBRANCH  17  20
ENDBRANCH   8  16
TORSDOF 3
