REMARK  Name = ZINC66739048
REMARK  5 active torsions:
REMARK  status: ('A' for Active; 'I' for Inactive)
REMARK    1  A    between atoms: C_1  and  C_2
REMARK    2  A    between atoms: C_2  and  C_3
REMARK    3  A    between atoms: C_2  and  C_4
REMARK    4  A    between atoms: C_2  and  O_5
REMARK    5  A    between atoms: O_5  and  C_6
REMARK                            x       y       z     vdW  Elec       q    Type
REMARK                         _______ _______ _______ _____ _____    ______ ____
ROOT
ATOM      1  C   UNL     1       1.952  -0.085  -1.337  0.00  0.00    +0.403 C 
ATOM      2  O   UNL     1       2.488   0.619  -0.503  0.00  0.00    -0.226 OA
ATOM      3  N   UNL     1       2.641  -0.485  -2.424  0.00  0.00    -0.264 N 
ATOM      4  C   UNL     1       2.005  -1.331  -3.443  0.00  0.00    +0.111 C 
ATOM      5  C   UNL     1       2.874  -2.572  -3.667  0.00  0.00    +0.023 C 
ATOM      6  C   UNL     1       4.300  -2.135  -4.013  0.00  0.00    +0.049 C 
ATOM      7  C   UNL     1       4.888  -1.338  -2.846  0.00  0.00    +0.115 C 
ATOM      8  C   UNL     1       4.039  -0.078  -2.615  0.00  0.00    +0.156 C 
ATOM      9  N   UNL     1       6.261  -0.940  -3.178  0.00  0.00    -0.322 N 
ATOM     10  C   UNL     1       7.270  -1.894  -3.100  0.00  0.00    +0.042 A 
ATOM     11  C   UNL     1       8.394  -1.834  -3.905  0.00  0.00    +0.043 A 
ATOM     12  C   UNL     1       9.377  -2.799  -3.780  0.00  0.00    +0.043 A 
ATOM     13  C   UNL     1       9.246  -3.823  -2.853  0.00  0.00    +0.021 A 
ATOM     14  C   UNL     1       8.129  -3.899  -2.048  0.00  0.00    +0.016 A 
ATOM     15  C   UNL     1       7.127  -2.938  -2.169  0.00  0.00    +0.058 A 
ATOM     16  C   UNL     1       5.903  -2.992  -1.351  0.00  0.00    +0.247 C 
ATOM     17  O   UNL     1       5.816  -3.778  -0.427  0.00  0.00    -0.270 OA
ATOM     18  N   UNL     1       4.879  -2.163  -1.637  0.00  0.00    -0.289 N 
ATOM     19 CL   UNL     1      10.788  -2.727  -4.789  0.00  0.00    -0.083 Cl
ATOM     20  H   UNL     1       6.461  -0.029  -3.447  0.00  0.00    +0.148 HD
ATOM     21  H   UNL     1       4.124  -2.112  -1.031  0.00  0.00    +0.151 HD
ENDROOT
BRANCH   1  22
ATOM     22  O   UNL     1       0.671  -0.465  -1.174  0.00  0.00    -0.445 OA
BRANCH  22  24
ATOM     23  C   UNL     1      -0.019   1.526   0.010  0.00  0.00    +0.055 C 
ATOM     24  C   UNL     1       0.002  -0.004   0.002  0.00  0.00    +0.107 C 
ATOM     25  C   UNL     1       0.742  -0.511   1.242  0.00  0.00    +0.055 C 
ATOM     26  C   UNL     1      -1.433  -0.534   0.013  0.00  0.00    +0.055 C 
ENDBRANCH  22  24
ENDBRANCH   1  22
TORSDOF 2
