REMARK  Name = ZINC09292960
REMARK  18 active torsions:
REMARK  status: ('A' for Active; 'I' for Inactive)
REMARK    1  A    between atoms: C_1  and  C_2
REMARK    2  A    between atoms: C_2  and  N_71
REMARK    3  A    between atoms: C_3  and  C_4
REMARK    4  A    between atoms: C_3  and  N_71
REMARK    5  A    between atoms: C_5  and  C_6
REMARK    6  A    between atoms: C_5  and  N_71
REMARK    7  A    between atoms: C_6  and  C_7
REMARK    8  A    between atoms: C_7  and  N_8
REMARK    9  A    between atoms: C_9  and  C_25
REMARK   10  A    between atoms: C_11  and  C_16
REMARK   11  A    between atoms: C_12  and  O_15
REMARK   12  A    between atoms: C_16  and  C_18
REMARK   13  A    between atoms: C_19  and  C_24
REMARK   14  A    between atoms: C_21  and  C_23
REMARK   15  A    between atoms: C_28  and  C_31
REMARK   16  A    between atoms: C_31  and  C_32
REMARK   17  A    between atoms: C_31  and  C_33
REMARK   18  A    between atoms: C_31  and  C_34
REMARK                            x       y       z     vdW  Elec       q    Type
REMARK                         _______ _______ _______ _____ _____    ______ ____
ROOT
ATOM      1  N   UNL     1       4.975   4.669   0.127  0.00  0.00    -0.284 N 
ATOM      2  C   UNL     1       3.670   3.998   0.150  0.00  0.00    +0.144 C 
ATOM      3  C   UNL     1       2.633   5.094   0.067  0.00  0.00    +0.072 C 
ATOM      4  C   UNL     1       3.306   6.266   0.012  0.00  0.00    +0.188 C 
ATOM      5  C   UNL     1       4.758   5.994   0.050  0.00  0.00    +0.282 C 
ATOM      6  O   UNL     1       5.627   6.843   0.016  0.00  0.00    -0.267 OA
ENDROOT
BRANCH   2   7
ATOM      7  C   UNL     1       3.544   3.075  -1.035  0.00  0.00    -0.022 A 
ATOM      8  C   UNL     1       4.047   3.456  -2.265  0.00  0.00    +0.006 A 
ATOM      9  C   UNL     1       3.935   2.607  -3.350  0.00  0.00    +0.004 A 
ATOM     10  C   UNL     1       3.312   1.381  -3.208  0.00  0.00    -0.042 A 
ATOM     11  C   UNL     1       2.805   1.003  -1.979  0.00  0.00    +0.004 A 
ATOM     12  C   UNL     1       2.920   1.850  -0.892  0.00  0.00    +0.006 A 
BRANCH  10  13
ATOM     13  C   UNL     1       3.187   0.458  -4.392  0.00  0.00    -0.013 C 
ATOM     14  C   UNL     1       1.708   0.184  -4.671  0.00  0.00    +0.015 C 
ATOM     15  C   UNL     1       3.826   1.112  -5.619  0.00  0.00    +0.015 C 
ATOM     16  C   UNL     1       3.901  -0.861  -4.087  0.00  0.00    +0.015 C 
ENDBRANCH  10  13
ENDBRANCH   2   7
BRANCH   4  17
ATOM     17  O   UNL     1       2.740   7.493  -0.065  0.00  0.00    -0.502 OA
ATOM     18  H   UNL     1       3.457   8.190  -0.092  0.00  0.00    +0.292 HD
ENDBRANCH   4  17
BRANCH   3  19
ATOM     19  C   UNL     1       1.175   4.921   0.055  0.00  0.00    +0.203 C 
ATOM     20  O   UNL     1       0.535   5.214  -0.940  0.00  0.00    -0.286 OA
BRANCH  19  21
ATOM     21  C   UNL     1       0.489   4.395   1.239  0.00  0.00    +0.082 A 
ATOM     22  C   UNL     1      -0.869   4.225   1.478  0.00  0.00    +0.057 A 
ATOM     23  N   UNL     1      -1.224   3.728   2.634  0.00  0.00    -0.249 NA
ATOM     24  C   UNL     1      -0.338   3.395   3.549  0.00  0.00    +0.076 A 
ATOM     25  S   UNL     1       1.167   3.793   2.780  0.00  0.00    -0.069 S 
ATOM     26  C   UNL     1      -0.571   2.815   4.920  0.00  0.00    +0.073 C 
ATOM     27  C   UNL     1      -1.896   4.594   0.439  0.00  0.00    +0.067 C 
ENDBRANCH  19  21
ENDBRANCH   3  19
BRANCH   1  28
ATOM     28  C   UNL     1       6.283   4.012   0.184  0.00  0.00    +0.107 C 
BRANCH  28  29
ATOM     29  C   UNL     1       6.716   3.863   1.644  0.00  0.00    +0.000 C 
BRANCH  29  30
ATOM     30  C   UNL     1       8.082   3.177   1.704  0.00  0.00    -0.077 C 
BRANCH  30  31
ATOM     31  N   UNL     1       8.472   3.021   3.121  0.00  0.00    +0.379 N 
ATOM     32  H   UNL     1       8.231   3.880   3.630  0.00  0.00    -0.082 HD
BRANCH  31  34
ATOM     33  C   UNL     1       7.992   1.884   5.233  0.00  0.00    -0.017 C 
ATOM     34  C   UNL     1       7.743   1.885   3.723  0.00  0.00    -0.082 C 
ENDBRANCH  31  34
BRANCH  31  35
ATOM     35  C   UNL     1       9.930   2.797   3.222  0.00  0.00    -0.082 C 
ATOM     36  C   UNL     1      10.645   4.138   3.051  0.00  0.00    -0.017 C 
ENDBRANCH  31  35
ENDBRANCH  30  31
ENDBRANCH  29  30
ENDBRANCH  28  29
ENDBRANCH   1  28
TORSDOF 11
