REMARK  Name = ZINC35745191
REMARK  15 active torsions:
REMARK  status: ('A' for Active; 'I' for Inactive)
REMARK    1  A    between atoms: C_1  and  C_2
REMARK    2  A    between atoms: C_2  and  C_3
REMARK    3  A    between atoms: C_3  and  N_4
REMARK    4  A    between atoms: N_4  and  C_5
REMARK    5  A    between atoms: N_4  and  C_16
REMARK    6  A    between atoms: C_5  and  C_6
REMARK    7  A    between atoms: C_10  and  O_14
REMARK    8  A    between atoms: C_11  and  O_12
REMARK    9  A    between atoms: O_12  and  C_13
REMARK   10  A    between atoms: O_14  and  C_15
REMARK   11  A    between atoms: C_16  and  C_17
REMARK   12  A    between atoms: C_20  and  C_22
REMARK   13  A    between atoms: C_22  and  C_23
REMARK   14  A    between atoms: C_22  and  C_30
REMARK   15  A    between atoms: C_22  and  O_37
REMARK                            x       y       z     vdW  Elec       q    Type
REMARK                         _______ _______ _______ _____ _____    ______ ____
ROOT
ATOM      1  C   UNL     1       0.599  -1.927   0.588  0.00  0.00    +0.089 A 
ATOM      2  C   UNL     1       0.782  -0.617   0.836  0.00  0.00    +0.043 A 
ATOM      3  C   UNL     1       2.178  -0.392   0.834  0.00  0.00    +0.048 A 
ATOM      4  C   UNL     1       2.764  -1.577   0.587  0.00  0.00    +0.146 A 
ATOM      5  O   UNL     1       1.803  -2.504   0.444  0.00  0.00    -0.463 OA
ENDROOT
BRANCH   1   6
ATOM      6  C   UNL     1      -0.732  -2.628   0.495  0.00  0.00    -0.003 C 
BRANCH   6   7
ATOM      7  N   UNL     1      -1.286  -2.450  -0.853  0.00  0.00    +0.387 N 
ATOM      8  H   UNL     1      -1.358  -1.465  -1.060  0.00  0.00    -0.081 HD
BRANCH   7   9
ATOM      9  C   UNL     1      -2.619  -3.063  -0.920  0.00  0.00    -0.078 C 
BRANCH   9  11
ATOM     10  C   UNL     1      -4.997  -2.846  -0.183  0.00  0.00    +0.002 C 
ATOM     11  C   UNL     1      -3.581  -2.293  -0.012  0.00  0.00    -0.022 C 
ENDBRANCH   9  11
ENDBRANCH   7   9
BRANCH   7  12
ATOM     12  C   UNL     1      -0.402  -3.093  -1.835  0.00  0.00    -0.039 C 
BRANCH  12  13
ATOM     13  C   UNL     1      -0.904  -2.806  -3.226  0.00  0.00    -0.019 A 
ATOM     14  C   UNL     1      -1.646  -3.756  -3.903  0.00  0.00    +0.005 A 
ATOM     15  C   UNL     1      -2.108  -3.497  -5.180  0.00  0.00    +0.004 A 
ATOM     16  C   UNL     1      -1.829  -2.285  -5.786  0.00  0.00    +0.049 A 
ATOM     17  C   UNL     1      -1.086  -1.329  -5.114  0.00  0.00    +0.162 A 
ATOM     18  C   UNL     1      -0.626  -1.588  -3.825  0.00  0.00    +0.163 A 
BRANCH  18  19
ATOM     19  O   UNL     1       0.099  -0.650  -3.159  0.00  0.00    -0.491 OA
ATOM     20  C   UNL     1       1.517  -0.687  -3.328  0.00  0.00    +0.277 C 
ENDBRANCH  18  19
BRANCH  17  21
ATOM     21  O   UNL     1      -0.811  -0.137  -5.708  0.00  0.00    -0.491 OA
ATOM     22  C   UNL     1      -1.320   0.062  -7.029  0.00  0.00    +0.277 C 
ENDBRANCH  17  21
ENDBRANCH  12  13
ENDBRANCH   7  12
ENDBRANCH   6   7
ENDBRANCH   1   6
BRANCH   4  23
ATOM     23  C   UNL     1       4.247  -1.824   0.490  0.00  0.00    +0.174 C 
BRANCH  23  24
ATOM     24  C   UNL     1       4.552  -3.232   0.933  0.00  0.00    -0.004 A 
ATOM     25  C   UNL     1       5.378  -3.451   2.020  0.00  0.00    +0.010 A 
ATOM     26  C   UNL     1       5.657  -4.742   2.427  0.00  0.00    +0.039 A 
ATOM     27  C   UNL     1       5.111  -5.816   1.745  0.00  0.00    +0.123 A 
ATOM     28  C   UNL     1       4.284  -5.595   0.656  0.00  0.00    +0.039 A 
ATOM     29  C   UNL     1       4.002  -4.303   0.254  0.00  0.00    +0.010 A 
ATOM     30  F   UNL     1       5.384  -7.078   2.141  0.00  0.00    -0.205 F 
ENDBRANCH  23  24
BRANCH  23  31
ATOM     31  C   UNL     1       4.697  -1.637  -0.936  0.00  0.00    -0.004 A 
ATOM     32  C   UNL     1       3.997  -2.240  -1.965  0.00  0.00    +0.010 A 
ATOM     33  C   UNL     1       4.408  -2.069  -3.273  0.00  0.00    +0.039 A 
ATOM     34  C   UNL     1       5.520  -1.294  -3.553  0.00  0.00    +0.123 A 
ATOM     35  C   UNL     1       6.220  -0.690  -2.522  0.00  0.00    +0.039 A 
ATOM     36  C   UNL     1       5.804  -0.858  -1.215  0.00  0.00    +0.010 A 
ATOM     37  F   UNL     1       5.923  -1.126  -4.832  0.00  0.00    -0.205 F 
ENDBRANCH  23  31
BRANCH  23  38
ATOM     38  O   UNL     1       4.939  -0.900   1.333  0.00  0.00    -0.372 OA
ATOM     39  H   UNL     1       4.789   0.028   1.105  0.00  0.00    +0.212 HD
ENDBRANCH  23  38
ENDBRANCH   4  23
TORSDOF 12
