REMARK  Name = ZINC01192733
REMARK  5 active torsions:
REMARK  status: ('A' for Active; 'I' for Inactive)
REMARK    1  A    between atoms: C_5  and  N_7
REMARK    2  A    between atoms: C_8  and  C_10
REMARK    3  A    between atoms: C_10  and  S_11
REMARK    4  A    between atoms: S_11  and  C_12
REMARK    5  A    between atoms: C_18  and  N_22
REMARK                            x       y       z     vdW  Elec       q    Type
REMARK                         _______ _______ _______ _____ _____    ______ ____
ROOT
ATOM      1  S   UNL     1       3.836   0.854  -0.053  0.00  0.00    -0.079 S 
ENDROOT
BRANCH   1   2
ATOM      2  C   UNL     1       2.075   0.778  -0.050  0.00  0.00    +0.168 A 
ATOM      3  N   UNL     1       1.339  -0.373  -0.058  0.00  0.00    -0.333 N 
ATOM      4  H   UNL     1       1.698  -1.306  -0.066  0.00  0.00    +0.168 HD
ATOM      5  C   UNL     1       0.003  -0.006  -0.052  0.00  0.00    +0.067 A 
ATOM      6  C   UNL     1      -1.188  -0.715  -0.055  0.00  0.00    +0.030 A 
ATOM      7  C   UNL     1      -2.390  -0.038  -0.047  0.00  0.00    +0.035 A 
ATOM      8  C   UNL     1      -2.416   1.349  -0.036  0.00  0.00    +0.128 A 
ATOM      9  C   UNL     1      -1.242   2.069  -0.028  0.00  0.00    +0.062 A 
ATOM     10  C   UNL     1      -0.016   1.399  -0.041  0.00  0.00    +0.092 A 
ATOM     11  N   UNL     1       1.276   1.817  -0.041  0.00  0.00    -0.222 NA
BRANCH   8  12
ATOM     12  N   UNL     1      -3.714   2.060  -0.029  0.00  0.00    +0.056 N 
ATOM     13  O   UNL     1      -4.755   1.428  -0.032  0.00  0.00    -0.126 OA
ATOM     14  O   UNL     1      -3.741   3.278  -0.020  0.00  0.00    -0.126 OA
ENDBRANCH   8  12
ENDBRANCH   1   2
BRANCH   1  15
ATOM     15  C   UNL     1       4.073   2.649  -0.040  0.00  0.00    +0.173 C 
BRANCH  15  17
ATOM     16  N   UNL     1       5.965   4.242  -0.031  0.00  0.00    -0.284 N 
ATOM     17  C   UNL     1       5.547   2.961  -0.040  0.00  0.00    +0.228 C 
ATOM     18  O   UNL     1       6.358   2.059  -0.048  0.00  0.00    -0.275 OA
ATOM     19  H   UNL     1       5.318   4.963  -0.091  0.00  0.00    +0.155 HD
BRANCH  16  24
ATOM     20  C   UNL     1       9.609   3.990  -0.448  0.00  0.00    +0.002 A 
ATOM     21  C   UNL     1      10.031   5.106   0.252  0.00  0.00    +0.001 A 
ATOM     22  C   UNL     1       9.107   5.935   0.859  0.00  0.00    +0.017 A 
ATOM     23  C   UNL     1       7.757   5.652   0.767  0.00  0.00    +0.039 A 
ATOM     24  C   UNL     1       7.330   4.533   0.064  0.00  0.00    +0.047 A 
ATOM     25  C   UNL     1       8.262   3.699  -0.540  0.00  0.00    +0.024 A 
ATOM     26 BR   UNL     1       6.493   6.787   1.598  0.00  0.00    -0.048 Br
ENDBRANCH  16  24
ENDBRANCH  15  17
ENDBRANCH   1  15
TORSDOF 5
