REMARK  Name = ZINC65084524
REMARK  7 active torsions:
REMARK  status: ('A' for Active; 'I' for Inactive)
REMARK    1  A    between atoms: C_1  and  C_2
REMARK    2  A    between atoms: C_5  and  C_9
REMARK    3  A    between atoms: C_6  and  C_8
REMARK    4  A    between atoms: C_15  and  C_17
REMARK    5  A    between atoms: C_17  and  C_18
REMARK    6  A    between atoms: C_17  and  N_23
REMARK    7  A    between atoms: C_24  and  C_26
REMARK                            x       y       z     vdW  Elec       q    Type
REMARK                         _______ _______ _______ _____ _____    ______ ____
ROOT
ATOM      1  C   UNL     1       2.027  -4.560  -0.941  0.00  0.00    +0.134 A 
ATOM      2  N   UNL     1       1.575  -5.151   0.158  0.00  0.00    -0.140 NA
ATOM      3  N   UNL     1       1.239  -6.368   0.100  0.00  0.00    -0.125 NA
ATOM      4  C   UNL     1       1.327  -7.065  -1.017  0.00  0.00    +0.188 A 
ATOM      5  S   UNL     1       1.927  -5.918  -2.098  0.00  0.00    -0.030 S 
ATOM      6  N   UNL     1       1.003  -8.397  -1.246  0.00  0.00    -0.262 N 
ATOM      7  C   UNL     1       0.525  -9.156  -0.240  0.00  0.00    +0.239 C 
ATOM      8  O   UNL     1       0.466  -8.706   0.885  0.00  0.00    -0.273 OA
ATOM      9  H   UNL     1       1.120  -8.780  -2.129  0.00  0.00    +0.157 HD
ENDROOT
BRANCH   1  14
ATOM     10  C   UNL     1       3.791   0.857  -1.754  0.00  0.00    +0.044 C 
ATOM     11  C   UNL     1       3.329  -0.561  -1.541  0.00  0.00    -0.050 A 
ATOM     12  C   UNL     1       3.338  -1.455  -2.598  0.00  0.00    +0.004 A 
ATOM     13  C   UNL     1       2.917  -2.755  -2.410  0.00  0.00    +0.011 A 
ATOM     14  C   UNL     1       2.481  -3.168  -1.150  0.00  0.00    +0.012 A 
ATOM     15  C   UNL     1       2.474  -2.262  -0.088  0.00  0.00    -0.040 A 
ATOM     16  C   UNL     1       2.903  -0.966  -0.289  0.00  0.00    +0.007 A 
ATOM     17  C   UNL     1       2.005  -2.700   1.275  0.00  0.00    +0.044 C 
ENDBRANCH   1  14
BRANCH   7  18
ATOM     18  C   UNL     1       0.065 -10.565  -0.512  0.00  0.00    +0.162 C 
BRANCH  18  19
ATOM     19  C   UNL     1      -1.252 -10.530  -1.290  0.00  0.00    +0.018 C 
ATOM     20  C   UNL     1      -2.377  -9.962  -0.400  0.00  0.00    +0.006 C 
ATOM     21  C   UNL     1      -3.626 -10.790  -0.791  0.00  0.00    +0.000 C 
ATOM     22  C   UNL     1      -3.042 -12.209  -1.006  0.00  0.00    +0.000 C 
ATOM     23  C   UNL     1      -1.675 -11.959  -1.675  0.00  0.00    +0.006 C 
ENDBRANCH  18  19
BRANCH  18  24
ATOM     24  N   UNL     1      -0.136 -11.267   0.757  0.00  0.00    -0.304 N 
ATOM     25  C   UNL     1       0.059 -12.599   0.829  0.00  0.00    +0.211 C 
ATOM     26  O   UNL     1       0.465 -13.206  -0.139  0.00  0.00    -0.276 OA
ATOM     27  C   UNL     1      -0.228 -13.334   2.113  0.00  0.00    +0.109 C 
ATOM     28  H   UNL     1      -0.410 -10.774   1.546  0.00  0.00    +0.149 HD
ENDBRANCH  18  24
ENDBRANCH   7  18
TORSDOF 4
