REMARK  Name = ZINC09793566
REMARK  8 active torsions:
REMARK  status: ('A' for Active; 'I' for Inactive)
REMARK    1  A    between atoms: C_1  and  C_2
REMARK    2  A    between atoms: C_2  and  C_3
REMARK    3  A    between atoms: C_3  and  C_4
REMARK    4  A    between atoms: C_4  and  N_5
REMARK    5  A    between atoms: C_9  and  S_24
REMARK    6  A    between atoms: C_13  and  C_14
REMARK    7  A    between atoms: C_14  and  N_65
REMARK    8  A    between atoms: S_24  and  N_27
REMARK                            x       y       z     vdW  Elec       q    Type
REMARK                         _______ _______ _______ _____ _____    ______ ____
ROOT
ATOM      1  N   UNL     1      -3.188   2.765   4.775  0.00  0.00    -0.329 N 
ATOM      2  C   UNL     1      -2.342   2.685   3.687  0.00  0.00    +0.069 A 
ATOM      3  C   UNL     1      -1.417   3.548   3.116  0.00  0.00    +0.030 A 
ATOM      4  C   UNL     1      -0.711   3.151   2.000  0.00  0.00    +0.030 A 
ATOM      5  C   UNL     1      -0.927   1.900   1.439  0.00  0.00    +0.108 A 
ATOM      6  C   UNL     1      -1.833   1.038   1.988  0.00  0.00    +0.058 A 
ATOM      7  C   UNL     1      -2.557   1.416   3.122  0.00  0.00    +0.091 A 
ATOM      8  N   UNL     1      -3.502   0.801   3.878  0.00  0.00    -0.234 NA
ATOM      9  C   UNL     1      -3.870   1.590   4.845  0.00  0.00    +0.094 A 
ENDROOT
BRANCH   5  10
ATOM     10  S   UNL     1      -0.017   1.417   0.010  0.00  0.00    +0.061 S 
ATOM     11  O   UNL     1       0.002  -0.004   0.002  0.00  0.00    -0.153 OA
ATOM     12  O   UNL     1       1.172   2.195   0.003  0.00  0.00    -0.153 OA
BRANCH  10  13
ATOM     13  N   UNL     1      -0.897   1.885  -1.312  0.00  0.00    -0.172 NA
ATOM     14  C   UNL     1      -1.888   0.984  -1.921  0.00  0.00    +0.137 C 
ATOM     15  C   UNL     1      -3.209   1.756  -2.073  0.00  0.00    +0.177 C 
ATOM     16  O   UNL     1      -2.958   2.982  -2.764  0.00  0.00    -0.377 OA
ATOM     17  C   UNL     1      -2.082   3.875  -2.072  0.00  0.00    +0.177 C 
ATOM     18  C   UNL     1      -0.708   3.214  -1.917  0.00  0.00    +0.137 C 
ENDBRANCH  10  13
ENDBRANCH   5  10
BRANCH   1  19
ATOM     19  C   UNL     1      -3.324   3.903   5.687  0.00  0.00    +0.123 C 
BRANCH  19  20
ATOM     20  C   UNL     1      -4.405   4.850   5.162  0.00  0.00    +0.021 C 
BRANCH  20  22
ATOM     21  C   UNL     1      -5.628   6.987   5.589  0.00  0.00    +0.004 C 
ATOM     22  C   UNL     1      -4.547   6.039   6.114  0.00  0.00    -0.002 C 
ENDBRANCH  20  22
ENDBRANCH  19  20
ENDBRANCH   1  19
BRANCH   9  23
ATOM     23  C   UNL     1      -4.902   1.251   5.890  0.00  0.00    -0.003 C 
BRANCH  23  33
ATOM     24  C   UNL     1      -7.229   1.554   6.494  0.00  0.00    -0.073 C 
ATOM     25  C   UNL     1      -8.479   2.332   6.080  0.00  0.00    +0.017 C 
ATOM     26  C   UNL     1      -8.902   1.923   4.692  0.00  0.00    -0.048 A 
ATOM     27  C   UNL     1     -10.186   2.237   4.273  0.00  0.00    +0.004 A 
ATOM     28  C   UNL     1     -10.612   1.885   3.008  0.00  0.00    +0.000 A 
ATOM     29  C   UNL     1      -9.754   1.216   2.154  0.00  0.00    +0.000 A 
ATOM     30  C   UNL     1      -8.477   0.902   2.571  0.00  0.00    +0.002 A 
ATOM     31  C   UNL     1      -8.047   1.254   3.842  0.00  0.00    -0.061 A 
ATOM     32  C   UNL     1      -6.645   0.886   4.253  0.00  0.00    -0.042 C 
ATOM     33  N   UNL     1      -6.232   1.693   5.413  0.00  0.00    +0.387 N 
ATOM     34  H   UNL     1      -6.176   2.679   5.133  0.00  0.00    -0.081 HD
ENDBRANCH  23  33
ENDBRANCH   9  23
TORSDOF 7
