REMARK  Name = ZINC09601029
REMARK  5 active torsions:
REMARK  status: ('A' for Active; 'I' for Inactive)
REMARK    1  A    between atoms: C_1  and  O_2
REMARK    2  A    between atoms: O_2  and  C_3
REMARK    3  A    between atoms: C_6  and  C_10
REMARK    4  A    between atoms: C_8  and  O_9
REMARK    5  A    between atoms: C_15  and  C_20
REMARK                            x       y       z     vdW  Elec       q    Type
REMARK                         _______ _______ _______ _____ _____    ______ ____
ROOT
ATOM      1  C   UNL     1      -6.044  -0.047   1.862  0.00  0.00    +0.135 C 
ATOM      2  C   UNL     1      -6.095  -1.463   2.386  0.00  0.00    +0.023 C 
ATOM      3  C   UNL     1      -6.145  -2.510   1.506  0.00  0.00    -0.029 C 
ATOM      4  C   UNL     1      -6.326  -3.900   2.049  0.00  0.00    +0.045 C 
ATOM      5  C   UNL     1      -5.518  -4.047   3.342  0.00  0.00    +0.031 C 
ATOM      6  C   UNL     1      -6.078  -3.055   4.367  0.00  0.00    +0.088 C 
ATOM      7  C   UNL     1      -6.084  -1.673   3.770  0.00  0.00    +0.162 C 
ATOM      8  O   UNL     1      -6.081  -0.711   4.518  0.00  0.00    -0.292 OA
ATOM      9  C   UNL     1      -6.057  -2.252   0.122  0.00  0.00    +0.007 A 
ATOM     10  C   UNL     1      -5.601  -3.241  -0.853  0.00  0.00    -0.009 A 
ATOM     11  C   UNL     1      -4.917  -4.403  -0.490  0.00  0.00    +0.009 A 
ATOM     12  C   UNL     1      -4.638  -5.352  -1.432  0.00  0.00    +0.001 A 
ATOM     13  C   UNL     1      -4.987  -5.159  -2.765  0.00  0.00    +0.001 A 
ATOM     14  C   UNL     1      -5.570  -3.996  -3.169  0.00  0.00    +0.008 A 
ATOM     15  C   UNL     1      -5.826  -2.985  -2.229  0.00  0.00    -0.017 A 
ATOM     16  C   UNL     1      -6.303  -1.724  -2.637  0.00  0.00    +0.010 A 
ATOM     17  C   UNL     1      -6.552  -0.747  -1.726  0.00  0.00    +0.024 A 
ATOM     18  C   UNL     1      -6.438  -0.987  -0.358  0.00  0.00    +0.036 A 
ATOM     19  N   UNL     1      -6.738   0.004   0.567  0.00  0.00    -0.332 N 
ATOM     20  H   UNL     1      -7.379   0.701   0.369  0.00  0.00    +0.147 HD
ENDROOT
BRANCH   1  24
ATOM     21  C   UNL     1      -1.976   1.163   1.348  0.00  0.00    +0.161 A 
ATOM     22  C   UNL     1      -2.590   0.365   0.396  0.00  0.00    +0.050 A 
ATOM     23  C   UNL     1      -3.904  -0.030   0.568  0.00  0.00    +0.009 A 
ATOM     24  C   UNL     1      -4.611   0.380   1.683  0.00  0.00    -0.019 A 
ATOM     25  C   UNL     1      -4.006   1.181   2.634  0.00  0.00    +0.055 A 
ATOM     26  C   UNL     1      -2.688   1.575   2.470  0.00  0.00    +0.159 A 
BRANCH  21  28
ATOM     27  C   UNL     1      -0.013   1.086   0.008  0.00  0.00    +0.277 C 
ATOM     28  O   UNL     1      -0.682   1.547   1.184  0.00  0.00    -0.491 OA
ENDBRANCH  21  28
BRANCH  26  29
ATOM     29  O   UNL     1      -2.092   2.363   3.405  0.00  0.00    -0.503 OA
ATOM     30  H   UNL     1      -2.188   3.311   3.239  0.00  0.00    +0.292 HD
ENDBRANCH  26  29
ENDBRANCH   1  24
BRANCH   5  31
ATOM     31  C   UNL     1      -5.654  -5.453   3.868  0.00  0.00    -0.044 A 
ATOM     32  C   UNL     1      -6.901  -5.947   4.204  0.00  0.00    +0.004 A 
ATOM     33  C   UNL     1      -7.026  -7.238   4.684  0.00  0.00    +0.000 A 
ATOM     34  C   UNL     1      -5.904  -8.031   4.834  0.00  0.00    +0.000 A 
ATOM     35  C   UNL     1      -4.657  -7.535   4.503  0.00  0.00    +0.000 A 
ATOM     36  C   UNL     1      -4.532  -6.246   4.020  0.00  0.00    +0.004 A 
ENDBRANCH   5  31
TORSDOF 4
