REMARK  Name = ZINC16362096
REMARK  6 active torsions:
REMARK  status: ('A' for Active; 'I' for Inactive)
REMARK    1  A    between atoms: C_1  and  O_2
REMARK    2  A    between atoms: O_2  and  C_3
REMARK    3  A    between atoms: C_7  and  C_11
REMARK    4  A    between atoms: C_8  and  O_9
REMARK    5  A    between atoms: O_9  and  C_10
REMARK    6  A    between atoms: C_26  and  N_31
REMARK                            x       y       z     vdW  Elec       q    Type
REMARK                         _______ _______ _______ _____ _____    ______ ____
ROOT
ATOM      1  C   UNL     1      -0.847   1.571   1.166  0.00  0.00    +0.109 C 
ATOM      2  C   UNL     1      -0.051   1.054  -0.003  0.00  0.00    +0.030 C 
ATOM      3  C   UNL     1      -0.630   1.569  -1.338  0.00  0.00    +0.042 C 
ATOM      4  C   UNL     1       0.556   1.623  -2.262  0.00  0.00    -0.043 A 
ATOM      5  C   UNL     1       0.581   1.693  -3.646  0.00  0.00    +0.004 A 
ATOM      6  C   UNL     1       1.828   1.716  -4.256  0.00  0.00    +0.000 A 
ATOM      7  C   UNL     1       2.994   1.670  -3.520  0.00  0.00    +0.000 A 
ATOM      8  C   UNL     1       2.975   1.602  -2.133  0.00  0.00    +0.004 A 
ATOM      9  C   UNL     1       1.733   1.583  -1.520  0.00  0.00    -0.036 A 
ATOM     10  C   UNL     1       1.403   1.521  -0.049  0.00  0.00    +0.057 C 
ATOM     11  C   UNL     1       1.610   2.886   0.544  0.00  0.00    -0.017 A 
ATOM     12  C   UNL     1       2.846   3.494   0.371  0.00  0.00    +0.038 A 
ATOM     13  C   UNL     1       3.091   4.746   0.898  0.00  0.00    +0.127 A 
ATOM     14  C   UNL     1       2.103   5.408   1.606  0.00  0.00    +0.034 A 
ATOM     15  C   UNL     1       0.871   4.812   1.782  0.00  0.00    +0.025 A 
ATOM     16  C   UNL     1       0.623   3.551   1.249  0.00  0.00    +0.032 A 
ATOM     17  N   UNL     1      -0.632   2.973   1.429  0.00  0.00    -0.336 N 
ATOM     18  H   UNL     1      -1.375   3.522   1.727  0.00  0.00    +0.147 HD
ENDROOT
BRANCH   1  23
ATOM     19  C   UNL     1      -0.870   0.175   4.685  0.00  0.00    +0.162 A 
ATOM     20  C   UNL     1       0.252  -0.637   4.662  0.00  0.00    +0.049 A 
ATOM     21  C   UNL     1       1.013  -0.731   3.511  0.00  0.00    +0.004 A 
ATOM     22  C   UNL     1       0.657  -0.018   2.382  0.00  0.00    +0.009 A 
ATOM     23  C   UNL     1      -0.462   0.794   2.398  0.00  0.00    +0.018 A 
ATOM     24  C   UNL     1      -1.226   0.898   3.550  0.00  0.00    +0.166 A 
BRANCH  19  26
ATOM     25  C   UNL     1      -1.192  -0.497   6.943  0.00  0.00    +0.277 C 
ATOM     26  O   UNL     1      -1.620   0.270   5.815  0.00  0.00    -0.491 OA
ENDBRANCH  19  26
BRANCH  24  27
ATOM     27  O   UNL     1      -2.324   1.700   3.569  0.00  0.00    -0.491 OA
ATOM     28  C   UNL     1      -3.584   1.081   3.300  0.00  0.00    +0.277 C 
ENDBRANCH  24  27
ENDBRANCH   1  23
BRANCH  13  29
ATOM     29  N   UNL     1       4.413   5.382   0.706  0.00  0.00    +0.056 N 
ATOM     30  O   UNL     1       4.631   6.487   1.171  0.00  0.00    -0.126 OA
ATOM     31  O   UNL     1       5.284   4.801   0.084  0.00  0.00    -0.126 OA
ENDBRANCH  13  29
TORSDOF 4
