REMARK  Name = ZINC12833244
REMARK  10 active torsions:
REMARK  status: ('A' for Active; 'I' for Inactive)
REMARK    1  A    between atoms: C_1  and  C_2
REMARK    2  A    between atoms: C_4  and  C_34
REMARK    3  A    between atoms: C_7  and  C_14
REMARK    4  A    between atoms: C_14  and  N_66
REMARK    5  A    between atoms: C_15  and  C_16
REMARK    6  A    between atoms: C_15  and  N_66
REMARK    7  A    between atoms: C_16  and  C_17
REMARK    8  A    between atoms: C_23  and  C_24
REMARK    9  A    between atoms: C_23  and  N_66
REMARK   10  A    between atoms: N_28  and  C_29
REMARK                            x       y       z     vdW  Elec       q    Type
REMARK                         _______ _______ _______ _____ _____    ______ ____
ROOT
ATOM      1  N   UNL     1       5.164   4.387  -1.289  0.00  0.00    +0.387 N 
ATOM      2  H   UNL     1       5.107   3.549  -1.880  0.00  0.00    -0.081 HD
ENDROOT
BRANCH   1   3
ATOM      3  C   UNL     1       4.498   4.111   0.001  0.00  0.00    -0.037 C 
BRANCH   3  10
ATOM      4  C   UNL     1      -2.387   0.322  -1.364  0.00  0.00    +0.044 C 
ATOM      5  C   UNL     1      -0.993   0.825  -1.089  0.00  0.00    -0.048 A 
ATOM      6  C   UNL     1       0.038  -0.084  -0.894  0.00  0.00    +0.007 A 
ATOM      7  C   UNL     1       1.309   0.350  -0.644  0.00  0.00    -0.041 A 
ATOM      8  C   UNL     1       1.573   1.723  -0.583  0.00  0.00    +0.002 A 
ATOM      9  C   UNL     1       2.924   2.222  -0.317  0.00  0.00    +0.017 A 
ATOM     10  C   UNL     1       3.120   3.563  -0.270  0.00  0.00    +0.001 A 
ATOM     11  C   UNL     1       2.040   4.448  -0.474  0.00  0.00    +0.251 A 
ATOM     12  O   UNL     1       2.238   5.649  -0.427  0.00  0.00    -0.268 OA
ATOM     13  N   UNL     1       0.796   3.998  -0.718  0.00  0.00    -0.322 N 
ATOM     14  H   UNL     1       0.076   4.634  -0.854  0.00  0.00    +0.169 HD
ATOM     15  C   UNL     1       0.530   2.647  -0.779  0.00  0.00    +0.050 A 
ATOM     16  C   UNL     1      -0.756   2.181  -1.033  0.00  0.00    +0.029 A 
ATOM     17  C   UNL     1       2.421  -0.645  -0.433  0.00  0.00    +0.044 C 
ENDBRANCH   3  10
ENDBRANCH   1   3
BRANCH   1  18
ATOM     18  C   UNL     1       4.486   5.505  -1.978  0.00  0.00    -0.073 C 
BRANCH  18  19
ATOM     19  C   UNL     1       5.086   5.660  -3.377  0.00  0.00    +0.016 C 
BRANCH  19  20
ATOM     20  C   UNL     1       4.302   6.691  -4.148  0.00  0.00    -0.049 A 
ATOM     21  C   UNL     1       3.273   6.295  -4.982  0.00  0.00    +0.003 A 
ATOM     22  C   UNL     1       2.551   7.240  -5.686  0.00  0.00    +0.000 A 
ATOM     23  C   UNL     1       2.865   8.581  -5.564  0.00  0.00    +0.000 A 
ATOM     24  C   UNL     1       3.898   8.977  -4.734  0.00  0.00    +0.000 A 
ATOM     25  C   UNL     1       4.616   8.031  -4.027  0.00  0.00    +0.003 A 
ENDBRANCH  19  20
ENDBRANCH  18  19
ENDBRANCH   1  18
BRANCH   1  26
ATOM     26  C   UNL     1       6.586   4.720  -1.063  0.00  0.00    +0.001 C 
BRANCH  26  27
ATOM     27  C   UNL     1       7.347   3.443  -0.817  0.00  0.00    +0.135 A 
ATOM     28  N   UNL     1       7.553   2.865   0.341  0.00  0.00    -0.115 NA
ATOM     29  N   UNL     1       8.242   1.796   0.136  0.00  0.00    -0.023 NA
ATOM     30  N   UNL     1       8.489   1.681  -1.123  0.00  0.00    -0.044 NA
ATOM     31  N   UNL     1       7.954   2.678  -1.744  0.00  0.00    -0.228 N 
BRANCH  31  32
ATOM     32  C   UNL     1       7.997   2.928  -3.187  0.00  0.00    +0.111 C 
ATOM     33  C   UNL     1       7.308   1.775  -3.945  0.00  0.00    +0.027 C 
ATOM     34  C   UNL     1       8.164   1.598  -5.224  0.00  0.00    +0.002 C 
ATOM     35  C   UNL     1       9.605   1.831  -4.707  0.00  0.00    +0.002 C 
ATOM     36  C   UNL     1       9.457   2.964  -3.671  0.00  0.00    +0.027 C 
ENDBRANCH  31  32
ENDBRANCH  26  27
ENDBRANCH   1  26
TORSDOF 8
