REMARK  Name = ZINC27754475
REMARK  8 active torsions:
REMARK  status: ('A' for Active; 'I' for Inactive)
REMARK    1  A    between atoms: C_1  and  O_2
REMARK    2  A    between atoms: O_2  and  C_3
REMARK    3  A    between atoms: C_5  and  C_10
REMARK    4  A    between atoms: C_8  and  O_9
REMARK    5  A    between atoms: C_12  and  C_27
REMARK    6  A    between atoms: C_14  and  C_19
REMARK    7  A    between atoms: C_14  and  O_26
REMARK    8  A    between atoms: C_27  and  C_29
REMARK                            x       y       z     vdW  Elec       q    Type
REMARK                         _______ _______ _______ _____ _____    ______ ____
ROOT
ATOM      1  C   UNL     1       0.397   0.538   0.009  0.00  0.00    +0.120 C 
ATOM      2  C   UNL     1       1.147  -0.659  -0.583  0.00  0.00    +0.144 C 
ATOM      3  C   UNL     1       2.515  -0.764   0.100  0.00  0.00    +0.172 C 
ATOM      4  N   UNL     1       3.224   0.508  -0.047  0.00  0.00    -0.267 N 
ATOM      5  C   UNL     1       2.560   1.669  -0.148  0.00  0.00    +0.302 C 
ATOM      6  O   UNL     1       3.198   2.698  -0.258  0.00  0.00    -0.253 OA
ATOM      7  N   UNL     1       1.221   1.739  -0.133  0.00  0.00    -0.292 N 
ATOM      8  H   UNL     1       4.324   0.524  -0.076  0.00  0.00    +0.153 HD
ATOM      9  H   UNL     1       0.743   2.725  -0.230  0.00  0.00    +0.151 HD
ENDROOT
BRANCH   3  10
ATOM     10  C   UNL     1       2.325  -1.071   1.563  0.00  0.00    +0.003 A 
ATOM     11  C   UNL     1       2.212  -0.039   2.476  0.00  0.00    +0.011 A 
ATOM     12  C   UNL     1       2.032  -0.318   3.817  0.00  0.00    +0.039 A 
ATOM     13  C   UNL     1       1.976  -1.633   4.248  0.00  0.00    +0.123 A 
ATOM     14  C   UNL     1       2.094  -2.666   3.334  0.00  0.00    +0.039 A 
ATOM     15  C   UNL     1       2.268  -2.384   1.992  0.00  0.00    +0.011 A 
ATOM     16  F   UNL     1       1.806  -1.907   5.560  0.00  0.00    -0.205 F 
ENDBRANCH   3  10
BRANCH   1  19
ATOM     17  C   UNL     1      -3.234   0.226  -0.988  0.00  0.00    +0.162 A 
ATOM     18  C   UNL     1      -2.036   0.049  -0.314  0.00  0.00    +0.055 A 
ATOM     19  C   UNL     1      -0.905   0.731  -0.725  0.00  0.00    -0.023 A 
ATOM     20  C   UNL     1      -0.968   1.594  -1.803  0.00  0.00    +0.009 A 
ATOM     21  C   UNL     1      -2.159   1.770  -2.482  0.00  0.00    +0.049 A 
ATOM     22  C   UNL     1      -3.296   1.090  -2.076  0.00  0.00    +0.158 A 
BRANCH  17  24
ATOM     23  C   UNL     1      -4.209  -1.314   0.540  0.00  0.00    +0.277 C 
ATOM     24  O   UNL     1      -4.347  -0.444  -0.585  0.00  0.00    -0.491 OA
ENDBRANCH  17  24
BRANCH  22  25
ATOM     25  O   UNL     1      -4.469   1.266  -2.741  0.00  0.00    -0.503 OA
ATOM     26  H   UNL     1      -4.517   1.950  -3.601  0.00  0.00    +0.292 HD
ENDBRANCH  22  25
ENDBRANCH   1  19
BRANCH   3  27
ATOM     27  O   UNL     1       3.276  -1.808  -0.511  0.00  0.00    -0.367 OA
ATOM     28  H   UNL     1       4.290  -2.033  -0.151  0.00  0.00    +0.212 HD
ENDBRANCH   3  27
BRANCH   2  29
ATOM     29  C   UNL     1       1.336  -0.456  -2.064  0.00  0.00    +0.245 C 
ATOM     30  O   UNL     1       1.556   0.649  -2.499  0.00  0.00    -0.287 OA
BRANCH  29  31
ATOM     31  C   UNL     1       1.251  -1.631  -3.003  0.00  0.00    +0.451 C 
ATOM     32  F   UNL     1       1.451  -1.195  -4.317  0.00  0.00    -0.163 F 
ATOM     33  F   UNL     1       2.234  -2.569  -2.668  0.00  0.00    -0.163 F 
ATOM     34  F   UNL     1      -0.013  -2.223  -2.897  0.00  0.00    -0.163 F 
ENDBRANCH  29  31
ENDBRANCH   2  29
TORSDOF 7
