REMARK  Name = ZINC43224045
REMARK  19 active torsions:
REMARK  status: ('A' for Active; 'I' for Inactive)
REMARK    1  A    between atoms: C_1  and  C_2
REMARK    2  A    between atoms: C_3  and  C_30
REMARK    3  A    between atoms: C_5  and  C_15
REMARK    4  A    between atoms: N_6  and  C_7
REMARK    5  A    between atoms: C_7  and  C_9
REMARK    6  A    between atoms: C_7  and  C_10
REMARK    7  A    between atoms: C_10  and  C_11
REMARK    8  A    between atoms: C_11  and  C_12
REMARK    9  A    between atoms: C_12  and  C_13
REMARK   10  A    between atoms: C_12  and  C_14
REMARK   11  A    between atoms: C_17  and  C_26
REMARK   12  A    between atoms: C_18  and  O_25
REMARK   13  A    between atoms: C_19  and  C_21
REMARK   14  A    between atoms: C_21  and  C_22
REMARK   15  A    between atoms: C_21  and  C_23
REMARK   16  A    between atoms: C_21  and  C_24
REMARK   17  A    between atoms: C_26  and  C_27
REMARK   18  A    between atoms: C_26  and  C_28
REMARK   19  A    between atoms: C_26  and  C_29
REMARK                            x       y       z     vdW  Elec       q    Type
REMARK                         _______ _______ _______ _____ _____    ______ ____
ROOT
ATOM      1  C   UNL     1       0.011   1.426  -0.371  0.00  0.00    +0.064 C 
ATOM      2  C   UNL     1       0.032  -0.068  -0.177  0.00  0.00    +0.029 A 
ATOM      3  C   UNL     1       0.056  -1.012  -1.180  0.00  0.00    +0.057 A 
ATOM      4  C   UNL     1       0.070  -2.285  -0.551  0.00  0.00    +0.041 A 
ATOM      5  C   UNL     1       0.053  -2.067   0.789  0.00  0.00    +0.050 A 
ATOM      6  N   UNL     1       0.035  -0.711   1.008  0.00  0.00    -0.341 N 
ENDROOT
BRANCH   5   7
ATOM      7  C   UNL     1       0.059  -3.112   1.835  0.00  0.00    -0.001 A 
ATOM      8  C   UNL     1      -0.553  -2.873   3.066  0.00  0.00    +0.017 A 
ATOM      9  C   UNL     1      -0.545  -3.850   4.039  0.00  0.00    +0.000 A 
ATOM     10  C   UNL     1       0.071  -5.071   3.795  0.00  0.00    +0.124 A 
ATOM     11  C   UNL     1       0.682  -5.311   2.572  0.00  0.00    +0.000 A 
ATOM     12  C   UNL     1       0.673  -4.342   1.592  0.00  0.00    +0.017 A 
BRANCH  11  13
ATOM     13  C   UNL     1       1.350  -6.637   2.312  0.00  0.00    -0.009 C 
ATOM     14  C   UNL     1       1.940  -6.644   0.901  0.00  0.00    +0.015 C 
ATOM     15  C   UNL     1       2.468  -6.853   3.334  0.00  0.00    +0.015 C 
ATOM     16  C   UNL     1       0.319  -7.761   2.439  0.00  0.00    +0.015 C 
ENDBRANCH  11  13
BRANCH   9  17
ATOM     17  C   UNL     1      -1.206  -3.594   5.369  0.00  0.00    -0.009 C 
ATOM     18  C   UNL     1      -1.804  -2.185   5.377  0.00  0.00    +0.015 C 
ATOM     19  C   UNL     1      -2.318  -4.621   5.592  0.00  0.00    +0.015 C 
ATOM     20  C   UNL     1      -0.168  -3.714   6.486  0.00  0.00    +0.015 C 
ENDBRANCH   9  17
BRANCH  10  21
ATOM     21  O   UNL     1       0.076  -6.031   4.756  0.00  0.00    -0.506 OA
ATOM     22  H   UNL     1      -0.682  -6.630   4.718  0.00  0.00    +0.292 HD
ENDBRANCH  10  21
ENDBRANCH   5   7
BRANCH   3  23
ATOM     23  C   UNL     1       0.066  -0.751  -2.630  0.00  0.00    +0.243 C 
ATOM     24  O   UNL     1       0.051   0.393  -3.042  0.00  0.00    -0.270 OA
ATOM     25  N   UNL     1       0.090  -1.780  -3.500  0.00  0.00    -0.325 N 
ATOM     26  H   UNL     1       0.102  -2.693  -3.172  0.00  0.00    +0.145 HD
ATOM     27  H   UNL     1       0.097  -1.608  -4.455  0.00  0.00    +0.145 HD
ENDBRANCH   3  23
BRANCH   6  28
ATOM     28  C   UNL     1       0.019  -0.066   2.323  0.00  0.00    +0.084 C 
ATOM     29  C   UNL     1      -1.324   0.637   2.530  0.00  0.00    +0.031 C 
BRANCH  28  30
ATOM     30  C   UNL     1       1.150   0.962   2.401  0.00  0.00    +0.025 C 
BRANCH  30  31
ATOM     31  C   UNL     1       1.212   1.546   3.814  0.00  0.00    +0.005 C 
BRANCH  31  32
ATOM     32  C   UNL     1       2.342   2.574   3.892  0.00  0.00    -0.017 C 
ATOM     33  C   UNL     1       2.325   3.248   5.265  0.00  0.00    +0.007 C 
ATOM     34  C   UNL     1       3.686   1.871   3.685  0.00  0.00    +0.007 C 
ENDBRANCH  31  32
ENDBRANCH  30  31
ENDBRANCH  28  30
ENDBRANCH   6  28
TORSDOF 9
