REMARK  Name = ZINC13152454
REMARK  4 active torsions:
REMARK  status: ('A' for Active; 'I' for Inactive)
REMARK    1  A    between atoms: C_4  and  C_7
REMARK    2  A    between atoms: C_7  and  C_8
REMARK    3  A    between atoms: N_12  and  C_22
REMARK    4  A    between atoms: N_14  and  C_15
REMARK                            x       y       z     vdW  Elec       q    Type
REMARK                         _______ _______ _______ _____ _____    ______ ____
ROOT
ATOM      1  C   UNL     1       3.956  -1.365   0.940  0.00  0.00    +0.145 C 
ATOM      2  C   UNL     1       5.281  -2.110   0.936  0.00  0.00    +0.239 C 
ATOM      3  O   UNL     1       6.075  -2.007   0.025  0.00  0.00    -0.274 OA
ATOM      4  N   UNL     1       5.513  -2.878   1.987  0.00  0.00    -0.218 N 
ATOM      5  C   UNL     1       4.613  -2.999   3.028  0.00  0.00    +0.168 C 
ATOM      6  N   UNL     1       4.727  -3.723   4.117  0.00  0.00    -0.225 NA
ATOM      7  S   UNL     1       3.257  -1.940   2.543  0.00  0.00    -0.077 S 
ENDROOT
BRANCH   6   8
ATOM      8  C   UNL     1       3.724  -3.720   5.049  0.00  0.00    +0.067 A 
ATOM      9  C   UNL     1       3.130  -2.517   5.436  0.00  0.00    +0.028 A 
ATOM     10  C   UNL     1       2.119  -2.521   6.375  0.00  0.00    +0.002 A 
ATOM     11  C   UNL     1       1.694  -3.714   6.932  0.00  0.00    +0.000 A 
ATOM     12  C   UNL     1       2.277  -4.910   6.552  0.00  0.00    +0.002 A 
ATOM     13  C   UNL     1       3.285  -4.920   5.611  0.00  0.00    +0.028 A 
ENDBRANCH   6   8
BRANCH   4  14
ATOM     14  C   UNL     1       6.716  -3.593   2.048  0.00  0.00    +0.043 A 
ATOM     15  C   UNL     1       7.835  -3.024   2.640  0.00  0.00    +0.024 A 
ATOM     16  C   UNL     1       9.020  -3.732   2.699  0.00  0.00    +0.002 A 
ATOM     17  C   UNL     1       9.092  -5.006   2.167  0.00  0.00    +0.000 A 
ATOM     18  C   UNL     1       7.979  -5.576   1.576  0.00  0.00    +0.002 A 
ATOM     19  C   UNL     1       6.790  -4.875   1.520  0.00  0.00    +0.024 A 
ENDBRANCH   4  14
BRANCH   1  20
ATOM     20  C   UNL     1       3.075  -1.794  -0.235  0.00  0.00    +0.059 C 
BRANCH  20  24
ATOM     21  C   UNL     1      -0.576   0.423  -0.164  0.00  0.00    +0.000 A 
ATOM     22  C   UNL     1       0.515   0.910  -0.859  0.00  0.00    +0.000 A 
ATOM     23  C   UNL     1       1.696   0.193  -0.882  0.00  0.00    +0.004 A 
ATOM     24  C   UNL     1       1.787  -1.012  -0.209  0.00  0.00    -0.046 A 
ATOM     25  C   UNL     1       0.696  -1.498   0.486  0.00  0.00    +0.004 A 
ATOM     26  C   UNL     1      -0.486  -0.782   0.508  0.00  0.00    +0.000 A 
ENDBRANCH  20  24
ENDBRANCH   1  20
TORSDOF 4
