REMARK  Name = ZINC13945126
REMARK  6 active torsions:
REMARK  status: ('A' for Active; 'I' for Inactive)
REMARK    1  A    between atoms: C_1  and  C_2
REMARK    2  A    between atoms: C_2  and  C_4
REMARK    3  A    between atoms: C_2  and  S_18
REMARK    4  A    between atoms: C_9  and  C_12
REMARK    5  A    between atoms: S_18  and  C_19
REMARK    6  A    between atoms: C_25  and  N_27
REMARK                            x       y       z     vdW  Elec       q    Type
REMARK                         _______ _______ _______ _____ _____    ______ ____
ROOT
ATOM      1  C   UNL     1       1.141   2.075   0.002  0.00  0.00    +0.232 C 
ATOM      2  O   UNL     1       2.200   1.483  -0.011  0.00  0.00    -0.274 OA
ATOM      3  N   UNL     1      -0.017   1.385   0.010  0.00  0.00    -0.264 N 
ATOM      4  C   UNL     1       0.002  -0.004   0.002  0.00  0.00    +0.165 A 
ATOM      5  N   UNL     1      -1.008  -0.853   0.007  0.00  0.00    -0.225 NA
ATOM      6  C   UNL     1      -0.807  -2.162  -0.003  0.00  0.00    +0.080 A 
ATOM      7  C   UNL     1       0.472  -2.644  -0.018  0.00  0.00    +0.076 A 
ATOM      8  S   UNL     1       1.401  -1.116  -0.025  0.00  0.00    -0.060 S 
ATOM      9  H   UNL     1      -0.863   1.859   0.016  0.00  0.00    +0.157 HD
ENDROOT
BRANCH   6  10
ATOM     10  C   UNL     1      -1.959  -3.097   0.004  0.00  0.00    +0.001 A 
ATOM     11  C   UNL     1      -1.742  -4.474  -0.011  0.00  0.00    +0.010 A 
ATOM     12  C   UNL     1      -2.818  -5.339   0.000  0.00  0.00    +0.001 A 
ATOM     13  C   UNL     1      -4.109  -4.841   0.016  0.00  0.00    +0.000 A 
ATOM     14  C   UNL     1      -4.329  -3.476   0.026  0.00  0.00    +0.001 A 
ATOM     15  C   UNL     1      -3.262  -2.602   0.020  0.00  0.00    +0.010 A 
ENDBRANCH   6  10
BRANCH   1  17
ATOM     16  C   UNL     1       0.850   4.096  -1.405  0.00  0.00    +0.029 C 
ATOM     17  C   UNL     1       1.121   3.582   0.011  0.00  0.00    +0.137 C 
BRANCH  17  18
ATOM     18  S   UNL     1       2.721   4.204   0.582  0.00  0.00    -0.075 S 
BRANCH  18  19
ATOM     19  C   UNL     1       2.376   5.931   0.639  0.00  0.00    +0.171 A 
ATOM     20  N   UNL     1       3.353   6.794   1.034  0.00  0.00    -0.302 N 
ATOM     21  H   UNL     1       4.228   6.455   1.281  0.00  0.00    +0.171 HD
ATOM     22  C   UNL     1       3.106   8.120   1.084  0.00  0.00    +0.254 A 
ATOM     23  O   UNL     1       3.976   8.900   1.438  0.00  0.00    -0.268 OA
ATOM     24  C   UNL     1       1.838   8.584   0.723  0.00  0.00    +0.113 A 
ATOM     25  C   UNL     1       0.877   7.664   0.327  0.00  0.00    +0.124 A 
ATOM     26  N   UNL     1       1.181   6.361   0.292  0.00  0.00    -0.209 NA
BRANCH  25  27
ATOM     27  N   UNL     1      -0.384   8.091  -0.035  0.00  0.00    -0.343 N 
ATOM     28  H   UNL     1      -0.601   9.037  -0.013  0.00  0.00    +0.144 HD
ATOM     29  H   UNL     1      -1.054   7.447  -0.312  0.00  0.00    +0.144 HD
ENDBRANCH  25  27
ENDBRANCH  18  19
ENDBRANCH  17  18
ENDBRANCH   1  17
TORSDOF 5
