REMARK  Name = ZINC39637259
REMARK  5 active torsions:
REMARK  status: ('A' for Active; 'I' for Inactive)
REMARK    1  A    between atoms: C_1  and  C_2
REMARK    2  A    between atoms: C_7  and  N_12
REMARK    3  A    between atoms: C_9  and  C_11
REMARK    4  A    between atoms: C_13  and  C_15
REMARK    5  A    between atoms: C_26  and  C_28
REMARK                            x       y       z     vdW  Elec       q    Type
REMARK                         _______ _______ _______ _____ _____    ______ ____
ROOT
ATOM      1  C   UNL     1       1.363  -0.333   6.074  0.00  0.00    +0.100 C 
ATOM      2  C   UNL     1       0.754  -1.669   6.555  0.00  0.00    +0.121 C 
ATOM      3  N   UNL     1       0.805  -1.593   8.034  0.00  0.00    -0.300 N 
ATOM      4  C   UNL     1       0.455  -0.186   8.343  0.00  0.00    +0.115 C 
ATOM      5  C   UNL     1       1.164   0.638   7.250  0.00  0.00    -0.004 C 
ATOM      6  C   UNL     1       2.514   1.137   7.757  0.00  0.00    -0.010 C 
ATOM      7  C   UNL     1       2.288   2.143   8.889  0.00  0.00    -0.082 C 
ATOM      8  N   UNL     1       1.484   3.266   8.393  0.00  0.00    +0.379 N 
ATOM      9  C   UNL     1       0.153   2.792   7.994  0.00  0.00    -0.082 C 
ATOM     10  C   UNL     1       0.288   1.812   6.824  0.00  0.00    -0.010 C 
ATOM     11  C   UNL     1       1.104  -2.580   8.902  0.00  0.00    +0.219 C 
ATOM     12  O   UNL     1       1.104  -2.360  10.094  0.00  0.00    -0.275 OA
ATOM     13  H   UNL     1       1.388   3.957   9.123  0.00  0.00    -0.086 HD
ATOM     14  H   UNL     1       1.944   3.683   7.598  0.00  0.00    -0.086 HD
ENDROOT
BRANCH   1  16
ATOM     15  N   UNL     1       1.282   0.918   3.942  0.00  0.00    -0.312 N 
ATOM     16  C   UNL     1       0.634   0.166   4.853  0.00  0.00    +0.218 C 
ATOM     17  O   UNL     1      -0.536  -0.109   4.690  0.00  0.00    -0.275 OA
ATOM     18  H   UNL     1       2.218   1.138   4.071  0.00  0.00    +0.149 HD
BRANCH  15  24
ATOM     19  C   UNL     1      -0.933   3.495   1.362  0.00  0.00    +0.008 C 
ATOM     20  C   UNL     1       0.517   3.176   0.995  0.00  0.00    -0.009 C 
ATOM     21  C   UNL     1       0.544   2.099  -0.091  0.00  0.00    +0.003 C 
ATOM     22  C   UNL     1      -0.140   0.833   0.429  0.00  0.00    +0.002 C 
ATOM     23  C   UNL     1       0.600   0.326   1.669  0.00  0.00    +0.022 C 
ATOM     24  C   UNL     1       0.573   1.404   2.755  0.00  0.00    +0.076 C 
ATOM     25  C   UNL     1       1.258   2.670   2.234  0.00  0.00    +0.009 C 
ATOM     26  C   UNL     1       1.231   3.747   3.320  0.00  0.00    +0.009 C 
ENDBRANCH  15  24
ENDBRANCH   1  16
BRANCH  11  27
ATOM     27  C   UNL     1       1.437  -3.958   8.390  0.00  0.00    +0.075 C 
ATOM     28  C   UNL     1       2.901  -4.112   7.944  0.00  0.00    +0.013 C 
ATOM     29  C   UNL     1       3.219  -4.515   9.393  0.00  0.00    +0.001 C 
ATOM     30  C   UNL     1       1.754  -4.969   9.505  0.00  0.00    +0.013 C 
ENDBRANCH  11  27
TORSDOF 3
