REMARK  Name = ZINC23907681
REMARK  6 active torsions:
REMARK  status: ('A' for Active; 'I' for Inactive)
REMARK    1  A    between atoms: C_1  and  C_2
REMARK    2  A    between atoms: C_2  and  C_24
REMARK    3  A    between atoms: N_5  and  C_9
REMARK    4  A    between atoms: C_9  and  N_10
REMARK    5  A    between atoms: N_13  and  S_16
REMARK    6  A    between atoms: S_16  and  C_19
REMARK                            x       y       z     vdW  Elec       q    Type
REMARK                         _______ _______ _______ _____ _____    ______ ____
ROOT
ATOM      1  C   UNL     1      -6.815  -0.183  -2.295  0.00  0.00    +0.047 C 
ATOM      2  C   UNL     1      -7.022   1.205  -2.904  0.00  0.00    +0.135 C 
ATOM      3  C   UNL     1      -6.084   2.212  -2.268  0.00  0.00    +0.252 C 
ATOM      4  O   UNL     1      -6.043   2.539  -1.101  0.00  0.00    -0.272 OA
ATOM      5  N   UNL     1      -5.306   2.669  -3.270  0.00  0.00    -0.210 N 
ATOM      6  C   UNL     1      -5.622   2.100  -4.439  0.00  0.00    +0.311 C 
ATOM      7  O   UNL     1      -5.063   2.355  -5.487  0.00  0.00    -0.252 OA
ATOM      8  N   UNL     1      -6.627   1.212  -4.323  0.00  0.00    -0.281 N 
ATOM      9  H   UNL     1      -7.145   0.560  -5.042  0.00  0.00    +0.152 HD
ENDROOT
BRANCH   2  10
ATOM     10  C   UNL     1      -8.455   1.645  -2.751  0.00  0.00    -0.012 A 
ATOM     11  C   UNL     1      -8.832   2.401  -1.656  0.00  0.00    +0.010 A 
ATOM     12  C   UNL     1     -10.145   2.805  -1.512  0.00  0.00    +0.050 A 
ATOM     13  C   UNL     1     -11.090   2.453  -2.465  0.00  0.00    +0.162 A 
ATOM     14  C   UNL     1     -10.710   1.696  -3.567  0.00  0.00    +0.162 A 
ATOM     15  C   UNL     1      -9.389   1.297  -3.708  0.00  0.00    +0.055 A 
ATOM     16  O   UNL     1     -11.620   1.343  -4.516  0.00  0.00    -0.485 OA
ATOM     17  C   UNL     1     -13.001   1.442  -4.151  0.00  0.00    +0.270 C 
ATOM     18  C   UNL     1     -13.220   2.796  -3.463  0.00  0.00    +0.270 C 
ATOM     19  O   UNL     1     -12.381   2.852  -2.304  0.00  0.00    -0.485 OA
ENDBRANCH   2  10
BRANCH   5  20
ATOM     20  C   UNL     1      -4.250   3.669  -3.100  0.00  0.00    +0.205 C 
BRANCH  20  21
ATOM     21  N   UNL     1      -2.981   2.994  -2.793  0.00  0.00    -0.284 NA
ATOM     22  C   UNL     1      -2.076   3.886  -2.056  0.00  0.00    +0.103 C 
ATOM     23  C   UNL     1      -0.706   3.213  -1.915  0.00  0.00    +0.125 C 
ATOM     24  N   UNL     1      -0.897   1.885  -1.312  0.00  0.00    -0.174 NA
ATOM     25  C   UNL     1      -1.887   0.982  -1.919  0.00  0.00    +0.125 C 
ATOM     26  C   UNL     1      -3.215   1.745  -2.057  0.00  0.00    +0.103 C 
BRANCH  24  27
ATOM     27  S   UNL     1      -0.017   1.417   0.010  0.00  0.00    +0.067 S 
ATOM     28  O   UNL     1       0.002  -0.004   0.002  0.00  0.00    -0.152 OA
ATOM     29  O   UNL     1       1.172   2.195   0.003  0.00  0.00    -0.152 OA
BRANCH  27  30
ATOM     30  C   UNL     1      -0.927   1.900   1.439  0.00  0.00    +0.143 A 
ATOM     31  C   UNL     1      -1.862   1.205   2.132  0.00  0.00    +0.036 A 
ATOM     32  C   UNL     1      -2.451   1.790   3.236  0.00  0.00    +0.010 A 
ATOM     33  C   UNL     1      -2.076   3.043   3.595  0.00  0.00    +0.047 A 
ATOM     34  S   UNL     1      -0.850   3.430   2.357  0.00  0.00    -0.077 S 
ENDBRANCH  27  30
ENDBRANCH  24  27
ENDBRANCH  20  21
ENDBRANCH   5  20
TORSDOF 5
