REMARK  Name = ZINC40074252
REMARK  11 active torsions:
REMARK  status: ('A' for Active; 'I' for Inactive)
REMARK    1  A    between atoms: C_1  and  C_2
REMARK    2  A    between atoms: C_4  and  C_8
REMARK    3  A    between atoms: C_5  and  C_7
REMARK    4  A    between atoms: C_8  and  C_10
REMARK    5  A    between atoms: C_8  and  N_11
REMARK    6  A    between atoms: C_12  and  C_14
REMARK    7  A    between atoms: C_14  and  C_16
REMARK    8  A    between atoms: C_14  and  N_19
REMARK    9  A    between atoms: C_16  and  C_17
REMARK   10  A    between atoms: C_16  and  C_18
REMARK   11  A    between atoms: C_20  and  C_22
REMARK                            x       y       z     vdW  Elec       q    Type
REMARK                         _______ _______ _______ _____ _____    ______ ____
ROOT
ATOM      1  C   UNL     1      -5.224  -2.740   1.850  0.00  0.00    +0.162 C 
ENDROOT
BRANCH   1   3
ATOM      2  N   UNL     1      -3.103  -2.609   0.585  0.00  0.00    -0.307 N 
ATOM      3  C   UNL     1      -4.000  -3.372   1.240  0.00  0.00    +0.234 C 
ATOM      4  O   UNL     1      -3.822  -4.568   1.339  0.00  0.00    -0.274 OA
ATOM      5  H   UNL     1      -3.245  -1.653   0.506  0.00  0.00    +0.149 HD
BRANCH   2   6
ATOM      6  C   UNL     1      -1.912  -3.224  -0.008  0.00  0.00    +0.101 C 
ATOM      7  C   UNL     1      -2.240  -3.712  -1.420  0.00  0.00    +0.033 C 
BRANCH   6  11
ATOM      8  C   UNL     1      -0.117   1.532  -0.303  0.00  0.00    +0.051 C 
ATOM      9  C   UNL     1      -0.066   0.029  -0.210  0.00  0.00    -0.013 A 
ATOM     10  C   UNL     1      -1.089  -0.859  -0.155  0.00  0.00    +0.016 A 
ATOM     11  C   UNL     1      -0.801  -2.208  -0.072  0.00  0.00    -0.017 A 
ATOM     12  C   UNL     1       0.495  -2.604  -0.049  0.00  0.00    -0.008 A 
ATOM     13  S   UNL     1       1.359  -1.045  -0.153  0.00  0.00    -0.098 S 
ATOM     14  C   UNL     1       1.060  -3.999   0.036  0.00  0.00    +0.052 C 
ENDBRANCH   6  11
ENDBRANCH   2   6
ENDBRANCH   1   3
BRANCH   1  15
ATOM     15  N   UNL     1      -6.035  -3.772   2.500  0.00  0.00    -0.300 N 
ATOM     16  C   UNL     1      -7.359  -3.584   2.666  0.00  0.00    +0.246 C 
ATOM     17  O   UNL     1      -7.881  -2.557   2.276  0.00  0.00    -0.270 OA
ATOM     18  H   UNL     1      -5.619  -4.591   2.811  0.00  0.00    +0.150 HD
BRANCH  16  19
ATOM     19  C   UNL     1      -8.177  -4.625   3.322  0.00  0.00    +0.055 A 
ATOM     20  C   UNL     1      -7.580  -5.803   3.776  0.00  0.00    +0.016 A 
ATOM     21  C   UNL     1      -8.348  -6.771   4.387  0.00  0.00    +0.021 A 
ATOM     22  C   UNL     1      -9.710  -6.578   4.551  0.00  0.00    +0.042 A 
ATOM     23  C   UNL     1     -10.309  -5.413   4.103  0.00  0.00    +0.040 A 
ATOM     24  C   UNL     1      -9.550  -4.433   3.495  0.00  0.00    +0.054 A 
ATOM     25 CL   UNL     1     -10.301  -2.969   2.941  0.00  0.00    -0.083 Cl
ATOM     26 CL   UNL     1     -10.670  -7.803   5.321  0.00  0.00    -0.083 Cl
ENDBRANCH  16  19
ENDBRANCH   1  15
BRANCH   1  27
ATOM     27  C   UNL     1      -4.798  -1.698   2.887  0.00  0.00    +0.012 C 
ATOM     28  C   UNL     1      -6.041  -1.056   3.506  0.00  0.00    +0.009 C 
ATOM     29  C   UNL     1      -3.975  -2.377   3.983  0.00  0.00    +0.009 C 
ENDBRANCH   1  27
TORSDOF 6
