REMARK  Name = ZINC60366530
REMARK  19 active torsions:
REMARK  status: ('A' for Active; 'I' for Inactive)
REMARK    1  A    between atoms: C_1  and  C_2
REMARK    2  A    between atoms: C_2  and  C_4
REMARK    3  A    between atoms: C_2  and  N_28
REMARK    4  A    between atoms: N_10  and  C_11
REMARK    5  A    between atoms: C_11  and  C_12
REMARK    6  A    between atoms: C_14  and  C_17
REMARK    7  A    between atoms: C_17  and  C_18
REMARK    8  A    between atoms: C_17  and  C_19
REMARK    9  A    between atoms: C_17  and  N_20
REMARK   10  A    between atoms: C_21  and  O_23
REMARK   11  A    between atoms: O_23  and  C_24
REMARK   12  A    between atoms: C_24  and  C_25
REMARK   13  A    between atoms: C_24  and  C_26
REMARK   14  A    between atoms: C_24  and  C_27
REMARK   15  A    between atoms: C_29  and  O_31
REMARK   16  A    between atoms: O_31  and  C_32
REMARK   17  A    between atoms: C_32  and  C_33
REMARK   18  A    between atoms: C_32  and  C_34
REMARK   19  A    between atoms: C_32  and  C_35
REMARK                            x       y       z     vdW  Elec       q    Type
REMARK                         _______ _______ _______ _____ _____    ______ ____
ROOT
ATOM      1  C   UNL     1       0.710  -0.392   1.407  0.00  0.00    -0.047 C 
ATOM      2  C   UNL     1       0.838  -1.915   1.467  0.00  0.00    -0.014 C 
ATOM      3  C   UNL     1       1.647  -2.305   2.708  0.00  0.00    -0.003 C 
ATOM      4  C   UNL     1       3.011  -1.610   2.655  0.00  0.00    -0.019 C 
ATOM      5  C   UNL     1       2.802  -0.098   2.550  0.00  0.00    -0.078 C 
ATOM      6  N   UNL     1       2.046   0.212   1.331  0.00  0.00    +0.389 N 
ATOM      7  H   UNL     1       2.536  -0.157   0.530  0.00  0.00    -0.081 HD
ENDROOT
BRANCH   1   9
ATOM      8  C   UNL     1      -1.485  -0.638   0.240  0.00  0.00    +0.026 C 
ATOM      9  C   UNL     1      -0.098   0.003   0.169  0.00  0.00    +0.060 C 
BRANCH   9  10
ATOM     10  N   UNL     1       0.594  -0.464  -1.035  0.00  0.00    -0.280 N 
ATOM     11  C   UNL     1       0.389   0.157  -2.214  0.00  0.00    +0.401 C 
ATOM     12  O   UNL     1      -0.370   1.104  -2.278  0.00  0.00    -0.226 OA
ATOM     13  H   UNL     1       1.200  -1.220  -0.984  0.00  0.00    +0.152 HD
BRANCH  11  14
ATOM     14  O   UNL     1       1.025  -0.272  -3.320  0.00  0.00    -0.445 OA
BRANCH  14  15
ATOM     15  C   UNL     1       0.760   0.433  -4.535  0.00  0.00    +0.107 C 
ATOM     16  C   UNL     1       1.163   1.900  -4.372  0.00  0.00    +0.055 C 
ATOM     17  C   UNL     1       1.567  -0.194  -5.674  0.00  0.00    +0.055 C 
ATOM     18  C   UNL     1      -0.732   0.347  -4.859  0.00  0.00    +0.055 C 
ENDBRANCH  14  15
ENDBRANCH  11  14
ENDBRANCH   9  10
ENDBRANCH   1   9
BRANCH   6  19
ATOM     19  C   UNL     1       1.916   1.669   1.194  0.00  0.00    +0.022 C 
BRANCH  19  20
ATOM     20  C   UNL     1       3.279   2.277   0.983  0.00  0.00    +0.211 A 
ATOM     21  N   UNL     1       3.854   2.482  -0.170  0.00  0.00    -0.195 NA
ATOM     22  C   UNL     1       5.058   3.037   0.009  0.00  0.00    +0.194 A 
ATOM     23  N   UNL     1       5.264   3.192   1.286  0.00  0.00    -0.059 NA
ATOM     24  O   UNL     1       4.105   2.705   1.945  0.00  0.00    -0.340 OA
BRANCH  22  25
ATOM     25  C   UNL     1       6.018   3.419  -1.087  0.00  0.00    +0.095 C 
ATOM     26  C   UNL     1       6.390   2.175  -1.896  0.00  0.00    +0.040 C 
ATOM     27  C   UNL     1       5.359   4.448  -2.007  0.00  0.00    +0.040 C 
BRANCH  25  28
ATOM     28  N   UNL     1       7.228   3.997  -0.496  0.00  0.00    -0.269 N 
ATOM     29  C   UNL     1       8.233   4.414  -1.292  0.00  0.00    +0.402 C 
ATOM     30  O   UNL     1       8.136   4.310  -2.499  0.00  0.00    -0.226 OA
ATOM     31  H   UNL     1       7.306   4.079   0.467  0.00  0.00    +0.153 HD
BRANCH  29  32
ATOM     32  O   UNL     1       9.345   4.945  -0.749  0.00  0.00    -0.445 OA
BRANCH  32  33
ATOM     33  C   UNL     1      10.370   5.365  -1.652  0.00  0.00    +0.107 C 
ATOM     34  C   UNL     1       9.815   6.441  -2.588  0.00  0.00    +0.055 C 
ATOM     35  C   UNL     1      11.546   5.938  -0.857  0.00  0.00    +0.055 C 
ATOM     36  C   UNL     1      10.847   4.168  -2.476  0.00  0.00    +0.055 C 
ENDBRANCH  32  33
ENDBRANCH  29  32
ENDBRANCH  25  28
ENDBRANCH  22  25
ENDBRANCH  19  20
ENDBRANCH   6  19
TORSDOF 10
