REMARK  Name = ZINC23713105
REMARK  12 active torsions:
REMARK  status: ('A' for Active; 'I' for Inactive)
REMARK    1  A    between atoms: C_1  and  C_2
REMARK    2  A    between atoms: C_8  and  C_10
REMARK    3  A    between atoms: C_10  and  S_11
REMARK    4  A    between atoms: S_11  and  C_12
REMARK    5  A    between atoms: C_12  and  C_13
REMARK    6  A    between atoms: N_15  and  C_16
REMARK    7  A    between atoms: C_16  and  C_17
REMARK    8  A    between atoms: C_17  and  C_19
REMARK    9  A    between atoms: C_17  and  C_28
REMARK   10  A    between atoms: C_22  and  N_25
REMARK   11  A    between atoms: N_25  and  C_26
REMARK   12  A    between atoms: N_25  and  C_27
REMARK                            x       y       z     vdW  Elec       q    Type
REMARK                         _______ _______ _______ _____ _____    ______ ____
ROOT
ATOM      1  C   UNL     1      -2.527  -0.809   0.022  0.00  0.00    +0.068 C 
ENDROOT
BRANCH   1   2
ATOM      2  C   UNL     1      -1.037  -1.037   0.006  0.00  0.00    -0.013 A 
ATOM      3  C   UNL     1      -0.411  -2.224  -0.006  0.00  0.00    +0.088 A 
ATOM      4  N   UNL     1       0.945  -2.036  -0.018  0.00  0.00    -0.360 N 
ATOM      5  H   UNL     1       1.620  -2.904  -0.029  0.00  0.00    +0.165 HD
ATOM      6  C   UNL     1       1.231  -0.689  -0.013  0.00  0.00    +0.047 A 
ATOM      7  C   UNL     1       0.002  -0.004   0.002  0.00  0.00    +0.003 A 
ATOM      8  C   UNL     1      -0.017   1.392   0.010  0.00  0.00    +0.010 A 
ATOM      9  C   UNL     1       1.160   2.086   0.002  0.00  0.00    +0.001 A 
ATOM     10  C   UNL     1       2.375   1.415  -0.013  0.00  0.00    +0.002 A 
ATOM     11  C   UNL     1       2.417   0.038  -0.021  0.00  0.00    +0.026 A 
ENDBRANCH   1   2
BRANCH   1  12
ATOM     12  C   UNL     1      -3.142  -1.429  -1.206  0.00  0.00    -0.038 A 
ATOM     13  C   UNL     1      -3.008  -2.786  -1.435  0.00  0.00    +0.006 A 
ATOM     14  C   UNL     1      -3.576  -3.358  -2.556  0.00  0.00    +0.023 A 
ATOM     15  C   UNL     1      -4.273  -2.567  -3.461  0.00  0.00    +0.029 A 
ATOM     16  C   UNL     1      -4.400  -1.203  -3.231  0.00  0.00    +0.023 A 
ATOM     17  C   UNL     1      -3.835  -0.638  -2.105  0.00  0.00    +0.006 A 
BRANCH  15  18
ATOM     18  N   UNL     1      -4.843  -3.141  -4.599  0.00  0.00    -0.336 N 
ATOM     19  C   UNL     1      -5.577  -2.305  -5.552  0.00  0.00    +0.129 C 
ATOM     20  C   UNL     1      -4.707  -4.580  -4.840  0.00  0.00    +0.129 C 
ENDBRANCH  15  18
ENDBRANCH   1  12
BRANCH   1  21
ATOM     21  C   UNL     1      -3.128  -1.452   1.273  0.00  0.00    +0.117 C 
BRANCH  21  24
ATOM     22  C   UNL     1      -3.015  -1.167   3.691  0.00  0.00    +0.223 C 
ATOM     23  O   UNL     1      -3.792  -2.091   3.807  0.00  0.00    -0.275 OA
ATOM     24  N   UNL     1      -2.619  -0.769   2.466  0.00  0.00    -0.314 N 
ATOM     25  H   UNL     1      -1.914   0.069   2.361  0.00  0.00    +0.149 HD
BRANCH  22  26
ATOM     26  C   UNL     1      -2.491  -0.464   4.917  0.00  0.00    +0.165 C 
BRANCH  26  27
ATOM     27  S   UNL     1      -3.204  -1.226   6.401  0.00  0.00    -0.142 S 
BRANCH  27  28
ATOM     28  C   UNL     1      -2.484  -0.279   7.770  0.00  0.00    +0.165 C 
BRANCH  28  36
ATOM     29  C   UNL     1      -4.984  -2.907  13.730  0.00  0.00    +0.089 C 
ATOM     30  C   UNL     1      -4.125  -1.924  12.976  0.00  0.00    +0.136 A 
ATOM     31  C   UNL     1      -3.985  -1.838  11.634  0.00  0.00    +0.091 A 
ATOM     32  C   UNL     1      -3.076  -0.761  11.453  0.00  0.00    +0.168 A 
ATOM     33  N   UNL     1      -2.774  -0.334  12.651  0.00  0.00    -0.063 NA
ATOM     34  O   UNL     1      -3.352  -0.965  13.505  0.00  0.00    -0.358 OA
ATOM     35  N   UNL     1      -2.598  -0.263  10.241  0.00  0.00    -0.267 N 
ATOM     36  C   UNL     1      -3.000  -0.817   9.079  0.00  0.00    +0.228 C 
ATOM     37  O   UNL     1      -3.778  -1.747   9.088  0.00  0.00    -0.275 OA
ATOM     38  H   UNL     1      -1.893   0.581  10.233  0.00  0.00    +0.156 HD
ENDBRANCH  28  36
ENDBRANCH  27  28
ENDBRANCH  26  27
ENDBRANCH  22  26
ENDBRANCH  21  24
ENDBRANCH   1  21
TORSDOF 9
