REMARK  Name = ZINC44767131
REMARK  5 active torsions:
REMARK  status: ('A' for Active; 'I' for Inactive)
REMARK    1  A    between atoms: C_1  and  C_2
REMARK    2  A    between atoms: C_8  and  N_10
REMARK    3  A    between atoms: N_10  and  C_11
REMARK    4  A    between atoms: C_12  and  C_14
REMARK    5  A    between atoms: C_14  and  C_21
REMARK                            x       y       z     vdW  Elec       q    Type
REMARK                         _______ _______ _______ _____ _____    ______ ____
ROOT
ATOM      1  N   UNL     1       2.101   0.075   1.197  0.00  0.00    -0.300 N 
ATOM      2  C   UNL     1       2.984  -0.263   0.078  0.00  0.00    +0.132 C 
ATOM      3  C   UNL     1       2.556   0.846   2.205  0.00  0.00    +0.236 C 
ATOM      4  O   UNL     1       1.851   1.064   3.167  0.00  0.00    -0.274 OA
ENDROOT
BRANCH   1  11
ATOM      5  C   UNL     1      -0.056   1.669   0.106  0.00  0.00    +0.009 C 
ATOM      6  C   UNL     1      -0.045   0.141   0.027  0.00  0.00    +0.006 C 
ATOM      7  C   UNL     1       0.634  -0.297  -1.272  0.00  0.00    +0.005 C 
ATOM      8  C   UNL     1       0.645  -1.825  -1.351  0.00  0.00    +0.000 C 
ATOM      9  C   UNL     1       1.415  -2.392  -0.156  0.00  0.00    +0.002 C 
ATOM     10  C   UNL     1       0.736  -1.953   1.143  0.00  0.00    +0.023 C 
ATOM     11  C   UNL     1       0.725  -0.425   1.222  0.00  0.00    +0.079 C 
ENDBRANCH   1  11
BRANCH   3  12
ATOM     12  C   UNL     1       3.940   1.439   2.135  0.00  0.00    +0.133 C 
ATOM     13  C   UNL     1       4.976   0.300   2.230  0.00  0.00    +0.031 C 
ATOM     14  C   UNL     1       6.280   0.792   1.663  0.00  0.00    +0.002 C 
ATOM     15  C   UNL     1       7.220   1.352   2.747  0.00  0.00    +0.000 C 
ATOM     16  C   UNL     1       6.483   2.214   3.790  0.00  0.00    +0.000 C 
ATOM     17  C   UNL     1       5.459   3.123   3.166  0.00  0.00    +0.002 C 
ATOM     18  C   UNL     1       4.089   2.416   3.203  0.00  0.00    +0.031 C 
BRANCH  12  19
ATOM     19  C   UNL     1       4.101   2.120   0.840  0.00  0.00    +0.079 C 
ATOM     20  N   UNL     1       4.226   2.646  -0.159  0.00  0.00    -0.195 NA
ENDBRANCH  12  19
ENDBRANCH   3  12
TORSDOF 3
