REMARK  Name = ZINC23366939
REMARK  7 active torsions:
REMARK  status: ('A' for Active; 'I' for Inactive)
REMARK    1  A    between atoms: C_3  and  C_19
REMARK    2  A    between atoms: C_6  and  C_7
REMARK    3  A    between atoms: C_7  and  N_8
REMARK    4  A    between atoms: N_8  and  C_9
REMARK    5  A    between atoms: N_8  and  C_16
REMARK    6  A    between atoms: C_9  and  C_10
REMARK    7  A    between atoms: C_25  and  C_27
REMARK                            x       y       z     vdW  Elec       q    Type
REMARK                         _______ _______ _______ _____ _____    ______ ____
ROOT
ATOM      1  C   UNL     1       5.296   3.585  -3.428  0.00  0.00    +0.002 A 
ATOM      2  C   UNL     1       5.689   3.566  -4.751  0.00  0.00    +0.012 A 
ATOM      3  C   UNL     1       5.530   4.708  -5.538  0.00  0.00    +0.017 A 
ATOM      4  C   UNL     1       4.971   5.860  -4.982  0.00  0.00    +0.012 A 
ATOM      5  C   UNL     1       4.578   5.863  -3.660  0.00  0.00    +0.002 A 
ATOM      6  C   UNL     1       4.738   4.728  -2.885  0.00  0.00    -0.064 A 
ENDROOT
BRANCH   3   7
ATOM      7  C   UNL     1       5.953   4.697  -6.954  0.00  0.00    +0.141 A 
ATOM      8  N   UNL     1       5.791   5.820  -7.710  0.00  0.00    -0.307 N 
ATOM      9  H   UNL     1       5.349   6.724  -7.264  0.00  0.00    +0.170 HD
ATOM     10  C   UNL     1       6.176   5.818  -9.004  0.00  0.00    +0.252 A 
ATOM     11  O   UNL     1       6.039   6.813  -9.696  0.00  0.00    -0.268 OA
ATOM     12  C   UNL     1       6.738   4.642  -9.540  0.00  0.00    +0.093 A 
ATOM     13  C   UNL     1       6.874   3.550  -8.734  0.00  0.00    +0.052 A 
ATOM     14  N   UNL     1       6.484   3.605  -7.463  0.00  0.00    -0.234 NA
BRANCH  13  15
ATOM     15  C   UNL     1       7.472   2.281  -9.283  0.00  0.00    +0.038 C 
ATOM     16  C   UNL     1       6.783   1.004  -8.773  0.00  0.00    +0.010 C 
ATOM     17  C   UNL     1       8.188   0.381  -8.675  0.00  0.00    +0.001 C 
ATOM     18  C   UNL     1       8.727   1.814  -8.527  0.00  0.00    +0.010 C 
ENDBRANCH  13  15
ENDBRANCH   3   7
BRANCH   6  19
ATOM     19  C   UNL     1       4.307   4.739  -1.441  0.00  0.00    -0.042 C 
BRANCH  19  20
ATOM     20  N   UNL     1       2.905   4.310  -1.345  0.00  0.00    +0.387 N 
ATOM     21  H   UNL     1       2.805   3.357  -1.885  0.00  0.00    -0.080 HD
BRANCH  20  22
ATOM     22  C   UNL     1       2.011   5.286  -1.984  0.00  0.00    -0.068 C 
ATOM     23  C   UNL     1       0.972   5.978  -1.099  0.00  0.00    -0.017 C 
ATOM     24  C   UNL     1       0.532   4.914  -2.108  0.00  0.00    -0.017 C 
ENDBRANCH  20  22
BRANCH  20  25
ATOM     25  C   UNL     1       2.519   4.080   0.053  0.00  0.00    -0.042 C 
BRANCH  25  26
ATOM     26  C   UNL     1       3.189   2.829   0.560  0.00  0.00    -0.061 A 
ATOM     27  C   UNL     1       4.380   2.897   1.266  0.00  0.00    +0.021 A 
ATOM     28  C   UNL     1       4.965   1.728   1.714  0.00  0.00    +0.111 A 
ATOM     29  N   UNL     1       4.406   0.558   1.473  0.00  0.00    -0.263 NA
ATOM     30  C   UNL     1       3.271   0.456   0.809  0.00  0.00    +0.111 A 
ATOM     31  C   UNL     1       2.628   1.581   0.330  0.00  0.00    +0.021 A 
ENDBRANCH  25  26
ENDBRANCH  20  25
ENDBRANCH  19  20
ENDBRANCH   6  19
TORSDOF 7
