REMARK  Name = ZINC09915869
REMARK  12 active torsions:
REMARK  status: ('A' for Active; 'I' for Inactive)
REMARK    1  A    between atoms: C_1  and  C_2
REMARK    2  A    between atoms: C_2  and  C_26
REMARK    3  A    between atoms: C_3  and  C_24
REMARK    4  A    between atoms: C_3  and  O_25
REMARK    5  A    between atoms: C_4  and  C_22
REMARK    6  A    between atoms: C_4  and  O_23
REMARK    7  A    between atoms: C_5  and  C_20
REMARK    8  A    between atoms: C_5  and  O_21
REMARK    9  A    between atoms: C_6  and  C_8
REMARK   10  A    between atoms: C_6  and  O_9
REMARK   11  A    between atoms: O_9  and  C_10
REMARK   12  A    between atoms: C_26  and  O_27
REMARK                            x       y       z     vdW  Elec       q    Type
REMARK                         _______ _______ _______ _____ _____    ______ ____
ROOT
ATOM      1  C   UNL     1       2.341   0.964   1.607  0.00  0.00    +0.047 C 
ATOM      2  C   UNL     1       1.250   1.545   2.510  0.00  0.00    +0.125 C 
ATOM      3  C   UNL     1       1.271   3.069   2.437  0.00  0.00    +0.125 C 
ATOM      4  C   UNL     1       0.529   3.621   1.232  0.00  0.00    +0.129 C 
ATOM      5  C   UNL     1      -0.801   2.950   0.939  0.00  0.00    +0.159 C 
ATOM      6  C   UNL     1      -0.777   1.437   1.111  0.00  0.00    +0.242 C 
ATOM      7  O   UNL     1      -0.020   1.010   2.217  0.00  0.00    -0.326 OA
ATOM      8  C   UNL     1      -0.313   0.773  -0.190  0.00  0.00    +0.092 C 
ATOM      9  C   UNL     1      -1.914   3.547   1.809  0.00  0.00    +0.051 C 
ATOM     10  C   UNL     1       0.271   5.124   1.471  0.00  0.00    +0.047 C 
ATOM     11  C   UNL     1       0.713   3.653   3.740  0.00  0.00    +0.047 C 
ENDROOT
BRANCH   5  12
ATOM     12  O   UNL     1      -1.144   3.229  -0.437  0.00  0.00    -0.379 OA
ATOM     13  H   UNL     1      -2.006   2.881  -0.706  0.00  0.00    +0.211 HD
ENDBRANCH   5  12
BRANCH   4  14
ATOM     14  O   UNL     1       1.373   3.519   0.071  0.00  0.00    -0.383 OA
ATOM     15  H   UNL     1       0.967   3.853  -0.741  0.00  0.00    +0.210 HD
ENDBRANCH   4  14
BRANCH   3  16
ATOM     16  O   UNL     1       2.651   3.482   2.340  0.00  0.00    -0.383 OA
ATOM     17  H   UNL     1       3.198   3.208   3.088  0.00  0.00    +0.210 HD
ENDBRANCH   3  16
BRANCH   6  18
ATOM     18  O   UNL     1      -2.145   1.010   1.328  0.00  0.00    -0.458 OA
BRANCH  18  19
ATOM     19  C   UNL     1      -2.349  -0.312   1.559  0.00  0.00    +0.132 A 
ATOM     20  C   UNL     1      -1.285  -1.160   1.688  0.00  0.00    +0.046 A 
ATOM     21  C   UNL     1      -1.478  -2.517   1.931  0.00  0.00    +0.004 A 
ATOM     22  C   UNL     1      -2.730  -3.041   2.036  0.00  0.00    +0.009 A 
ATOM     23  C   UNL     1      -3.850  -2.204   1.904  0.00  0.00    -0.014 A 
ATOM     24  C   UNL     1      -3.660  -0.820   1.663  0.00  0.00    +0.024 A 
ATOM     25  C   UNL     1      -4.779   0.017   1.532  0.00  0.00    +0.012 A 
ATOM     26  C   UNL     1      -6.030  -0.509   1.637  0.00  0.00    +0.001 A 
ATOM     27  C   UNL     1      -6.218  -1.869   1.874  0.00  0.00    +0.001 A 
ATOM     28  C   UNL     1      -5.157  -2.711   2.007  0.00  0.00    +0.008 A 
ENDBRANCH  18  19
ENDBRANCH   6  18
BRANCH   2  29
ATOM     29  C   UNL     1       1.605   1.148   3.962  0.00  0.00    +0.193 C 
BRANCH  29  30
ATOM     30  O   UNL     1       1.743  -0.272   4.048  0.00  0.00    -0.392 OA
ATOM     31  H   UNL     1       1.966  -0.592   4.933  0.00  0.00    +0.210 HD
ENDBRANCH  29  30
ENDBRANCH   2  29
TORSDOF 7
