REMARK  Name = ZINC14476894
REMARK  2 active torsions:
REMARK  status: ('A' for Active; 'I' for Inactive)
REMARK    1  A    between atoms: C_3  and  C_9
REMARK    2  A    between atoms: C_20  and  C_25
REMARK                            x       y       z     vdW  Elec       q    Type
REMARK                         _______ _______ _______ _____ _____    ______ ____
ROOT
ATOM      1  C   UNL     1      -7.347  -0.634  -0.014  0.00  0.00    +0.106 C 
ATOM      2  C   UNL     1      -7.283   0.721  -0.696  0.00  0.00    +0.029 C 
ATOM      3  C   UNL     1      -8.501   1.642  -0.541  0.00  0.00    +0.033 C 
ATOM      4  C   UNL     1      -7.854   3.026  -0.636  0.00  0.00    -0.030 C 
ATOM      5  C   UNL     1      -6.584   2.960  -0.257  0.00  0.00    -0.023 C 
ATOM      6  C   UNL     1      -6.282   1.564   0.150  0.00  0.00    +0.049 C 
ATOM      7  C   UNL     1      -4.936   0.973  -0.019  0.00  0.00    -0.019 A 
ATOM      8  C   UNL     1      -3.795   1.736  -0.036  0.00  0.00    +0.019 A 
ATOM      9  C   UNL     1      -2.545   1.128  -0.181  0.00  0.00    +0.037 A 
ATOM     10  C   UNL     1      -2.462  -0.261  -0.309  0.00  0.00    +0.015 A 
ATOM     11  C   UNL     1      -3.606  -1.023  -0.287  0.00  0.00    +0.024 A 
ATOM     12  C   UNL     1      -4.855  -0.421  -0.152  0.00  0.00    +0.031 A 
ATOM     13  N   UNL     1      -5.997  -1.220  -0.164  0.00  0.00    -0.336 N 
ATOM     14  H   UNL     1      -5.906  -2.179  -0.272  0.00  0.00    +0.147 HD
ENDROOT
BRANCH   1  17
ATOM     15  C   UNL     1      -9.782  -1.982  -2.565  0.00  0.00    +0.002 A 
ATOM     16  C   UNL     1      -8.840  -1.181  -1.947  0.00  0.00    +0.007 A 
ATOM     17  C   UNL     1      -8.374  -1.507  -0.687  0.00  0.00    -0.007 A 
ATOM     18  C   UNL     1      -8.847  -2.638  -0.046  0.00  0.00    +0.064 A 
ATOM     19  C   UNL     1      -9.795  -3.437  -0.663  0.00  0.00    +0.060 A 
ATOM     20  C   UNL     1     -10.260  -3.109  -1.924  0.00  0.00    +0.021 A 
ATOM     21 CL   UNL     1     -10.394  -4.853   0.142  0.00  0.00    -0.082 Cl
ATOM     22 CL   UNL     1      -8.258  -3.052   1.533  0.00  0.00    -0.082 Cl
ENDBRANCH   1  17
BRANCH   9  23
ATOM     23  C   UNL     1      -1.320   1.950  -0.204  0.00  0.00    +0.242 C 
ATOM     24  O   UNL     1      -1.396   3.159  -0.097  0.00  0.00    -0.270 OA
ATOM     25  N   UNL     1      -0.116   1.360  -0.344  0.00  0.00    -0.325 N 
ATOM     26  H   UNL     1      -0.055   0.396  -0.430  0.00  0.00    +0.145 HD
ATOM     27  H   UNL     1       0.690   1.900  -0.364  0.00  0.00    +0.145 HD
ENDBRANCH   9  23
TORSDOF 2
