REMARK  Name = ZINC02472371
REMARK  6 active torsions:
REMARK  status: ('A' for Active; 'I' for Inactive)
REMARK    1  A    between atoms: C_1  and  C_2
REMARK    2  A    between atoms: C_5  and  C_8
REMARK    3  A    between atoms: C_11  and  C_20
REMARK    4  A    between atoms: C_23  and  C_26
REMARK    5  A    between atoms: C_26  and  C_27
REMARK    6  A    between atoms: C_26  and  C_28
REMARK                            x       y       z     vdW  Elec       q    Type
REMARK                         _______ _______ _______ _____ _____    ______ ____
ROOT
ATOM      1  C   UNL     1       2.221   1.263  -1.104  0.00  0.00    +0.106 C 
ATOM      2  C   UNL     1       1.427   1.973  -0.001  0.00  0.00    +0.058 C 
ATOM      3  C   UNL     1      -0.018   1.458   0.010  0.00  0.00    +0.143 C 
ATOM      4  N   UNL     1       0.002  -0.004   0.002  0.00  0.00    -0.224 N 
ATOM      5  C   UNL     1       1.067  -0.751  -0.375  0.00  0.00    +0.216 A 
ATOM      6  N   UNL     1       0.743  -2.011  -0.259  0.00  0.00    -0.180 NA
ATOM      7  C   UNL     1      -0.518  -2.108   0.188  0.00  0.00    +0.233 A 
ATOM      8  N   UNL     1      -1.006  -0.900   0.359  0.00  0.00    -0.132 NA
ATOM      9  N   UNL     1      -1.201  -3.301   0.431  0.00  0.00    -0.326 N 
ATOM     10  N   UNL     1       2.260  -0.180  -0.801  0.00  0.00    -0.307 N 
ATOM     11  H   UNL     1      -0.762  -4.152   0.276  0.00  0.00    +0.145 HD
ATOM     12  H   UNL     1      -2.115  -3.278   0.755  0.00  0.00    +0.145 HD
ATOM     13  H   UNL     1       3.072  -0.702  -0.895  0.00  0.00    +0.149 HD
ENDROOT
BRANCH   1  18
ATOM     14  C   UNL     1      -0.364   2.108  -6.203  0.00  0.00    +0.044 C 
ATOM     15  C   UNL     1       0.310   1.888  -4.873  0.00  0.00    -0.050 A 
ATOM     16  C   UNL     1       1.421   2.636  -4.529  0.00  0.00    +0.004 A 
ATOM     17  C   UNL     1       2.039   2.434  -3.309  0.00  0.00    +0.006 A 
ATOM     18  C   UNL     1       1.547   1.484  -2.434  0.00  0.00    -0.027 A 
ATOM     19  C   UNL     1       0.440   0.732  -2.780  0.00  0.00    +0.006 A 
ATOM     20  C   UNL     1      -0.182   0.938  -3.998  0.00  0.00    +0.004 A 
ENDBRANCH   1  18
BRANCH   3  21
ATOM     21  C   UNL     1      -0.718   1.947   1.252  0.00  0.00    -0.023 A 
ATOM     22  C   UNL     1      -0.229   1.610   2.500  0.00  0.00    +0.006 A 
ATOM     23  C   UNL     1      -0.869   2.062   3.638  0.00  0.00    +0.004 A 
ATOM     24  C   UNL     1      -2.004   2.844   3.529  0.00  0.00    -0.045 A 
ATOM     25  C   UNL     1      -2.497   3.176   2.281  0.00  0.00    +0.004 A 
ATOM     26  C   UNL     1      -1.854   2.728   1.142  0.00  0.00    +0.006 A 
BRANCH  24  27
ATOM     27  C   UNL     1      -2.705   3.332   4.771  0.00  0.00    +0.013 C 
ATOM     28  C   UNL     1      -3.159   2.133   5.605  0.00  0.00    +0.012 C 
ATOM     29  C   UNL     1      -1.743   4.191   5.594  0.00  0.00    +0.012 C 
ENDBRANCH  24  27
ENDBRANCH   3  21
TORSDOF 3
