REMARK  Name = ZINC64678753
REMARK  6 active torsions:
REMARK  status: ('A' for Active; 'I' for Inactive)
REMARK    1  A    between atoms: C_1  and  N_2
REMARK    2  A    between atoms: N_2  and  C_3
REMARK    3  A    between atoms: C_3  and  C_4
REMARK    4  A    between atoms: C_4  and  C_5
REMARK    5  A    between atoms: C_8  and  C_11
REMARK    6  A    between atoms: C_22  and  C_24
REMARK                            x       y       z     vdW  Elec       q    Type
REMARK                         _______ _______ _______ _____ _____    ______ ____
ROOT
ATOM      1  C   UNL     1      -0.684  -1.518   3.271  0.00  0.00    +0.139 C 
ATOM      2  N   UNL     1       0.363  -2.176   3.616  0.00  0.00    -0.072 NA
ATOM      3  O   UNL     1       0.174  -2.811   4.866  0.00  0.00    -0.367 OA
ATOM      4  C   UNL     1      -1.155  -2.474   5.294  0.00  0.00    +0.318 C 
ATOM      5  N   UNL     1      -1.677  -1.619   4.216  0.00  0.00    -0.291 N 
ATOM      6  H   UNL     1      -2.555  -1.207   4.179  0.00  0.00    +0.151 HD
ENDROOT
BRANCH   4   7
ATOM      7  C   UNL     1      -1.112  -1.701   6.614  0.00  0.00    +0.165 C 
ATOM      8  C   UNL     1      -2.516  -1.370   7.070  0.00  0.00    +0.012 C 
ATOM      9  C   UNL     1      -2.674  -1.977   8.268  0.00  0.00    -0.002 A 
ATOM     10  C   UNL     1      -3.796  -2.038   9.211  0.00  0.00    +0.029 A 
ATOM     11  C   UNL     1      -3.653  -2.742  10.358  0.00  0.00    +0.042 A 
ATOM     12  C   UNL     1      -2.460  -3.414  10.666  0.00  0.00    +0.022 A 
ATOM     13  C   UNL     1      -1.386  -3.404   9.849  0.00  0.00    +0.027 A 
ATOM     14  C   UNL     1      -1.427  -2.695   8.617  0.00  0.00    +0.043 A 
ATOM     15  N   UNL     1      -0.531  -2.537   7.670  0.00  0.00    -0.373 N 
ATOM     16 CL   UNL     1      -4.978  -2.816  11.477  0.00  0.00    -0.084 Cl
ATOM     17  H   UNL     1       0.365  -2.910   7.669  0.00  0.00    +0.160 HD
ENDBRANCH   4   7
BRANCH   1  18
ATOM     18  C   UNL     1      -0.806  -0.729   1.992  0.00  0.00    +0.094 C 
BRANCH  18  19
ATOM     19  C   UNL     1       0.493  -0.848   1.193  0.00  0.00    +0.115 C 
BRANCH  19  21
ATOM     20  C   UNL     1       0.771   1.328  -0.081  0.00  0.00    +0.132 C 
ATOM     21  N   UNL     1       0.373  -0.082  -0.049  0.00  0.00    -0.304 N 
ATOM     22  C   UNL     1      -0.102  -0.673  -1.163  0.00  0.00    +0.218 C 
ATOM     23  O   UNL     1      -0.511  -1.814  -1.117  0.00  0.00    -0.275 OA
BRANCH  22  24
ATOM     24  C   UNL     1      -0.124   0.083  -2.467  0.00  0.00    +0.075 C 
ATOM     25  C   UNL     1      -1.244   1.126  -2.432  0.00  0.00    +0.013 C 
ATOM     26  C   UNL     1      -1.267   1.893  -3.755  0.00  0.00    +0.001 C 
ATOM     27  C   UNL     1      -1.515   0.917  -4.907  0.00  0.00    +0.000 C 
ATOM     28  C   UNL     1      -0.396  -0.125  -4.942  0.00  0.00    +0.001 C 
ATOM     29  C   UNL     1      -0.373  -0.893  -3.619  0.00  0.00    +0.013 C 
ENDBRANCH  22  24
ENDBRANCH  19  21
ENDBRANCH  18  19
ENDBRANCH   1  18
TORSDOF 5
