REMARK  Name = ZINC66701881
REMARK  11 active torsions:
REMARK  status: ('A' for Active; 'I' for Inactive)
REMARK    1  A    between atoms: C_1  and  C_2
REMARK    2  A    between atoms: C_7  and  N_10
REMARK    3  A    between atoms: C_11  and  C_13
REMARK    4  A    between atoms: C_13  and  N_14
REMARK    5  A    between atoms: N_22  and  C_23
REMARK    6  A    between atoms: C_23  and  C_25
REMARK    7  A    between atoms: C_23  and  C_26
REMARK    8  A    between atoms: C_26  and  C_27
REMARK    9  A    between atoms: C_27  and  N_28
REMARK   10  A    between atoms: N_28  and  C_29
REMARK   11  A    between atoms: N_28  and  C_30
REMARK                            x       y       z     vdW  Elec       q    Type
REMARK                         _______ _______ _______ _____ _____    ______ ____
ROOT
ATOM      1  N   UNL     1       3.328  -5.576   3.365  0.00  0.00    -0.291 NA
ATOM      2  C   UNL     1       2.249  -6.554   3.168  0.00  0.00    +0.104 C 
ATOM      3  C   UNL     1       2.850  -7.888   2.713  0.00  0.00    +0.124 C 
ATOM      4  N   UNL     1       3.884  -8.289   3.679  0.00  0.00    -0.283 N 
ATOM      5  C   UNL     1       4.924  -7.310   4.031  0.00  0.00    +0.124 C 
ATOM      6  C   UNL     1       4.242  -5.998   4.434  0.00  0.00    +0.104 C 
ATOM      7  C   UNL     1       3.880  -9.520   4.227  0.00  0.00    +0.302 C 
ATOM      8  O   UNL     1       4.792  -9.866   4.953  0.00  0.00    -0.253 OA
ATOM      9  N   UNL     1       2.864 -10.368   3.970  0.00  0.00    -0.297 N 
ATOM     10  H   UNL     1       2.175 -10.121   3.334  0.00  0.00    +0.151 HD
ENDROOT
BRANCH   9  11
ATOM     11  C   UNL     1       2.801 -11.663   4.652  0.00  0.00    +0.070 C 
ATOM     12  C   UNL     1       2.120 -11.492   6.011  0.00  0.00    +0.028 C 
BRANCH  11  13
ATOM     13  C   UNL     1       1.999 -12.649   3.800  0.00  0.00    +0.003 C 
BRANCH  13  14
ATOM     14  C   UNL     1       2.745 -12.917   2.491  0.00  0.00    -0.078 C 
BRANCH  14  15
ATOM     15  N   UNL     1       1.975 -13.864   1.673  0.00  0.00    +0.376 N 
ATOM     16  C   UNL     1       2.629 -14.028   0.368  0.00  0.00    -0.097 C 
ATOM     17  C   UNL     1       1.911 -15.162   2.357  0.00  0.00    -0.097 C 
ATOM     18  H   UNL     1       1.040 -13.509   1.538  0.00  0.00    -0.083 HD
ENDBRANCH  14  15
ENDBRANCH  13  14
ENDBRANCH  11  13
ENDBRANCH   9  11
BRANCH   1  19
ATOM     19  C   UNL     1       2.783  -4.239   3.634  0.00  0.00    +0.180 C 
BRANCH  19  21
ATOM     20  N   UNL     1       1.468  -2.525   2.430  0.00  0.00    -0.311 N 
ATOM     21  C   UNL     1       2.053  -3.739   2.415  0.00  0.00    +0.227 C 
ATOM     22  O   UNL     1       1.992  -4.428   1.419  0.00  0.00    -0.274 OA
ATOM     23  H   UNL     1       1.516  -1.973   3.227  0.00  0.00    +0.149 HD
BRANCH  20  29
ATOM     24  C   UNL     1      -0.026   1.530   0.027  0.00  0.00    +0.007 C 
ATOM     25  C   UNL     1      -0.005  -0.000   0.017  0.00  0.00    -0.012 C 
ATOM     26  C   UNL     1      -1.440  -0.530   0.029  0.00  0.00    +0.003 C 
ATOM     27  C   UNL     1      -1.419  -2.060   0.018  0.00  0.00    +0.002 C 
ATOM     28  C   UNL     1      -0.677  -2.568   1.257  0.00  0.00    +0.022 C 
ATOM     29  C   UNL     1       0.758  -2.038   1.245  0.00  0.00    +0.073 C 
ATOM     30  C   UNL     1       0.737  -0.508   1.255  0.00  0.00    +0.025 C 
ENDBRANCH  20  29
ENDBRANCH  19  21
ENDBRANCH   1  19
TORSDOF 7
