REMARK  Name = ZINC37063617
REMARK  12 active torsions:
REMARK  status: ('A' for Active; 'I' for Inactive)
REMARK    1  A    between atoms: C_1  and  C_2
REMARK    2  A    between atoms: C_2  and  C_3
REMARK    3  A    between atoms: C_2  and  N_4
REMARK    4  A    between atoms: N_4  and  C_5
REMARK    5  A    between atoms: N_4  and  C_19
REMARK    6  A    between atoms: C_5  and  C_6
REMARK    7  A    between atoms: C_6  and  N_7
REMARK    8  A    between atoms: N_7  and  S_8
REMARK    9  A    between atoms: S_8  and  C_11
REMARK   10  A    between atoms: C_16  and  N_17
REMARK   11  A    between atoms: C_19  and  C_20
REMARK   12  A    between atoms: C_19  and  C_21
REMARK                            x       y       z     vdW  Elec       q    Type
REMARK                         _______ _______ _______ _____ _____    ______ ____
ROOT
ATOM      1  S   UNL     1      -3.602   3.605  -2.340  0.00  0.00    +0.060 S 
ATOM      2  O   UNL     1      -4.467   3.801  -3.450  0.00  0.00    -0.153 OA
ATOM      3  O   UNL     1      -4.009   3.862  -1.003  0.00  0.00    -0.153 OA
ENDROOT
BRANCH   1   4
ATOM      4  C   UNL     1      -2.175   4.597  -2.631  0.00  0.00    +0.126 A 
ATOM      5  C   UNL     1      -1.702   5.435  -1.640  0.00  0.00    +0.031 A 
ATOM      6  C   UNL     1      -0.582   6.213  -1.867  0.00  0.00    +0.017 A 
ATOM      7  C   UNL     1       0.068   6.155  -3.088  0.00  0.00    +0.020 A 
ATOM      8  C   UNL     1      -0.400   5.319  -4.083  0.00  0.00    +0.040 A 
ATOM      9  C   UNL     1      -1.522   4.532  -3.855  0.00  0.00    +0.052 A 
ATOM     10 BR   UNL     1       1.599   7.222  -3.393  0.00  0.00    -0.050 Br
BRANCH   9  11
ATOM     11  N   UNL     1      -1.995   3.681  -4.856  0.00  0.00    -0.356 N 
ATOM     12  H   UNL     1      -2.819   3.187  -4.724  0.00  0.00    +0.142 HD
ATOM     13  H   UNL     1      -1.499   3.584  -5.685  0.00  0.00    +0.142 HD
ENDBRANCH   9  11
ENDBRANCH   1   4
BRANCH   1  14
ATOM     14  N   UNL     1      -3.118   2.022  -2.391  0.00  0.00    -0.192 NA
ATOM     15  H   UNL     1      -3.442   1.438  -3.095  0.00  0.00    +0.148 HD
BRANCH  14  16
ATOM     16  C   UNL     1      -2.199   1.504  -1.375  0.00  0.00    +0.087 C 
BRANCH  16  17
ATOM     17  C   UNL     1      -2.269  -0.024  -1.355  0.00  0.00    -0.061 C 
BRANCH  17  18
ATOM     18  N   UNL     1      -1.468  -0.537  -0.236  0.00  0.00    +0.384 N 
ATOM     19  H   UNL     1      -1.759  -0.088   0.620  0.00  0.00    -0.081 HD
BRANCH  18  21
ATOM     20  C   UNL     1       0.213  -0.212  -1.987  0.00  0.00    -0.014 C 
ATOM     21  C   UNL     1      -0.048  -0.252  -0.479  0.00  0.00    -0.074 C 
ATOM     22  C   UNL     1       0.314   1.101   0.137  0.00  0.00    -0.014 C 
ENDBRANCH  18  21
BRANCH  18  23
ATOM     23  C   UNL     1      -1.663  -1.988  -0.119  0.00  0.00    -0.074 C 
ATOM     24  C   UNL     1      -0.928  -2.503   1.121  0.00  0.00    -0.014 C 
ATOM     25  C   UNL     1      -3.157  -2.293   0.011  0.00  0.00    -0.014 C 
ENDBRANCH  18  23
ENDBRANCH  17  18
ENDBRANCH  16  17
ENDBRANCH  14  16
ENDBRANCH   1  14
TORSDOF 8
