REMARK  Name = ZINC65182483
REMARK  11 active torsions:
REMARK  status: ('A' for Active; 'I' for Inactive)
REMARK    1  A    between atoms: C_1  and  C_2
REMARK    2  A    between atoms: C_2  and  C_3
REMARK    3  A    between atoms: C_6  and  C_33
REMARK    4  A    between atoms: C_11  and  C_13
REMARK    5  A    between atoms: C_16  and  C_19
REMARK    6  A    between atoms: C_19  and  C_20
REMARK    7  A    between atoms: C_20  and  N_21
REMARK    8  A    between atoms: N_21  and  C_22
REMARK    9  A    between atoms: C_23  and  C_25
REMARK   10  A    between atoms: C_25  and  C_26
REMARK   11  A    between atoms: C_31  and  C_32
REMARK                            x       y       z     vdW  Elec       q    Type
REMARK                         _______ _______ _______ _____ _____    ______ ____
ROOT
ATOM      1  C   UNL     1      -1.317  -2.687   1.255  0.00  0.00    +0.318 C 
ATOM      2  N   UNL     1      -1.672  -4.115   1.221  0.00  0.00    -0.291 N 
ATOM      3  C   UNL     1      -2.465  -4.355   2.319  0.00  0.00    +0.139 C 
ATOM      4  N   UNL     1      -2.644  -3.290   3.012  0.00  0.00    -0.072 NA
ATOM      5  O   UNL     1      -1.967  -2.186   2.434  0.00  0.00    -0.367 OA
ATOM      6  H   UNL     1      -1.398  -4.762   0.553  0.00  0.00    +0.151 HD
ENDROOT
BRANCH   1  15
ATOM      7  C   UNL     1      -1.412  -0.526   0.013  0.00  0.00    -0.033 C 
ATOM      8  C   UNL     1      -2.549   0.207   0.022  0.00  0.00    -0.000 A 
ATOM      9  C   UNL     1      -2.800   1.653   0.025  0.00  0.00    +0.013 A 
ATOM     10  C   UNL     1      -4.077   2.097   0.035  0.00  0.00    -0.050 A 
ATOM     11  C   UNL     1      -5.165   1.213   0.043  0.00  0.00    +0.005 A 
ATOM     12  C   UNL     1      -5.014  -0.129   0.041  0.00  0.00    +0.026 A 
ATOM     13  C   UNL     1      -3.714  -0.706   0.030  0.00  0.00    +0.043 A 
ATOM     14  N   UNL     1      -3.313  -1.954   0.026  0.00  0.00    -0.373 N 
ATOM     15  C   UNL     1      -1.847  -1.974   0.009  0.00  0.00    +0.169 C 
ATOM     16  C   UNL     1      -4.338   3.581   0.039  0.00  0.00    +0.044 C 
ATOM     17  H   UNL     1      -3.890  -2.734   0.030  0.00  0.00    +0.160 HD
BRANCH   7  19
ATOM     18  C   UNL     1      -0.019   1.526   0.010  0.00  0.00    +0.008 C 
ATOM     19  C   UNL     1       0.002  -0.004   0.002  0.00  0.00    +0.030 C 
ENDBRANCH   7  19
ENDBRANCH   1  15
BRANCH   3  20
ATOM     20  C   UNL     1      -3.050  -5.700   2.664  0.00  0.00    +0.094 C 
BRANCH  20  21
ATOM     21  C   UNL     1      -3.873  -5.583   3.949  0.00  0.00    +0.115 C 
BRANCH  21  22
ATOM     22  N   UNL     1      -4.442  -6.891   4.284  0.00  0.00    -0.304 N 
ATOM     23  C   UNL     1      -3.695  -7.817   5.138  0.00  0.00    +0.132 C 
ATOM     24  C   UNL     1      -5.653  -7.241   3.808  0.00  0.00    +0.220 C 
ATOM     25  O   UNL     1      -6.272  -6.474   3.101  0.00  0.00    -0.275 OA
BRANCH  24  26
ATOM     26  C   UNL     1      -6.238  -8.586   4.153  0.00  0.00    +0.131 C 
BRANCH  26  27
ATOM     27  C   UNL     1      -7.589  -8.729   3.500  0.00  0.00    -0.036 A 
ATOM     28  C   UNL     1      -8.735  -8.412   4.205  0.00  0.00    +0.004 A 
ATOM     29  C   UNL     1      -9.974  -8.543   3.607  0.00  0.00    +0.000 A 
ATOM     30  C   UNL     1     -10.067  -8.990   2.302  0.00  0.00    +0.000 A 
ATOM     31  C   UNL     1      -8.921  -9.307   1.596  0.00  0.00    +0.003 A 
ATOM     32  C   UNL     1      -7.682  -9.172   2.194  0.00  0.00    -0.047 A 
ATOM     33  C   UNL     1      -6.432  -9.512   1.423  0.00  0.00    +0.044 C 
ENDBRANCH  26  27
ENDBRANCH  24  26
ENDBRANCH  21  22
ENDBRANCH  20  21
ENDBRANCH   3  20
TORSDOF 7
