REMARK  Name = ZINC41635998
REMARK  6 active torsions:
REMARK  status: ('A' for Active; 'I' for Inactive)
REMARK    1  A    between atoms: C_1  and  C_2
REMARK    2  A    between atoms: N_7  and  C_9
REMARK    3  A    between atoms: C_9  and  C_11
REMARK    4  A    between atoms: C_9  and  C_19
REMARK    5  A    between atoms: C_16  and  O_17
REMARK    6  A    between atoms: O_17  and  C_18
REMARK                            x       y       z     vdW  Elec       q    Type
REMARK                         _______ _______ _______ _____ _____    ______ ____
ROOT
ATOM      1  C   UNL     1       1.413  -2.463   2.461  0.00  0.00    +0.009 C 
ENDROOT
BRANCH   1   2
ATOM      2  C   UNL     1       1.430  -3.970   2.459  0.00  0.00    +0.050 A 
ATOM      3  C   UNL     1       2.468  -4.803   2.599  0.00  0.00    +0.282 A 
ATOM      4  N   UNL     1       2.281  -6.165   2.571  0.00  0.00    -0.170 N 
ATOM      5  C   UNL     1       1.009  -6.616   2.396  0.00  0.00    +0.199 A 
ATOM      6  S   UNL     1       0.069  -5.113   2.279  0.00  0.00    -0.050 S 
ATOM      7  N   UNL     1       1.004  -7.921   2.391  0.00  0.00    -0.208 NA
ATOM      8  C   UNL     1       2.247  -8.366   2.560  0.00  0.00    +0.246 A 
ATOM      9  N   UNL     1       3.057  -7.348   2.673  0.00  0.00    -0.150 NA
ATOM     10  O   UNL     1       3.719  -4.298   2.771  0.00  0.00    -0.265 OA
ENDBRANCH   1   2
BRANCH   1  16
ATOM     11  C   UNL     1      -0.019   1.526   0.010  0.00  0.00    +0.005 C 
ATOM     12  C   UNL     1       0.002  -0.004   0.002  0.00  0.00    -0.031 C 
ATOM     13  C   UNL     1       0.721  -0.499  -1.257  0.00  0.00    -0.001 C 
ATOM     14  C   UNL     1       0.805  -2.027  -1.217  0.00  0.00    -0.018 C 
ATOM     15  C   UNL     1       1.518  -2.460   0.066  0.00  0.00    -0.077 C 
ATOM     16  N   UNL     1       0.768  -1.979   1.233  0.00  0.00    +0.388 N 
ATOM     17  C   UNL     1       0.744  -0.512   1.240  0.00  0.00    -0.074 C 
ATOM     18  H   UNL     1      -0.177  -2.330   1.192  0.00  0.00    -0.080 HD
ENDBRANCH   1  16
BRANCH   1  19
ATOM     19  C   UNL     1       0.645  -1.970   3.660  0.00  0.00    -0.014 A 
ATOM     20  C   UNL     1      -0.697  -1.662   3.542  0.00  0.00    +0.006 A 
ATOM     21  C   UNL     1      -1.402  -1.209   4.641  0.00  0.00    +0.000 A 
ATOM     22  C   UNL     1      -0.768  -1.064   5.861  0.00  0.00    +0.004 A 
ATOM     23  C   UNL     1       0.573  -1.372   5.984  0.00  0.00    +0.046 A 
ATOM     24  C   UNL     1       1.282  -1.832   4.884  0.00  0.00    +0.122 A 
BRANCH  24  25
ATOM     25  O   UNL     1       2.600  -2.140   5.004  0.00  0.00    -0.495 OA
ATOM     26  C   UNL     1       3.191  -1.973   6.294  0.00  0.00    +0.277 C 
ENDBRANCH  24  25
ENDBRANCH   1  19
TORSDOF 4
