REMARK  Name = ZINC25009167
REMARK  7 active torsions:
REMARK  status: ('A' for Active; 'I' for Inactive)
REMARK    1  A    between atoms: C_1  and  C_2
REMARK    2  A    between atoms: C_5  and  S_8
REMARK    3  A    between atoms: S_8  and  N_11
REMARK    4  A    between atoms: C_14  and  N_17
REMARK    5  A    between atoms: C_18  and  C_20
REMARK    6  A    between atoms: C_27  and  C_32
REMARK    7  A    between atoms: C_29  and  C_31
REMARK                            x       y       z     vdW  Elec       q    Type
REMARK                         _______ _______ _______ _____ _____    ______ ____
ROOT
ATOM      1  N   UNL     1      -7.423  -0.947  -1.765  0.00  0.00    -0.176 NA
ATOM      2  C   UNL     1      -6.626  -1.358  -2.929  0.00  0.00    +0.111 C 
ATOM      3  C   UNL     1      -5.273  -1.883  -2.440  0.00  0.00    +0.039 C 
ATOM      4  C   UNL     1      -4.604  -0.821  -1.564  0.00  0.00    +0.076 C 
ATOM      5  C   UNL     1      -5.482  -0.538  -0.343  0.00  0.00    +0.039 C 
ATOM      6  C   UNL     1      -6.838   0.003  -0.809  0.00  0.00    +0.111 C 
ENDROOT
BRANCH   4   7
ATOM      7  N   UNL     1      -3.295  -1.307  -1.122  0.00  0.00    -0.308 N 
ATOM      8  C   UNL     1      -2.327  -0.429  -0.790  0.00  0.00    +0.248 C 
ATOM      9  O   UNL     1      -2.541   0.766  -0.858  0.00  0.00    -0.270 OA
ATOM     10  H   UNL     1      -3.101  -2.388  -1.060  0.00  0.00    +0.149 HD
BRANCH   8  11
ATOM     11  C   UNL     1      -1.008  -0.919  -0.344  0.00  0.00    +0.079 A 
ATOM     12  C   UNL     1      -0.762  -2.290  -0.265  0.00  0.00    +0.017 A 
ATOM     13  C   UNL     1       0.468  -2.750   0.150  0.00  0.00    +0.001 A 
ATOM     14  C   UNL     1       1.467  -1.849   0.488  0.00  0.00    +0.007 A 
ATOM     15  C   UNL     1       1.236  -0.494   0.410  0.00  0.00    +0.001 A 
ATOM     16  C   UNL     1       0.002  -0.004   0.002  0.00  0.00    +0.137 A 
ATOM     17  O   UNL     1      -0.016   1.354   0.009  0.00  0.00    -0.487 OA
ATOM     18  C   UNL     1       1.334   1.847  -0.001  0.00  0.00    +0.178 C 
ATOM     19  C   UNL     1       2.120   0.706   0.688  0.00  0.00    +0.060 C 
ATOM     20  C   UNL     1       2.243   0.958   2.192  0.00  0.00    +0.016 C 
ATOM     21  C   UNL     1       1.444   3.144   0.804  0.00  0.00    +0.052 C 
ENDBRANCH   8  11
ENDBRANCH   4   7
BRANCH   1  22
ATOM     22  S   UNL     1      -8.950  -1.543  -1.534  0.00  0.00    +0.061 S 
ATOM     23  O   UNL     1      -9.637  -0.599  -0.724  0.00  0.00    -0.153 OA
ATOM     24  O   UNL     1      -9.428  -1.940  -2.812  0.00  0.00    -0.153 OA
BRANCH  22  29
ATOM     25  C   UNL     1      -8.425  -6.576   1.751  0.00  0.00    +0.044 C 
ATOM     26  C   UNL     1      -8.556  -5.319   0.931  0.00  0.00    -0.050 A 
ATOM     27  C   UNL     1      -8.716  -4.098   1.558  0.00  0.00    +0.005 A 
ATOM     28  C   UNL     1      -8.836  -2.945   0.805  0.00  0.00    +0.029 A 
ATOM     29  C   UNL     1      -8.797  -3.013  -0.575  0.00  0.00    +0.105 A 
ATOM     30  C   UNL     1      -8.642  -4.235  -1.202  0.00  0.00    +0.029 A 
ATOM     31  C   UNL     1      -8.517  -5.387  -0.450  0.00  0.00    +0.005 A 
ENDBRANCH  22  29
ENDBRANCH   1  22
TORSDOF 4
