REMARK  Name = ZINC40797632
REMARK  5 active torsions:
REMARK  status: ('A' for Active; 'I' for Inactive)
REMARK    1  A    between atoms: C_1  and  C_2
REMARK    2  A    between atoms: C_11  and  C_13
REMARK    3  A    between atoms: C_11  and  C_14
REMARK    4  A    between atoms: N_16  and  C_17
REMARK    5  A    between atoms: C_18  and  C_26
REMARK                            x       y       z     vdW  Elec       q    Type
REMARK                         _______ _______ _______ _____ _____    ______ ____
ROOT
ATOM      1  C   UNL     1       2.194  -4.685   0.833  0.00  0.00    +0.271 C 
ATOM      2  O   UNL     1       2.938  -4.569   1.784  0.00  0.00    -0.271 OA
ATOM      3  N   UNL     1       2.699  -4.724  -0.416  0.00  0.00    -0.275 N 
ATOM      4  H   UNL     1       2.105  -4.818  -1.177  0.00  0.00    +0.155 HD
ENDROOT
BRANCH   1  15
ATOM      5  C   UNL     1      -0.018   1.503   0.010  0.00  0.00    +0.044 C 
ATOM      6  C   UNL     1       0.002  -0.004   0.002  0.00  0.00    -0.048 A 
ATOM      7  C   UNL     1       0.006  -0.687  -1.200  0.00  0.00    +0.007 A 
ATOM      8  C   UNL     1       0.019  -2.070  -1.216  0.00  0.00    +0.048 A 
ATOM      9  C   UNL     1       0.031  -2.773  -0.024  0.00  0.00    +0.144 A 
ATOM     10  C   UNL     1       0.038  -2.085   1.188  0.00  0.00    +0.076 A 
ATOM     11  C   UNL     1       0.023  -0.700   1.197  0.00  0.00    +0.030 A 
ATOM     12  N   UNL     1       0.086  -2.805   2.389  0.00  0.00    -0.279 N 
ATOM     13  C   UNL     1       0.342  -4.129   2.355  0.00  0.00    +0.270 C 
ATOM     14  O   UNL     1       0.279  -4.788   3.371  0.00  0.00    -0.271 OA
ATOM     15  C   UNL     1       0.706  -4.787   1.048  0.00  0.00    +0.258 C 
ATOM     16  O   UNL     1       0.025  -4.133  -0.026  0.00  0.00    -0.465 OA
ATOM     17  C   UNL     1       0.298  -6.261   1.088  0.00  0.00    +0.076 C 
ATOM     18  H   UNL     1      -0.063  -2.356   3.236  0.00  0.00    +0.155 HD
ENDBRANCH   1  15
BRANCH   3  19
ATOM     19  C   UNL     1       4.070  -4.631  -0.614  0.00  0.00    +0.090 A 
ATOM     20  C   UNL     1       4.760  -4.647  -1.814  0.00  0.00    +0.084 A 
ATOM     21  C   UNL     1       6.206  -4.532  -1.752  0.00  0.00    -0.018 A 
ATOM     22  C   UNL     1       6.698  -4.423  -0.498  0.00  0.00    -0.004 A 
ATOM     23  S   UNL     1       5.271  -4.465   0.548  0.00  0.00    -0.077 S 
ATOM     24  C   UNL     1       8.136  -4.292  -0.104  0.00  0.00    +0.043 C 
ATOM     25  C   UNL     1       9.004  -4.678  -1.311  0.00  0.00    +0.005 C 
ATOM     26  C   UNL     1       8.480  -3.949  -2.551  0.00  0.00    +0.005 C 
ATOM     27  C   UNL     1       7.126  -4.530  -2.964  0.00  0.00    +0.037 C 
BRANCH  20  28
ATOM     28  C   UNL     1       4.076  -4.772  -3.066  0.00  0.00    +0.102 C 
ATOM     29  N   UNL     1       3.533  -4.871  -4.059  0.00  0.00    -0.191 NA
ENDBRANCH  20  28
ENDBRANCH   3  19
TORSDOF 3
