REMARK  Name = ZINC58175529
REMARK  7 active torsions:
REMARK  status: ('A' for Active; 'I' for Inactive)
REMARK    1  A    between atoms: C_3  and  C_6
REMARK    2  A    between atoms: C_6  and  C_8
REMARK    3  A    between atoms: C_6  and  N_24
REMARK    4  A    between atoms: C_8  and  N_9
REMARK    5  A    between atoms: C_10  and  C_12
REMARK    6  A    between atoms: C_16  and  S_19
REMARK    7  A    between atoms: S_19  and  N_22
REMARK                            x       y       z     vdW  Elec       q    Type
REMARK                         _______ _______ _______ _____ _____    ______ ____
ROOT
ATOM      1  N   UNL     1       3.535   2.657   2.263  0.00  0.00    -0.312 N 
ATOM      2  C   UNL     1       3.847   2.742   3.572  0.00  0.00    +0.250 C 
ATOM      3  O   UNL     1       4.671   1.988   4.051  0.00  0.00    -0.270 OA
ATOM      4  H   UNL     1       2.878   3.259   1.881  0.00  0.00    +0.149 HD
ENDROOT
BRANCH   2   5
ATOM      5  C   UNL     1       3.187   3.750   4.423  0.00  0.00    +0.109 A 
ATOM      6  C   UNL     1       1.999   3.437   5.093  0.00  0.00    +0.138 A 
ATOM      7  C   UNL     1       1.388   4.387   5.889  0.00  0.00    +0.041 A 
ATOM      8  C   UNL     1       1.947   5.645   6.024  0.00  0.00    +0.034 A 
ATOM      9  C   UNL     1       3.120   5.964   5.365  0.00  0.00    +0.141 A 
ATOM     10  C   UNL     1       3.748   5.023   4.569  0.00  0.00    +0.164 A 
ATOM     11  F   UNL     1       4.897   5.334   3.931  0.00  0.00    -0.203 F 
ATOM     12  F   UNL     1       1.452   2.209   4.963  0.00  0.00    -0.205 F 
BRANCH   9  13
ATOM     13  S   UNL     1       3.821   7.571   5.544  0.00  0.00    +0.059 S 
ATOM     14  O   UNL     1       4.112   8.036   4.234  0.00  0.00    -0.153 OA
ATOM     15  O   UNL     1       2.975   8.285   6.436  0.00  0.00    -0.153 OA
BRANCH  13  16
ATOM     16  N   UNL     1       5.275   7.387   6.316  0.00  0.00    -0.203 NA
ATOM     17  H   UNL     1       5.579   6.503   6.573  0.00  0.00    +0.144 HD
ATOM     18  H   UNL     1       5.822   8.164   6.510  0.00  0.00    +0.144 HD
ENDBRANCH  13  16
ENDBRANCH   9  13
ENDBRANCH   2   5
BRANCH   1  19
ATOM     19  C   UNL     1       4.191   1.656   1.418  0.00  0.00    +0.094 C 
BRANCH  19  20
ATOM     20  C   UNL     1       3.570   1.684   0.020  0.00  0.00    -0.013 C 
BRANCH  20  21
ATOM     21  N   UNL     1       4.309   0.771  -0.863  0.00  0.00    +0.386 N 
ATOM     22  C   UNL     1       3.731   0.801  -2.230  0.00  0.00    -0.078 C 
ATOM     23  C   UNL     1       4.892   0.285  -3.117  0.00  0.00    -0.020 C 
ATOM     24  C   UNL     1       6.140   0.910  -2.452  0.00  0.00    -0.020 C 
ATOM     25  C   UNL     1       5.710   1.224  -1.007  0.00  0.00    -0.078 C 
ATOM     26  H   UNL     1       4.284  -0.167  -0.493  0.00  0.00    -0.081 HD
ENDBRANCH  20  21
BRANCH  20  29
ATOM     27  C   UNL     1      -0.223   1.384   0.194  0.00  0.00    +0.008 A 
ATOM     28  C   UNL     1       1.008   2.008   0.114  0.00  0.00    +0.009 A 
ATOM     29  C   UNL     1       2.130   1.248   0.100  0.00  0.00    -0.022 A 
ATOM     30  S   UNL     1       1.459  -0.403   0.202  0.00  0.00    -0.103 S 
ATOM     31  C   UNL     1      -0.272   0.031   0.256  0.00  0.00    +0.045 A 
ENDBRANCH  20  29
ENDBRANCH  19  20
ENDBRANCH   1  19
TORSDOF 7
