REMARK  Name = ZINC43224034
REMARK  14 active torsions:
REMARK  status: ('A' for Active; 'I' for Inactive)
REMARK    1  A    between atoms: C_1  and  C_2
REMARK    2  A    between atoms: C_3  and  C_26
REMARK    3  A    between atoms: C_5  and  C_11
REMARK    4  A    between atoms: N_6  and  C_7
REMARK    5  A    between atoms: C_7  and  C_8
REMARK    6  A    between atoms: C_13  and  C_22
REMARK    7  A    between atoms: C_14  and  O_21
REMARK    8  A    between atoms: C_15  and  C_17
REMARK    9  A    between atoms: C_17  and  C_18
REMARK   10  A    between atoms: C_17  and  C_19
REMARK   11  A    between atoms: C_17  and  C_20
REMARK   12  A    between atoms: C_22  and  C_23
REMARK   13  A    between atoms: C_22  and  C_24
REMARK   14  A    between atoms: C_22  and  C_25
REMARK                            x       y       z     vdW  Elec       q    Type
REMARK                         _______ _______ _______ _____ _____    ______ ____
ROOT
ATOM      1  C   UNL     1       0.446  -3.418   1.338  0.00  0.00    -0.001 A 
ATOM      2  C   UNL     1       0.486  -3.393   2.733  0.00  0.00    +0.017 A 
ATOM      3  C   UNL     1       0.708  -4.558   3.436  0.00  0.00    +0.000 A 
ATOM      4  C   UNL     1       0.891  -5.755   2.759  0.00  0.00    +0.124 A 
ATOM      5  C   UNL     1       0.851  -5.785   1.371  0.00  0.00    +0.000 A 
ATOM      6  C   UNL     1       0.624  -4.625   0.661  0.00  0.00    +0.017 A 
ENDROOT
BRANCH   1  11
ATOM      7  C   UNL     1       0.254   1.486   0.167  0.00  0.00    +0.064 C 
ATOM      8  C   UNL     1       0.126  -0.013   0.070  0.00  0.00    +0.028 A 
ATOM      9  C   UNL     1      -0.359  -0.713  -1.014  0.00  0.00    +0.057 A 
ATOM     10  C   UNL     1      -0.301  -2.090  -0.676  0.00  0.00    +0.041 A 
ATOM     11  C   UNL     1       0.208  -2.171   0.580  0.00  0.00    +0.050 A 
ATOM     12  N   UNL     1       0.470  -0.899   1.026  0.00  0.00    -0.343 N 
BRANCH   9  13
ATOM     13  C   UNL     1      -0.845  -0.141  -2.282  0.00  0.00    +0.243 C 
ATOM     14  O   UNL     1      -0.842   1.064  -2.446  0.00  0.00    -0.270 OA
ATOM     15  N   UNL     1      -1.292  -0.953  -3.260  0.00  0.00    -0.325 N 
ATOM     16  H   UNL     1      -1.294  -1.914  -3.129  0.00  0.00    +0.145 HD
ATOM     17  H   UNL     1      -1.612  -0.577  -4.094  0.00  0.00    +0.145 HD
ENDBRANCH   9  13
BRANCH  12  18
ATOM     18  C   UNL     1       1.033  -0.558   2.335  0.00  0.00    +0.125 C 
BRANCH  18  19
ATOM     19  C   UNL     1      -0.102  -0.234   3.309  0.00  0.00    +0.009 C 
ATOM     20  C   UNL     1      -0.169   1.189   3.867  0.00  0.00    +0.005 C 
ATOM     21  C   UNL     1       0.275   0.034   4.767  0.00  0.00    +0.005 C 
ENDBRANCH  18  19
ENDBRANCH  12  18
ENDBRANCH   1  11
BRANCH   5  22
ATOM     22  C   UNL     1       1.050  -7.088   0.640  0.00  0.00    -0.009 C 
ATOM     23  C   UNL     1       0.961  -6.846  -0.868  0.00  0.00    +0.015 C 
ATOM     24  C   UNL     1       2.427  -7.660   0.984  0.00  0.00    +0.015 C 
ATOM     25  C   UNL     1      -0.035  -8.081   1.063  0.00  0.00    +0.015 C 
ENDBRANCH   5  22
BRANCH   3  26
ATOM     26  C   UNL     1       0.753  -4.531   4.942  0.00  0.00    -0.009 C 
ATOM     27  C   UNL     1       0.525  -3.100   5.434  0.00  0.00    +0.015 C 
ATOM     28  C   UNL     1      -0.342  -5.442   5.501  0.00  0.00    +0.015 C 
ATOM     29  C   UNL     1       2.120  -5.023   5.421  0.00  0.00    +0.015 C 
ENDBRANCH   3  26
BRANCH   4  30
ATOM     30  O   UNL     1       1.109  -6.902   3.455  0.00  0.00    -0.506 OA
ATOM     31  H   UNL     1       0.301  -7.382   3.685  0.00  0.00    +0.292 HD
ENDBRANCH   4  30
TORSDOF 7
