REMARK  Name = ZINC36156540
REMARK  11 active torsions:
REMARK  status: ('A' for Active; 'I' for Inactive)
REMARK    1  A    between atoms: C_1  and  C_2
REMARK    2  A    between atoms: C_2  and  C_3
REMARK    3  A    between atoms: C_2  and  C_4
REMARK    4  A    between atoms: C_4  and  N_5
REMARK    5  A    between atoms: N_5  and  C_6
REMARK    6  A    between atoms: N_5  and  C_22
REMARK    7  A    between atoms: C_6  and  C_7
REMARK    8  A    between atoms: C_22  and  C_23
REMARK    9  A    between atoms: C_23  and  C_25
REMARK   10  A    between atoms: C_23  and  O_32
REMARK   11  A    between atoms: C_25  and  C_26
REMARK                            x       y       z     vdW  Elec       q    Type
REMARK                         _______ _______ _______ _____ _____    ______ ____
ROOT
ATOM      1  N   UNL     1      -2.731  -1.708  -0.805  0.00  0.00    +0.386 N 
ATOM      2  H   UNL     1      -2.886  -1.891  -1.785  0.00  0.00    -0.081 HD
ENDROOT
BRANCH   1   3
ATOM      3  C   UNL     1      -2.300  -0.315  -0.628  0.00  0.00    -0.075 C 
BRANCH   3   5
ATOM      4  C   UNL     1      -0.976   1.238   0.813  0.00  0.00    +0.005 C 
ATOM      5  C   UNL     1      -1.539  -0.180   0.692  0.00  0.00    -0.034 C 
ATOM      6  C   UNL     1      -2.490  -0.452   1.859  0.00  0.00    +0.005 C 
ENDBRANCH   3   5
ENDBRANCH   1   3
BRANCH   1   7
ATOM      7  C   UNL     1      -1.690  -2.611  -0.296  0.00  0.00    -0.003 C 
BRANCH   7   8
ATOM      8  C   UNL     1      -0.450  -2.475  -1.142  0.00  0.00    +0.094 A 
ATOM      9  N   UNL     1       0.622  -3.267  -0.886  0.00  0.00    -0.312 N 
ATOM     10  H   UNL     1       0.575  -3.911  -0.161  0.00  0.00    +0.170 HD
ATOM     11  C   UNL     1       1.749  -3.179  -1.617  0.00  0.00    +0.260 A 
ATOM     12  O   UNL     1       2.703  -3.898  -1.375  0.00  0.00    -0.267 OA
ATOM     13  C   UNL     1       1.808  -2.225  -2.685  0.00  0.00    +0.075 A 
ATOM     14  C   UNL     1       2.916  -1.955  -3.601  0.00  0.00    -0.023 A 
ATOM     15  C   UNL     1       2.720  -0.997  -4.532  0.00  0.00    -0.004 A 
ATOM     16  S   UNL     1       1.073  -0.408  -4.246  0.00  0.00    -0.073 S 
ATOM     17  C   UNL     1       0.652  -1.452  -2.874  0.00  0.00    +0.116 A 
ATOM     18  N   UNL     1      -0.428  -1.600  -2.112  0.00  0.00    -0.229 NA
ATOM     19  C   UNL     1       3.690  -0.534  -5.576  0.00  0.00    +0.043 C 
ATOM     20  C   UNL     1       5.087  -1.052  -5.204  0.00  0.00    +0.005 C 
ATOM     21  C   UNL     1       4.981  -2.540  -4.853  0.00  0.00    +0.005 C 
ATOM     22  C   UNL     1       4.240  -2.709  -3.526  0.00  0.00    +0.037 C 
ENDBRANCH   7   8
ENDBRANCH   1   7
BRANCH   1  23
ATOM     23  C   UNL     1      -3.979  -1.932  -0.062  0.00  0.00    -0.046 C 
BRANCH  23  24
ATOM     24  C   UNL     1      -5.145  -1.293  -0.819  0.00  0.00    +0.102 C 
BRANCH  24  25
ATOM     25  O   UNL     1      -5.008   0.129  -0.792  0.00  0.00    -0.393 OA
ATOM     26  H   UNL     1      -4.977   0.504   0.099  0.00  0.00    +0.210 HD
ENDBRANCH  24  25
BRANCH  24  27
ATOM     27  C   UNL     1      -6.464  -1.692  -0.155  0.00  0.00    +0.064 C 
BRANCH  27  28
ATOM     28  C   UNL     1      -7.616  -1.165  -0.970  0.00  0.00    -0.045 A 
ATOM     29  C   UNL     1      -8.127   0.094  -0.712  0.00  0.00    +0.004 A 
ATOM     30  C   UNL     1      -9.184   0.577  -1.460  0.00  0.00    +0.000 A 
ATOM     31  C   UNL     1      -9.730  -0.197  -2.466  0.00  0.00    +0.000 A 
ATOM     32  C   UNL     1      -9.219  -1.455  -2.725  0.00  0.00    +0.000 A 
ATOM     33  C   UNL     1      -8.159  -1.937  -1.980  0.00  0.00    +0.004 A 
ENDBRANCH  27  28
ENDBRANCH  24  27
ENDBRANCH  23  24
ENDBRANCH   1  23
TORSDOF 9
