REMARK  Name = ZINC47146938
REMARK  6 active torsions:
REMARK  status: ('A' for Active; 'I' for Inactive)
REMARK    1  A    between atoms: C_1  and  C_2
REMARK    2  A    between atoms: C_6  and  C_8
REMARK    3  A    between atoms: C_8  and  O_9
REMARK    4  A    between atoms: O_9  and  C_10
REMARK    5  A    between atoms: C_15  and  C_16
REMARK    6  A    between atoms: N_32  and  C_35
REMARK                            x       y       z     vdW  Elec       q    Type
REMARK                         _______ _______ _______ _____ _____    ______ ____
ROOT
ATOM      1  C   UNL     1       4.072  -3.518   3.710  0.00  0.00    +0.075 C 
ATOM      2  C   UNL     1       4.814  -2.538   4.533  0.00  0.00    +0.033 A 
ATOM      3  C   UNL     1       6.141  -2.366   4.673  0.00  0.00    +0.088 A 
ATOM      4  N   UNL     1       6.519  -1.325   5.484  0.00  0.00    -0.311 N 
ATOM      5  H   UNL     1       7.459  -1.122   5.610  0.00  0.00    +0.170 HD
ATOM      6  C   UNL     1       5.581  -0.585   6.104  0.00  0.00    +0.289 A 
ATOM      7  O   UNL     1       5.739   0.360   6.858  0.00  0.00    -0.260 OA
ATOM      8  S   UNL     1       4.138  -1.277   5.588  0.00  0.00    -0.030 S 
ATOM      9  S   UNL     1       7.276  -3.468   3.866  0.00  0.00    -0.093 S 
ATOM     10  C   UNL     1       6.258  -4.393   2.725  0.00  0.00    +0.152 C 
ATOM     11  C   UNL     1       4.860  -4.742   3.251  0.00  0.00    +0.110 C 
ATOM     12  C   UNL     1       4.217  -5.087   1.888  0.00  0.00    +0.232 C 
ATOM     13  O   UNL     1       3.330  -5.889   1.688  0.00  0.00    -0.274 OA
ATOM     14  N   UNL     1       4.835  -4.322   0.964  0.00  0.00    -0.209 N 
ATOM     15  C   UNL     1       5.960  -3.731   1.413  0.00  0.00    +0.240 C 
ATOM     16  O   UNL     1       6.602  -2.859   0.867  0.00  0.00    -0.274 OA
ENDROOT
BRANCH   1  22
ATOM     17  C   UNL     1       1.599  -3.745   4.055  0.00  0.00    +0.125 A 
ATOM     18  C   UNL     1       0.509  -4.191   4.788  0.00  0.00    +0.046 A 
ATOM     19  C   UNL     1       0.707  -4.880   5.969  0.00  0.00    +0.004 A 
ATOM     20  C   UNL     1       1.991  -5.125   6.420  0.00  0.00    +0.001 A 
ATOM     21  C   UNL     1       3.079  -4.681   5.692  0.00  0.00    +0.008 A 
ATOM     22  C   UNL     1       2.886  -3.997   4.507  0.00  0.00    +0.003 A 
BRANCH  17  23
ATOM     23  O   UNL     1       1.406  -3.067   2.893  0.00  0.00    -0.487 OA
BRANCH  23  24
ATOM     24  C   UNL     1       0.054  -2.845   2.489  0.00  0.00    +0.264 C 
BRANCH  24  30
ATOM     25  C   UNL     1      -0.018   1.503   0.010  0.00  0.00    +0.044 C 
ATOM     26  C   UNL     1       0.002  -0.004   0.002  0.00  0.00    -0.050 A 
ATOM     27  C   UNL     1       0.006  -0.689  -1.199  0.00  0.00    +0.003 A 
ATOM     28  C   UNL     1       0.025  -2.071  -1.207  0.00  0.00    +0.001 A 
ATOM     29  C   UNL     1       0.040  -2.768  -0.013  0.00  0.00    +0.007 A 
ATOM     30  C   UNL     1       0.037  -2.084   1.188  0.00  0.00    -0.010 A 
ATOM     31  C   UNL     1       0.023  -0.702   1.195  0.00  0.00    +0.010 A 
ENDBRANCH  24  30
ENDBRANCH  23  24
ENDBRANCH  17  23
ENDBRANCH   1  22
BRANCH  14  32
ATOM     32  C   UNL     1       4.344  -4.147  -0.338  0.00  0.00    +0.044 A 
ATOM     33  C   UNL     1       3.166  -4.770  -0.726  0.00  0.00    +0.024 A 
ATOM     34  C   UNL     1       2.685  -4.595  -2.009  0.00  0.00    +0.002 A 
ATOM     35  C   UNL     1       3.375  -3.801  -2.906  0.00  0.00    +0.000 A 
ATOM     36  C   UNL     1       4.549  -3.178  -2.521  0.00  0.00    +0.002 A 
ATOM     37  C   UNL     1       5.032  -3.345  -1.238  0.00  0.00    +0.024 A 
ENDBRANCH  14  32
TORSDOF 5
