REMARK  Name = ZINC07247966
REMARK  7 active torsions:
REMARK  status: ('A' for Active; 'I' for Inactive)
REMARK    1  A    between atoms: C_1  and  C_2
REMARK    2  A    between atoms: C_2  and  N_3
REMARK    3  A    between atoms: C_7  and  S_9
REMARK    4  A    between atoms: S_9  and  C_10
REMARK    5  A    between atoms: C_10  and  C_11
REMARK    6  A    between atoms: N_16  and  C_17
REMARK    7  A    between atoms: C_23  and  C_25
REMARK                            x       y       z     vdW  Elec       q    Type
REMARK                         _______ _______ _______ _____ _____    ______ ____
ROOT
ATOM      1  C   UNL     1      -0.014   1.208   0.009  0.00  0.00    +0.231 C 
ATOM      2  O   UNL     1       0.002  -0.004   0.002  0.00  0.00    -0.274 OA
ATOM      3  N   UNL     1      -1.191   1.866   0.018  0.00  0.00    -0.240 N 
ATOM      4  C   UNL     1      -2.349   1.176   0.020  0.00  0.00    +0.306 C 
ATOM      5  O   UNL     1      -2.332  -0.039   0.013  0.00  0.00    -0.252 OA
ATOM      6  N   UNL     1      -3.525   1.834   0.029  0.00  0.00    -0.296 N 
ATOM      7  H   UNL     1      -1.204   2.836   0.023  0.00  0.00    +0.159 HD
ATOM      8  H   UNL     1      -3.538   2.804   0.034  0.00  0.00    +0.151 HD
ENDROOT
BRANCH   6   9
ATOM      9  C   UNL     1      -4.783   1.085   0.031  0.00  0.00    +0.077 C 
ATOM     10  C   UNL     1      -5.150   0.708   1.467  0.00  0.00    +0.022 C 
ATOM     11  C   UNL     1      -6.465  -0.075   1.469  0.00  0.00    +0.002 C 
ATOM     12  C   UNL     1      -7.575   0.790   0.870  0.00  0.00    +0.000 C 
ATOM     13  C   UNL     1      -7.208   1.167  -0.567  0.00  0.00    +0.005 C 
ATOM     14  C   UNL     1      -5.893   1.950  -0.569  0.00  0.00    +0.006 C 
ATOM     15  C   UNL     1      -5.526   2.327  -2.006  0.00  0.00    +0.009 C 
ENDBRANCH   6   9
BRANCH   1  16
ATOM     16  C   UNL     1       1.280   1.979   0.001  0.00  0.00    +0.172 C 
BRANCH  16  17
ATOM     17  S   UNL     1       2.675   0.819  -0.019  0.00  0.00    -0.088 S 
BRANCH  17  22
ATOM     18  N   UNL     1       7.823   3.485  -0.054  0.00  0.00    -0.322 N 
ATOM     19  C   UNL     1       6.496   3.072  -0.043  0.00  0.00    +0.182 A 
ATOM     20  N   UNL     1       5.395   3.798  -0.029  0.00  0.00    -0.125 NA
ATOM     21  N   UNL     1       4.167   3.179  -0.026  0.00  0.00    -0.133 NA
ATOM     22  C   UNL     1       4.096   1.861  -0.027  0.00  0.00    +0.160 A 
ATOM     23  S   UNL     1       5.826   1.416  -0.046  0.00  0.00    -0.025 S 
ATOM     24  H   UNL     1       8.536   2.827  -0.065  0.00  0.00    +0.148 HD
BRANCH  18  26
ATOM     25  C   UNL     1       9.665   5.094  -0.064  0.00  0.00    +0.024 C 
ATOM     26  C   UNL     1       8.146   4.914  -0.050  0.00  0.00    +0.100 C 
ENDBRANCH  18  26
ENDBRANCH  17  22
ENDBRANCH  16  17
ENDBRANCH   1  16
TORSDOF 5
