REMARK  Name = ZINC01380894
REMARK  6 active torsions:
REMARK  status: ('A' for Active; 'I' for Inactive)
REMARK    1  A    between atoms: C_4  and  C_7
REMARK    2  A    between atoms: C_7  and  N_8
REMARK    3  A    between atoms: C_9  and  C_11
REMARK    4  A    between atoms: N_22  and  C_34
REMARK    5  A    between atoms: C_23  and  C_25
REMARK    6  A    between atoms: N_27  and  C_28
REMARK                            x       y       z     vdW  Elec       q    Type
REMARK                         _______ _______ _______ _____ _____    ______ ____
ROOT
ATOM      1  C   UNL     1       5.764  -1.853   2.984  0.00  0.00    +0.122 C 
ATOM      2  C   UNL     1       6.060  -0.508   3.724  0.00  0.00    +0.155 C 
ATOM      3  C   UNL     1       7.026   0.285   2.838  0.00  0.00    +0.004 C 
ATOM      4  C   UNL     1       8.223  -0.310   2.921  0.00  0.00    +0.009 C 
ATOM      5  C   UNL     1       7.976  -1.473   3.813  0.00  0.00    +0.127 C 
ATOM      6  C   UNL     1       7.143  -2.536   3.006  0.00  0.00    +0.128 C 
ATOM      7  C   UNL     1       7.237  -3.743   3.897  0.00  0.00    +0.224 C 
ATOM      8  O   UNL     1       6.437  -4.654   3.931  0.00  0.00    -0.275 OA
ATOM      9  N   UNL     1       8.357  -3.652   4.658  0.00  0.00    -0.283 N 
ATOM     10  C   UNL     1       9.048  -2.327   4.416  0.00  0.00    +0.199 C 
ATOM     11  O   UNL     1       6.973  -0.993   4.774  0.00  0.00    -0.358 OA
ENDROOT
BRANCH   1  13
ATOM     12  N   UNL     1       4.152  -0.952   1.338  0.00  0.00    -0.311 N 
ATOM     13  C   UNL     1       5.311  -1.601   1.569  0.00  0.00    +0.220 C 
ATOM     14  O   UNL     1       5.989  -1.981   0.638  0.00  0.00    -0.275 OA
ATOM     15  H   UNL     1       3.610  -0.648   2.082  0.00  0.00    +0.149 HD
BRANCH  12  16
ATOM     16  C   UNL     1       3.711  -0.707  -0.038  0.00  0.00    +0.139 C 
BRANCH  16  20
ATOM     17  C   UNL     1      -0.017   1.378   0.010  0.00  0.00    +0.000 A 
ATOM     18  C   UNL     1       1.171   2.086   0.002  0.00  0.00    +0.000 A 
ATOM     19  C   UNL     1       2.377   1.411  -0.013  0.00  0.00    +0.005 A 
ATOM     20  C   UNL     1       2.396   0.029  -0.020  0.00  0.00    -0.030 A 
ATOM     21  C   UNL     1       1.208  -0.679  -0.012  0.00  0.00    +0.005 A 
ATOM     22  C   UNL     1       0.002  -0.004   0.002  0.00  0.00    +0.000 A 
ENDBRANCH  16  20
ENDBRANCH  12  16
ENDBRANCH   1  13
BRANCH  10  23
ATOM     23  C   UNL     1       9.505  -1.751   5.731  0.00  0.00    +0.237 C 
ATOM     24  O   UNL     1       9.089  -2.212   6.772  0.00  0.00    -0.274 OA
ATOM     25  N   UNL     1      10.377  -0.724   5.750  0.00  0.00    -0.311 N 
ATOM     26  H   UNL     1      10.711  -0.355   4.917  0.00  0.00    +0.149 HD
BRANCH  25  27
ATOM     27  C   UNL     1      10.822  -0.164   7.029  0.00  0.00    +0.073 C 
ATOM     28  C   UNL     1       9.809   0.878   7.509  0.00  0.00    +0.022 C 
ATOM     29  C   UNL     1      10.274   1.463   8.845  0.00  0.00    +0.002 C 
ATOM     30  C   UNL     1      11.641   2.126   8.664  0.00  0.00    +0.000 C 
ATOM     31  C   UNL     1      12.653   1.084   8.184  0.00  0.00    +0.002 C 
ATOM     32  C   UNL     1      12.189   0.499   6.848  0.00  0.00    +0.022 C 
ENDBRANCH  25  27
ENDBRANCH  10  23
BRANCH   9  33
ATOM     33  C   UNL     1       8.838  -4.702   5.559  0.00  0.00    +0.077 C 
ATOM     34  C   UNL     1       8.138  -6.061   5.497  0.00  0.00    +0.024 C 
ATOM     35  C   UNL     1       7.911  -5.138   6.695  0.00  0.00    +0.024 C 
ENDBRANCH   9  33
TORSDOF 6
