REMARK  Name = ZINC65601941
REMARK  8 active torsions:
REMARK  status: ('A' for Active; 'I' for Inactive)
REMARK    1  A    between atoms: C_1  and  C_2
REMARK    2  A    between atoms: C_5  and  N_9
REMARK    3  A    between atoms: C_10  and  C_12
REMARK    4  A    between atoms: N_14  and  C_15
REMARK    5  A    between atoms: C_15  and  C_16
REMARK    6  A    between atoms: C_16  and  C_17
REMARK    7  A    between atoms: C_16  and  N_18
REMARK    8  A    between atoms: C_21  and  C_24
REMARK                            x       y       z     vdW  Elec       q    Type
REMARK                         _______ _______ _______ _____ _____    ______ ____
ROOT
ATOM      1  C   UNL     1      -0.081  -6.481  -1.047  0.00  0.00    +0.299 C 
ATOM      2  O   UNL     1       0.019  -7.150  -0.039  0.00  0.00    -0.265 OA
ATOM      3  N   UNL     1      -0.224  -7.083  -2.244  0.00  0.00    -0.309 N 
ATOM      4  H   UNL     1      -0.304  -6.548  -3.050  0.00  0.00    +0.149 HD
ENDROOT
BRANCH   1   6
ATOM      5  N   UNL     1       0.097  -4.389   0.237  0.00  0.00    -0.277 N 
ATOM      6  C   UNL     1      -0.046  -4.991  -0.960  0.00  0.00    +0.303 C 
ATOM      7  O   UNL     1      -0.146  -4.321  -1.968  0.00  0.00    -0.265 OA
ATOM      8  H   UNL     1       0.257  -4.921   1.032  0.00  0.00    +0.155 HD
BRANCH   5  13
ATOM      9  C   UNL     1      -0.235   1.260   0.629  0.00  0.00    +0.044 C 
ATOM     10  C   UNL     1      -0.146  -0.241   0.525  0.00  0.00    -0.049 A 
ATOM     11  C   UNL     1      -0.768  -0.898  -0.521  0.00  0.00    +0.005 A 
ATOM     12  C   UNL     1      -0.689  -2.273  -0.619  0.00  0.00    +0.025 A 
ATOM     13  C   UNL     1       0.016  -2.997   0.334  0.00  0.00    +0.048 A 
ATOM     14  C   UNL     1       0.640  -2.334   1.384  0.00  0.00    +0.039 A 
ATOM     15  C   UNL     1       0.561  -0.957   1.473  0.00  0.00    +0.020 A 
ATOM     16 BR   UNL     1       1.601  -3.314   2.685  0.00  0.00    -0.048 Br
ENDBRANCH   5  13
ENDBRANCH   1   6
BRANCH   3  17
ATOM     17  C   UNL     1      -0.258  -8.545  -2.330  0.00  0.00    +0.089 C 
BRANCH  17  18
ATOM     18  C   UNL     1      -0.299  -8.970  -3.799  0.00  0.00    -0.054 C 
ATOM     19  C   UNL     1      -0.202 -10.494  -3.893  0.00  0.00    -0.012 C 
BRANCH  18  20
ATOM     20  N   UNL     1       0.830  -8.362  -4.516  0.00  0.00    +0.382 N 
ATOM     21  C   UNL     1       2.089  -8.906  -3.992  0.00  0.00    -0.078 C 
ATOM     22  C   UNL     1       3.271  -8.217  -4.679  0.00  0.00    -0.016 C 
ATOM     23  C   UNL     1       3.193  -8.466  -6.188  0.00  0.00    -0.018 C 
ATOM     24  C   UNL     1       1.845  -7.962  -6.710  0.00  0.00    -0.016 C 
ATOM     25  C   UNL     1       0.716  -8.660  -5.948  0.00  0.00    -0.078 C 
ATOM     26  C   UNL     1       4.327  -7.715  -6.889  0.00  0.00    +0.007 C 
ATOM     27  H   UNL     1       0.815  -7.362  -4.379  0.00  0.00    -0.081 HD
ENDBRANCH  18  20
ENDBRANCH  17  18
ENDBRANCH   3  17
TORSDOF 5
