REMARK  Name = ZINC00282316
REMARK  1 active torsions:
REMARK  status: ('A' for Active; 'I' for Inactive)
REMARK    1  A    between atoms: C_6  and  C_7
REMARK                            x       y       z     vdW  Elec       q    Type
REMARK                         _______ _______ _______ _____ _____    ______ ____
ROOT
ATOM      1  C   UNL     1       1.164   1.755   0.009  0.00  0.00    +0.006 A 
ATOM      2  C   UNL     1      -0.015   1.029   0.021  0.00  0.00    +0.027 A 
ATOM      3  C   UNL     1      -1.206   1.750   0.021  0.00  0.00    +0.050 A 
ATOM      4  C   UNL     1      -1.188   3.177   0.028  0.00  0.00    +0.004 A 
ATOM      5  C   UNL     1       0.021   3.879   0.011  0.00  0.00    +0.014 A 
ATOM      6  C   UNL     1       1.176   3.139   0.002  0.00  0.00    -0.044 A 
ATOM      7  C   UNL     1      -2.564   3.591   0.053  0.00  0.00    -0.017 A 
ATOM      8  C   UNL     1      -3.301   2.461   0.055  0.00  0.00    +0.044 A 
ATOM      9  N   UNL     1      -2.512   1.349   0.005  0.00  0.00    -0.340 N 
ATOM     10  C   UNL     1      -3.065  -0.009  -0.091  0.00  0.00    +0.141 C 
ATOM     11  C   UNL     1      -4.545   0.012   0.301  0.00  0.00    +0.131 C 
ATOM     12  N   UNL     1      -5.238   1.155  -0.316  0.00  0.00    -0.276 N 
ATOM     13  C   UNL     1      -4.814   2.508   0.100  0.00  0.00    +0.125 C 
ATOM     14  C   UNL     1      -5.284   3.560  -0.863  0.00  0.00    +0.029 C 
ATOM     15  C   UNL     1      -4.467   4.830  -0.910  0.00  0.00    +0.007 C 
ATOM     16  C   UNL     1      -3.275   4.915   0.034  0.00  0.00    +0.037 C 
ATOM     17  C   UNL     1      -6.220   0.975  -1.222  0.00  0.00    +0.300 C 
ATOM     18  O   UNL     1      -6.847   1.930  -1.636  0.00  0.00    -0.253 OA
ATOM     19  N   UNL     1      -6.506  -0.264  -1.668  0.00  0.00    -0.313 N 
ATOM     20  H   UNL     1      -6.056  -1.033  -1.285  0.00  0.00    +0.146 HD
ATOM     21  H   UNL     1      -7.162  -0.387  -2.372  0.00  0.00    +0.146 HD
ENDROOT
BRANCH   6  22
ATOM     22  C   UNL     1       2.502   3.857  -0.015  0.00  0.00    +0.019 C 
ATOM     23  C   UNL     1       3.280   3.459  -1.271  0.00  0.00    +0.008 C 
ATOM     24  C   UNL     1       4.625   4.187  -1.289  0.00  0.00    +0.001 C 
ATOM     25  C   UNL     1       5.431   3.802  -0.046  0.00  0.00    +0.000 C 
ATOM     26  C   UNL     1       4.652   4.199   1.209  0.00  0.00    +0.001 C 
ATOM     27  C   UNL     1       3.307   3.471   1.227  0.00  0.00    +0.008 C 
ENDBRANCH   6  22
TORSDOF 1
