REMARK  Name = ZINC58467221
REMARK  8 active torsions:
REMARK  status: ('A' for Active; 'I' for Inactive)
REMARK    1  A    between atoms: C_1  and  O_2
REMARK    2  A    between atoms: O_2  and  C_3
REMARK    3  A    between atoms: C_6  and  O_29
REMARK    4  A    between atoms: C_7  and  C_9
REMARK    5  A    between atoms: N_17  and  C_18
REMARK    6  A    between atoms: C_18  and  C_20
REMARK    7  A    between atoms: C_18  and  C_26
REMARK    8  A    between atoms: O_29  and  C_30
REMARK                            x       y       z     vdW  Elec       q    Type
REMARK                         _______ _______ _______ _____ _____    ______ ____
ROOT
ATOM      1  C   UNL     1       1.323  -4.108  -2.285  0.00  0.00    +0.111 C 
ATOM      2  C   UNL     1       0.218  -4.623  -3.231  0.00  0.00    +0.029 C 
ATOM      3  C   UNL     1      -0.272  -5.914  -2.522  0.00  0.00    +0.021 C 
ATOM      4  C   UNL     1      -0.150  -5.515  -1.030  0.00  0.00    +0.110 C 
ATOM      5  N   UNL     1       1.072  -4.689  -0.958  0.00  0.00    -0.278 N 
ATOM      6  C   UNL     1       1.832  -4.498   0.139  0.00  0.00    +0.303 C 
ATOM      7  O   UNL     1       2.821  -3.794   0.079  0.00  0.00    -0.253 OA
ATOM      8  N   UNL     1       1.495  -5.089   1.303  0.00  0.00    -0.292 N 
ATOM      9  H   UNL     1       0.706  -5.651   1.351  0.00  0.00    +0.151 HD
ENDROOT
BRANCH   1  14
ATOM     10  C   UNL     1       0.606  -0.608  -1.056  0.00  0.00    +0.121 A 
ATOM     11  C   UNL     1       1.173   0.161  -2.062  0.00  0.00    +0.049 A 
ATOM     12  C   UNL     1       1.786  -0.452  -3.138  0.00  0.00    +0.049 A 
ATOM     13  C   UNL     1       1.835  -1.836  -3.211  0.00  0.00    +0.125 A 
ATOM     14  C   UNL     1       1.269  -2.604  -2.205  0.00  0.00    +0.018 A 
ATOM     15  C   UNL     1       0.661  -1.991  -1.127  0.00  0.00    +0.054 A 
BRANCH  10  17
ATOM     16  C   UNL     1      -0.017   1.425   0.010  0.00  0.00    +0.277 C 
ATOM     17  O   UNL     1       0.002  -0.004   0.002  0.00  0.00    -0.495 OA
ENDBRANCH  10  17
BRANCH  13  18
ATOM     18  O   UNL     1       2.439  -2.439  -4.270  0.00  0.00    -0.495 OA
ATOM     19  C   UNL     1       3.000  -1.586  -5.269  0.00  0.00    +0.277 C 
ENDBRANCH  13  18
ENDBRANCH   1  14
BRANCH   8  20
ATOM     20  C   UNL     1       2.320  -4.881   2.495  0.00  0.00    +0.108 C 
BRANCH  20  21
ATOM     21  C   UNL     1       1.481  -5.088   3.729  0.00  0.00    -0.027 A 
ATOM     22  C   UNL     1       0.557  -6.116   3.773  0.00  0.00    +0.005 A 
ATOM     23  C   UNL     1      -0.213  -6.306   4.905  0.00  0.00    +0.000 A 
ATOM     24  C   UNL     1      -0.059  -5.468   5.994  0.00  0.00    +0.000 A 
ATOM     25  C   UNL     1       0.866  -4.442   5.951  0.00  0.00    +0.000 A 
ATOM     26  C   UNL     1       1.639  -4.255   4.821  0.00  0.00    +0.005 A 
ENDBRANCH  20  21
BRANCH  20  27
ATOM     27  C   UNL     1       3.479  -5.881   2.493  0.00  0.00    +0.014 C 
ATOM     28  C   UNL     1       4.891  -5.325   2.690  0.00  0.00    +0.006 C 
ATOM     29  C   UNL     1       4.453  -5.831   1.314  0.00  0.00    +0.006 C 
ENDBRANCH  20  27
ENDBRANCH   8  20
TORSDOF 6
