REMARK  Name = ZINC09339590
REMARK  14 active torsions:
REMARK  status: ('A' for Active; 'I' for Inactive)
REMARK    1  A    between atoms: C_1  and  C_2
REMARK    2  A    between atoms: C_2  and  O_3
REMARK    3  A    between atoms: O_3  and  C_4
REMARK    4  A    between atoms: C_7  and  C_10
REMARK    5  A    between atoms: C_13  and  C_14
REMARK    6  A    between atoms: C_13  and  O_24
REMARK    7  A    between atoms: C_17  and  O_21
REMARK    8  A    between atoms: O_21  and  C_22
REMARK    9  A    between atoms: C_22  and  C_23
REMARK   10  A    between atoms: N_29  and  C_30
REMARK   11  A    between atoms: C_30  and  C_31
REMARK   12  A    between atoms: C_31  and  N_62
REMARK   13  A    between atoms: C_32  and  N_62
REMARK   14  A    between atoms: C_33  and  N_62
REMARK                            x       y       z     vdW  Elec       q    Type
REMARK                         _______ _______ _______ _____ _____    ______ ____
ROOT
ATOM      1  C   UNL     1       0.645   3.383   0.120  0.00  0.00    +0.144 C 
ATOM      2  C   UNL     1      -0.852   3.407  -0.089  0.00  0.00    +0.071 C 
ATOM      3  C   UNL     1      -1.691   4.496   0.042  0.00  0.00    +0.133 C 
ATOM      4  C   UNL     1      -1.216   2.101  -0.450  0.00  0.00    +0.249 C 
ATOM      5  O   UNL     1      -2.344   1.720  -0.707  0.00  0.00    -0.282 OA
ATOM      6  C   UNL     1       0.013   1.262  -0.462  0.00  0.00    +0.288 C 
ATOM      7  O   UNL     1       0.045   0.079  -0.731  0.00  0.00    -0.266 OA
ATOM      8  N   UNL     1       1.082   2.008  -0.136  0.00  0.00    -0.285 N 
ENDROOT
BRANCH   3   9
ATOM      9  C   UNL     1      -3.148   4.319  -0.056  0.00  0.00    +0.019 A 
ATOM     10  C   UNL     1      -3.899   5.136  -0.909  0.00  0.00    +0.015 A 
ATOM     11  C   UNL     1      -5.261   4.963  -1.002  0.00  0.00    +0.048 A 
ATOM     12  C   UNL     1      -5.894   3.985  -0.242  0.00  0.00    +0.139 A 
ATOM     13  C   UNL     1      -5.153   3.174   0.613  0.00  0.00    +0.083 A 
ATOM     14  C   UNL     1      -3.788   3.336   0.708  0.00  0.00    +0.035 A 
ATOM     15 CL   UNL     1      -5.949   1.955   1.558  0.00  0.00    -0.080 Cl
BRANCH  12  16
ATOM     16  O   UNL     1      -7.238   3.822  -0.333  0.00  0.00    -0.491 OA
BRANCH  16  17
ATOM     17  C   UNL     1      -7.938   4.688  -1.229  0.00  0.00    +0.226 C 
ATOM     18  C   UNL     1      -9.431   4.357  -1.196  0.00  0.00    +0.048 C 
ENDBRANCH  16  17
ENDBRANCH  12  16
ENDBRANCH   3   9
BRANCH   1  22
ATOM     19  C   UNL     1       2.547   6.056  -2.618  0.00  0.00    +0.121 A 
ATOM     20  C   UNL     1       2.380   6.424  -1.291  0.00  0.00    +0.046 A 
ATOM     21  C   UNL     1       1.764   5.558  -0.408  0.00  0.00    +0.009 A 
ATOM     22  C   UNL     1       1.316   4.326  -0.846  0.00  0.00    -0.022 A 
ATOM     23  C   UNL     1       1.486   3.955  -2.167  0.00  0.00    +0.009 A 
ATOM     24  C   UNL     1       2.096   4.819  -3.055  0.00  0.00    +0.046 A 
BRANCH  19  25
ATOM     25  O   UNL     1       3.152   6.907  -3.489  0.00  0.00    -0.492 OA
BRANCH  25  27
ATOM     26  C   UNL     1       3.989   7.545  -5.664  0.00  0.00    +0.048 C 
ATOM     27  C   UNL     1       3.291   6.462  -4.839  0.00  0.00    +0.225 C 
ENDBRANCH  25  27
ENDBRANCH  19  25
ENDBRANCH   1  22
BRANCH   3  28
ATOM     28  O   UNL     1      -1.174   5.724   0.260  0.00  0.00    -0.506 OA
ATOM     29  H   UNL     1      -1.916   6.391   0.330  0.00  0.00    +0.292 HD
ENDBRANCH   3  28
BRANCH   8  30
ATOM     30  C   UNL     1       2.462   1.524  -0.049  0.00  0.00    +0.090 C 
BRANCH  30  31
ATOM     31  C   UNL     1       3.143   1.677  -1.411  0.00  0.00    -0.060 C 
BRANCH  31  34
ATOM     32  C   UNL     1       4.562  -0.256  -1.077  0.00  0.00    -0.097 C 
ATOM     33  C   UNL     1       5.283   1.538  -2.535  0.00  0.00    -0.097 C 
ATOM     34  N   UNL     1       4.539   1.205  -1.302  0.00  0.00    +0.377 N 
ATOM     35  H   UNL     1       4.988   1.672  -0.506  0.00  0.00    -0.083 HD
ENDBRANCH  31  34
ENDBRANCH  30  31
ENDBRANCH   8  30
TORSDOF 10
