REMARK  Name = ZINC40657730
REMARK  6 active torsions:
REMARK  status: ('A' for Active; 'I' for Inactive)
REMARK    1  A    between atoms: C_1  and  C_2
REMARK    2  A    between atoms: C_7  and  C_8
REMARK    3  A    between atoms: N_10  and  N_11
REMARK    4  A    between atoms: C_13  and  N_30
REMARK    5  A    between atoms: C_14  and  O_18
REMARK    6  A    between atoms: O_18  and  C_19
REMARK                            x       y       z     vdW  Elec       q    Type
REMARK                         _______ _______ _______ _____ _____    ______ ____
ROOT
ATOM      1  N   UNL     1       0.417  -0.007   4.862  0.00  0.00    -0.246 N 
ATOM      2  C   UNL     1       0.629  -0.696   6.046  0.00  0.00    +0.172 A 
ATOM      3  C   UNL     1       0.834  -0.006   7.238  0.00  0.00    +0.228 A 
ATOM      4  C   UNL     1       1.042  -0.742   8.398  0.00  0.00    +0.256 A 
ATOM      5  N   UNL     1       1.037  -2.071   8.329  0.00  0.00    -0.199 NA
ATOM      6  C   UNL     1       0.840  -2.689   7.182  0.00  0.00    +0.227 A 
ATOM      7  N   UNL     1       0.633  -2.027   6.061  0.00  0.00    -0.217 NA
ATOM      8  H   UNL     1       0.415   0.963   4.859  0.00  0.00    +0.172 HD
ENDROOT
BRANCH   1  11
ATOM      9  C   UNL     1       0.000  -0.042   2.518  0.00  0.00    +0.260 C 
ATOM     10  O   UNL     1      -0.002   1.174   2.515  0.00  0.00    -0.269 OA
ATOM     11  N   UNL     1       0.206  -0.712   3.670  0.00  0.00    -0.231 N 
ATOM     12  H   UNL     1       0.208  -1.681   3.673  0.00  0.00    +0.173 HD
BRANCH   9  19
ATOM     13  C   UNL     1      -0.719   1.398   0.114  0.00  0.00    +0.044 C 
ATOM     14  C   UNL     1      -0.570  -0.102   0.094  0.00  0.00    -0.038 A 
ATOM     15  C   UNL     1      -0.770  -0.801  -1.078  0.00  0.00    +0.004 A 
ATOM     16  C   UNL     1      -0.634  -2.177  -1.098  0.00  0.00    +0.000 A 
ATOM     17  C   UNL     1      -0.296  -2.862   0.056  0.00  0.00    +0.001 A 
ATOM     18  C   UNL     1      -0.093  -2.175   1.235  0.00  0.00    +0.013 A 
ATOM     19  C   UNL     1      -0.223  -0.785   1.260  0.00  0.00    +0.041 A 
ENDBRANCH   9  19
ENDBRANCH   1  11
BRANCH   3  20
ATOM     20  N   UNL     1       0.832   1.474   7.269  0.00  0.00    +0.065 N 
ATOM     21  O   UNL     1      -0.201   2.073   7.463  0.00  0.00    -0.126 OA
ATOM     22  O   UNL     1       1.862   2.084   7.101  0.00  0.00    -0.126 OA
ENDBRANCH   3  20
BRANCH   4  23
ATOM     23  O   UNL     1       1.247  -0.116   9.582  0.00  0.00    -0.434 OA
BRANCH  23  24
ATOM     24  C   UNL     1       1.574  -0.878  10.658  0.00  0.00    +0.156 A 
ATOM     25  C   UNL     1       0.598  -1.299  11.532  0.00  0.00    +0.049 A 
ATOM     26  C   UNL     1       0.918  -2.079  12.639  0.00  0.00    +0.019 A 
ATOM     27  C   UNL     1       2.207  -2.448  12.887  0.00  0.00    +0.027 A 
ATOM     28  C   UNL     1       3.231  -2.038  12.017  0.00  0.00    +0.018 A 
ATOM     29  C   UNL     1       2.916  -1.248  10.884  0.00  0.00    +0.114 A 
ATOM     30  N   UNL     1       3.887  -0.861  10.052  0.00  0.00    -0.251 NA
ATOM     31  C   UNL     1       5.136  -1.202  10.256  0.00  0.00    +0.111 A 
ATOM     32  C   UNL     1       5.514  -1.982  11.347  0.00  0.00    +0.020 A 
ATOM     33  C   UNL     1       4.572  -2.401  12.244  0.00  0.00    +0.013 A 
ATOM     34 BR   UNL     1       2.615  -3.508  14.399  0.00  0.00    -0.050 Br
ENDBRANCH  23  24
ENDBRANCH   4  23
TORSDOF 5
