REMARK  Name = ZINC09081093
REMARK  12 active torsions:
REMARK  status: ('A' for Active; 'I' for Inactive)
REMARK    1  A    between atoms: C_1  and  N_2
REMARK    2  A    between atoms: N_2  and  C_3
REMARK    3  A    between atoms: N_2  and  C_4
REMARK    4  A    between atoms: C_7  and  C_10
REMARK    5  A    between atoms: C_10  and  C_12
REMARK    6  A    between atoms: C_10  and  S_24
REMARK    7  A    between atoms: C_12  and  N_13
REMARK    8  A    between atoms: N_13  and  S_14
REMARK    9  A    between atoms: S_14  and  C_17
REMARK   10  A    between atoms: S_24  and  C_27
REMARK   11  A    between atoms: C_30  and  O_33
REMARK   12  A    between atoms: O_33  and  C_34
REMARK                            x       y       z     vdW  Elec       q    Type
REMARK                         _______ _______ _______ _____ _____    ______ ____
ROOT
ATOM      1  C   UNL     1      -2.513   0.976   0.019  0.00  0.00    +0.181 C 
ENDROOT
BRANCH   1   5
ATOM      2  C   UNL     1       1.155   3.171   0.008  0.00  0.00    +0.029 A 
ATOM      3  C   UNL     1       1.174   1.782   0.000  0.00  0.00    +0.023 A 
ATOM      4  C   UNL     1      -0.013   1.076   0.008  0.00  0.00    +0.007 A 
ATOM      5  C   UNL     1      -1.220   1.750   0.017  0.00  0.00    -0.022 A 
ATOM      6  C   UNL     1      -1.243   3.133   0.031  0.00  0.00    +0.007 A 
ATOM      7  C   UNL     1      -0.060   3.845   0.023  0.00  0.00    +0.023 A 
BRANCH   2   9
ATOM      8  C   UNL     1       3.633   3.175  -0.017  0.00  0.00    +0.129 C 
ATOM      9  N   UNL     1       2.353   3.888   0.000  0.00  0.00    -0.336 N 
ATOM     10  C   UNL     1       2.330   5.353   0.008  0.00  0.00    +0.129 C 
ENDBRANCH   2   9
ENDBRANCH   1   5
BRANCH   1  11
ATOM     11  S   UNL     1      -3.478   1.408  -1.456  0.00  0.00    +0.005 S 
ATOM     12  O   UNL     1      -4.613   0.561  -1.563  0.00  0.00    -0.169 OA
ATOM     13  O   UNL     1      -3.615   2.819  -1.555  0.00  0.00    -0.169 OA
BRANCH  11  14
ATOM     14  C   UNL     1      -2.451   0.960  -2.816  0.00  0.00    +0.089 A 
ATOM     15  C   UNL     1      -1.569   1.882  -3.348  0.00  0.00    +0.030 A 
ATOM     16  C   UNL     1      -0.759   1.531  -4.411  0.00  0.00    +0.047 A 
ATOM     17  C   UNL     1      -0.840   0.256  -4.951  0.00  0.00    +0.120 A 
ATOM     18  C   UNL     1      -1.730  -0.666  -4.419  0.00  0.00    +0.047 A 
ATOM     19  C   UNL     1      -2.534  -0.312  -3.353  0.00  0.00    +0.030 A 
BRANCH  17  20
ATOM     20  O   UNL     1      -0.048  -0.091  -6.000  0.00  0.00    -0.495 OA
ATOM     21  C   UNL     1       0.845   0.909  -6.496  0.00  0.00    +0.277 C 
ENDBRANCH  17  20
ENDBRANCH  11  14
ENDBRANCH   1  11
BRANCH   1  22
ATOM     22  C   UNL     1      -3.315   1.326   1.274  0.00  0.00    +0.137 C 
BRANCH  22  23
ATOM     23  N   UNL     1      -4.572   0.574   1.275  0.00  0.00    -0.188 NA
ATOM     24  H   UNL     1      -4.881   0.143   0.463  0.00  0.00    +0.148 HD
BRANCH  23  25
ATOM     25  S   UNL     1      -5.467   0.460   2.664  0.00  0.00    +0.056 S 
ATOM     26  O   UNL     1      -6.625  -0.299   2.340  0.00  0.00    -0.153 OA
ATOM     27  O   UNL     1      -4.569   0.075   3.695  0.00  0.00    -0.153 OA
BRANCH  25  28
ATOM     28  C   UNL     1      -6.024   2.084   3.060  0.00  0.00    +0.101 C 
ATOM     29  C   UNL     1      -5.482   2.747   4.022  0.00  0.00    +0.021 C 
ATOM     30  C   UNL     1      -5.996   4.144   4.326  0.00  0.00    +0.195 C 
ATOM     31  S   UNL     1      -7.583   4.140   3.383  0.00  0.00    -0.022 S 
ATOM     32  O   UNL     1      -8.647   3.760   4.245  0.00  0.00    -0.174 OA
ATOM     33  O   UNL     1      -7.684   5.333   2.618  0.00  0.00    -0.174 OA
ATOM     34  C   UNL     1      -7.149   2.731   2.270  0.00  0.00    +0.222 C 
ENDBRANCH  25  28
ENDBRANCH  23  25
ENDBRANCH  22  23
ENDBRANCH   1  22
TORSDOF 9
