REMARK  Name = ZINC20881669
REMARK  10 active torsions:
REMARK  status: ('A' for Active; 'I' for Inactive)
REMARK    1  A    between atoms: C_1  and  O_2
REMARK    2  A    between atoms: O_2  and  C_3
REMARK    3  A    between atoms: C_6  and  C_11
REMARK    4  A    between atoms: C_8  and  O_9
REMARK    5  A    between atoms: O_9  and  C_10
REMARK    6  A    between atoms: C_16  and  C_26
REMARK    7  A    between atoms: C_29  and  O_34
REMARK    8  A    between atoms: C_30  and  O_32
REMARK    9  A    between atoms: O_32  and  C_33
REMARK   10  A    between atoms: O_34  and  C_35
REMARK                            x       y       z     vdW  Elec       q    Type
REMARK                         _______ _______ _______ _____ _____    ______ ____
ROOT
ATOM      1  C   UNL     1      -2.381   0.779   0.596  0.00  0.00    +0.032 C 
ATOM      2  C   UNL     1      -2.375   0.003  -0.720  0.00  0.00    +0.059 C 
ATOM      3  C   UNL     1      -3.703  -0.710  -0.906  0.00  0.00    +0.017 C 
ATOM      4  C   UNL     1      -4.387  -1.166   0.158  0.00  0.00    +0.036 C 
ATOM      5  C   UNL     1      -5.710  -1.893   0.115  0.00  0.00    +0.136 C 
ATOM      6  N   UNL     1      -6.118  -2.323  -1.205  0.00  0.00    -0.331 N 
ATOM      7  C   UNL     1      -6.407  -1.396  -2.205  0.00  0.00    +0.049 A 
ATOM      8  C   UNL     1      -7.695  -1.230  -2.687  0.00  0.00    +0.025 A 
ATOM      9  C   UNL     1      -7.956  -0.220  -3.597  0.00  0.00    +0.002 A 
ATOM     10  C   UNL     1      -6.941   0.617  -4.024  0.00  0.00    +0.002 A 
ATOM     11  C   UNL     1      -5.648   0.439  -3.562  0.00  0.00    +0.025 A 
ATOM     12  C   UNL     1      -5.383  -0.582  -2.666  0.00  0.00    +0.052 A 
ATOM     13  N   UNL     1      -4.101  -0.846  -2.197  0.00  0.00    -0.316 N 
ATOM     14  C   UNL     1      -3.884  -0.968   1.465  0.00  0.00    +0.163 C 
ATOM     15  O   UNL     1      -4.509  -1.413   2.407  0.00  0.00    -0.292 OA
ATOM     16  C   UNL     1      -2.606  -0.229   1.730  0.00  0.00    +0.088 C 
ATOM     17  H   UNL     1      -6.204  -3.396  -1.432  0.00  0.00    +0.147 HD
ATOM     18  H   UNL     1      -3.386  -1.187  -2.960  0.00  0.00    +0.152 HD
ENDROOT
BRANCH   1  22
ATOM     19  C   UNL     1       1.380   2.744   1.129  0.00  0.00    +0.161 A 
ATOM     20  C   UNL     1       1.330   1.368   0.977  0.00  0.00    +0.049 A 
ATOM     21  C   UNL     1       0.112   0.735   0.809  0.00  0.00    +0.008 A 
ATOM     22  C   UNL     1      -1.056   1.473   0.786  0.00  0.00    -0.040 A 
ATOM     23  C   UNL     1      -1.014   2.846   0.942  0.00  0.00    +0.053 A 
ATOM     24  C   UNL     1       0.203   3.486   1.111  0.00  0.00    +0.162 A 
BRANCH  19  26
ATOM     25  C   UNL     1       3.744   2.542   1.302  0.00  0.00    +0.277 C 
ATOM     26  O   UNL     1       2.577   3.368   1.294  0.00  0.00    -0.491 OA
ENDBRANCH  19  26
BRANCH  24  27
ATOM     27  O   UNL     1       0.248   4.838   1.260  0.00  0.00    -0.491 OA
ATOM     28  C   UNL     1      -1.000   5.535   1.231  0.00  0.00    +0.277 C 
ENDBRANCH  24  27
ENDBRANCH   1  22
BRANCH   5  29
ATOM     29  C   UNL     1      -6.773  -0.981   0.670  0.00  0.00    -0.019 A 
ATOM     30  C   UNL     1      -7.068   0.207   0.026  0.00  0.00    +0.009 A 
ATOM     31  C   UNL     1      -8.047   1.044   0.527  0.00  0.00    +0.050 A 
ATOM     32  C   UNL     1      -8.728   0.700   1.684  0.00  0.00    +0.162 A 
ATOM     33  C   UNL     1      -8.427  -0.493   2.335  0.00  0.00    +0.162 A 
ATOM     34  C   UNL     1      -7.449  -1.330   1.824  0.00  0.00    +0.055 A 
BRANCH  33  35
ATOM     35  O   UNL     1      -9.092  -0.835   3.471  0.00  0.00    -0.491 OA
ATOM     36  C   UNL     1      -8.730  -2.073   4.086  0.00  0.00    +0.277 C 
ENDBRANCH  33  35
BRANCH  32  37
ATOM     37  O   UNL     1      -9.687   1.525   2.182  0.00  0.00    -0.491 OA
ATOM     38  C   UNL     1      -9.942   2.732   1.460  0.00  0.00    +0.277 C 
ENDBRANCH  32  37
ENDBRANCH   5  29
TORSDOF 6
