REMARK  Name = ZINC06300574
REMARK  12 active torsions:
REMARK  status: ('A' for Active; 'I' for Inactive)
REMARK    1  A    between atoms: C_1  and  C_2
REMARK    2  A    between atoms: C_4  and  C_37
REMARK    3  A    between atoms: C_9  and  C_14
REMARK    4  A    between atoms: C_14  and  N_68
REMARK    5  A    between atoms: C_15  and  C_16
REMARK    6  A    between atoms: C_15  and  N_68
REMARK    7  A    between atoms: N_20  and  C_21
REMARK    8  A    between atoms: C_21  and  C_22
REMARK    9  A    between atoms: C_25  and  O_28
REMARK   10  A    between atoms: O_28  and  C_29
REMARK   11  A    between atoms: C_30  and  C_31
REMARK   12  A    between atoms: C_30  and  N_68
REMARK                            x       y       z     vdW  Elec       q    Type
REMARK                         _______ _______ _______ _____ _____    ______ ____
ROOT
ATOM      1  N   UNL     1       2.906  -0.679  -7.666  0.00  0.00    +0.389 N 
ATOM      2  H   UNL     1       3.543  -1.372  -7.256  0.00  0.00    -0.081 HD
ENDROOT
BRANCH   1   3
ATOM      3  C   UNL     1       3.647   0.581  -7.888  0.00  0.00    -0.037 C 
BRANCH   3  12
ATOM      4  C   UNL     1       7.164   0.337 -14.460  0.00  0.00    +0.044 C 
ATOM      5  C   UNL     1       7.150   0.124 -12.968  0.00  0.00    -0.050 A 
ATOM      6  C   UNL     1       8.286  -0.356 -12.331  0.00  0.00    +0.008 A 
ATOM      7  C   UNL     1       8.296  -0.558 -10.968  0.00  0.00    -0.026 A 
ATOM      8  C   UNL     1       7.157  -0.278 -10.220  0.00  0.00    +0.052 A 
ATOM      9  C   UNL     1       6.007   0.209 -10.869  0.00  0.00    -0.001 A 
ATOM     10  C   UNL     1       6.020   0.406 -12.254  0.00  0.00    +0.013 A 
ATOM     11  C   UNL     1       4.813   0.501 -10.074  0.00  0.00    +0.017 A 
ATOM     12  C   UNL     1       4.859   0.290  -8.735  0.00  0.00    +0.001 A 
ATOM     13  C   UNL     1       6.040  -0.194  -8.132  0.00  0.00    +0.251 A 
ATOM     14  O   UNL     1       6.061  -0.371  -6.926  0.00  0.00    -0.268 OA
ATOM     15  N   UNL     1       7.139  -0.470  -8.855  0.00  0.00    -0.322 N 
ATOM     16  H   UNL     1       7.933  -0.805  -8.409  0.00  0.00    +0.169 HD
ATOM     17  C   UNL     1       9.537  -1.080 -10.289  0.00  0.00    +0.046 C 
ENDBRANCH   3  12
ENDBRANCH   1   3
BRANCH   1  18
ATOM     18  C   UNL     1       1.784  -0.447  -6.733  0.00  0.00    +0.001 C 
BRANCH  18  19
ATOM     19  C   UNL     1       1.152  -1.772  -6.392  0.00  0.00    +0.135 A 
ATOM     20  N   UNL     1       0.158  -2.349  -7.021  0.00  0.00    -0.115 NA
ATOM     21  N   UNL     1      -0.092  -3.466  -6.429  0.00  0.00    -0.023 NA
ATOM     22  N   UNL     1       0.721  -3.619  -5.443  0.00  0.00    -0.044 NA
ATOM     23  N   UNL     1       1.500  -2.592  -5.383  0.00  0.00    -0.227 N 
BRANCH  23  24
ATOM     24  C   UNL     1       2.567  -2.365  -4.406  0.00  0.00    +0.182 C 
BRANCH  24  25
ATOM     25  C   UNL     1       2.010  -1.628  -3.216  0.00  0.00    -0.026 A 
ATOM     26  C   UNL     1       1.495  -2.335  -2.145  0.00  0.00    +0.009 A 
ATOM     27  C   UNL     1       0.984  -1.662  -1.052  0.00  0.00    +0.046 A 
ATOM     28  C   UNL     1       0.986  -0.275  -1.030  0.00  0.00    +0.120 A 
ATOM     29  C   UNL     1       1.498   0.433  -2.109  0.00  0.00    +0.046 A 
ATOM     30  C   UNL     1       2.014  -0.245  -3.196  0.00  0.00    +0.009 A 
BRANCH  28  31
ATOM     31  O   UNL     1       0.484   0.390   0.043  0.00  0.00    -0.495 OA
ATOM     32  C   UNL     1       0.519   1.818  -0.003  0.00  0.00    +0.277 C 
ENDBRANCH  28  31
ENDBRANCH  24  25
ENDBRANCH  23  24
ENDBRANCH  18  19
ENDBRANCH   1  18
BRANCH   1  33
ATOM     33  C   UNL     1       2.395  -1.197  -8.952  0.00  0.00    -0.046 C 
BRANCH  33  34
ATOM     34  C   UNL     1       1.529  -0.145  -9.648  0.00  0.00    +0.102 C 
ATOM     35  C   UNL     1       1.159  -0.625 -11.065  0.00  0.00    +0.032 C 
ATOM     36  C   UNL     1      -0.389  -0.643 -11.068  0.00  0.00    +0.030 C 
ATOM     37  C   UNL     1      -0.727   0.316  -9.899  0.00  0.00    +0.160 C 
ATOM     38  O   UNL     1       0.300   0.033  -8.924  0.00  0.00    -0.378 OA
ENDBRANCH  33  34
ENDBRANCH   1  33
TORSDOF 9
