REMARK  Name = ZINC59645202
REMARK  7 active torsions:
REMARK  status: ('A' for Active; 'I' for Inactive)
REMARK    1  A    between atoms: C_6  and  C_7
REMARK    2  A    between atoms: C_7  and  O_8
REMARK    3  A    between atoms: O_8  and  C_9
REMARK    4  A    between atoms: C_12  and  C_16
REMARK    5  A    between atoms: N_17  and  N_18
REMARK    6  A    between atoms: C_19  and  C_21
REMARK    7  A    between atoms: C_21  and  C_22
REMARK                            x       y       z     vdW  Elec       q    Type
REMARK                         _______ _______ _______ _____ _____    ______ ____
ROOT
ATOM      1  C   UNL     1      -2.875  -1.700  -1.504  0.00  0.00    +0.157 A 
ATOM      2  C   UNL     1      -2.850  -3.086  -1.597  0.00  0.00    +0.085 A 
ATOM      3  C   UNL     1      -4.025  -3.788  -1.769  0.00  0.00    +0.033 A 
ATOM      4  C   UNL     1      -5.240  -3.104  -1.851  0.00  0.00    -0.002 A 
ATOM      5  C   UNL     1      -5.260  -1.710  -1.757  0.00  0.00    +0.033 A 
ATOM      6  C   UNL     1      -4.082  -1.016  -1.579  0.00  0.00    +0.085 A 
ATOM      7 CL   UNL     1      -4.106   0.716  -1.456  0.00  0.00    -0.080 Cl
ATOM      8 CL   UNL     1      -1.339  -3.935  -1.496  0.00  0.00    -0.080 Cl
ENDROOT
BRANCH   4   9
ATOM      9  C   UNL     1      -6.498  -3.850  -2.035  0.00  0.00    +0.138 C 
ATOM     10  N   UNL     1      -7.626  -3.213  -2.111  0.00  0.00    -0.188 NA
BRANCH  10  11
ATOM     11  N   UNL     1      -8.821  -3.922  -2.286  0.00  0.00    -0.207 N 
ATOM     12  C   UNL     1      -9.993  -3.260  -2.365  0.00  0.00    +0.238 C 
ATOM     13  O   UNL     1     -10.012  -2.050  -2.283  0.00  0.00    -0.274 OA
ATOM     14  H   UNL     1      -8.806  -4.890  -2.352  0.00  0.00    +0.177 HD
BRANCH  12  15
ATOM     15  C   UNL     1     -11.278  -4.024  -2.553  0.00  0.00    +0.153 C 
BRANCH  15  16
ATOM     16  C   UNL     1     -12.433  -3.057  -2.609  0.00  0.00    +0.059 A 
ATOM     17  C   UNL     1     -13.299  -3.048  -3.651  0.00  0.00    +0.072 A 
ATOM     18  S   UNL     1     -14.402  -1.734  -3.157  0.00  0.00    -0.061 S 
ATOM     19  C   UNL     1     -13.657  -1.340  -1.700  0.00  0.00    +0.156 A 
ATOM     20  N   UNL     1     -12.649  -2.184  -1.641  0.00  0.00    -0.230 NA
ATOM     21  N   UNL     1     -14.021  -0.367  -0.782  0.00  0.00    -0.338 N 
ATOM     22  H   UNL     1     -14.797   0.190  -0.948  0.00  0.00    +0.144 HD
ATOM     23  H   UNL     1     -13.499  -0.243   0.026  0.00  0.00    +0.144 HD
ENDBRANCH  15  16
ENDBRANCH  12  15
ENDBRANCH  10  11
ENDBRANCH   4   9
BRANCH   1  24
ATOM     24  O   UNL     1      -1.715  -1.011  -1.334  0.00  0.00    -0.484 OA
BRANCH  24  25
ATOM     25  C   UNL     1      -1.293  -0.775   0.011  0.00  0.00    +0.264 C 
BRANCH  25  31
ATOM     26  C   UNL     1      -0.017   1.378   0.010  0.00  0.00    +0.008 A 
ATOM     27  C   UNL     1       1.171   2.086   0.002  0.00  0.00    +0.020 A 
ATOM     28  C   UNL     1       2.378   1.410  -0.013  0.00  0.00    +0.041 A 
ATOM     29  C   UNL     1       2.396   0.027  -0.021  0.00  0.00    +0.020 A 
ATOM     30  C   UNL     1       1.208  -0.679  -0.013  0.00  0.00    +0.008 A 
ATOM     31  C   UNL     1       0.002  -0.004   0.002  0.00  0.00    -0.010 A 
ATOM     32 CL   UNL     1       3.870   2.298  -0.023  0.00  0.00    -0.084 Cl
ENDBRANCH  25  31
ENDBRANCH  24  25
ENDBRANCH   1  24
TORSDOF 7
