REMARK  Name = ZINC00091795
REMARK  4 active torsions:
REMARK  status: ('A' for Active; 'I' for Inactive)
REMARK    1  A    between atoms: C_12  and  S_13
REMARK    2  A    between atoms: S_13  and  C_14
REMARK    3  A    between atoms: C_14  and  C_15
REMARK    4  A    between atoms: C_15  and  C_17
REMARK                            x       y       z     vdW  Elec       q    Type
REMARK                         _______ _______ _______ _____ _____    ______ ____
ROOT
ATOM      1  C   UNL     1      -6.591  -5.432   0.039  0.00  0.00    +0.002 A 
ATOM      2  C   UNL     1      -7.962  -5.627   0.051  0.00  0.00    +0.001 A 
ATOM      3  C   UNL     1      -8.800  -4.525   0.066  0.00  0.00    +0.017 A 
ATOM      4  C   UNL     1      -8.257  -3.261   0.067  0.00  0.00    +0.040 A 
ATOM      5  C   UNL     1      -6.878  -3.032   0.055  0.00  0.00    +0.065 A 
ATOM      6  C   UNL     1      -6.051  -4.167   0.041  0.00  0.00    +0.027 A 
ATOM      7  N   UNL     1      -6.457  -1.693   0.057  0.00  0.00    -0.264 N 
ATOM      8  C   UNL     1      -7.418  -0.717   0.072  0.00  0.00    +0.202 A 
ATOM      9  S   UNL     1      -8.946  -1.624   0.083  0.00  0.00    -0.048 S 
ATOM     10  N   UNL     1      -6.858   0.456   0.072  0.00  0.00    -0.121 NA
ATOM     11  N   UNL     1      -5.470   0.261   0.063  0.00  0.00    -0.121 NA
ATOM     12  C   UNL     1      -5.242  -1.026   0.049  0.00  0.00    +0.197 A 
ENDROOT
BRANCH  12  13
ATOM     13  S   UNL     1      -3.653  -1.788   0.029  0.00  0.00    -0.078 S 
BRANCH  13  14
ATOM     14  C   UNL     1      -2.497  -0.391   0.025  0.00  0.00    +0.157 C 
BRANCH  14  15
ATOM     15  C   UNL     1      -1.082  -0.909   0.008  0.00  0.00    +0.180 C 
ATOM     16  O   UNL     1      -0.874  -2.106   0.000  0.00  0.00    -0.291 OA
BRANCH  15  17
ATOM     17  C   UNL     1       0.002  -0.004   0.002  0.00  0.00    +0.055 A 
ATOM     18  C   UNL     1       1.367  -0.271  -0.013  0.00  0.00    +0.019 A 
ATOM     19  C   UNL     1       2.212   0.808  -0.015  0.00  0.00    +0.008 A 
ATOM     20  C   UNL     1       1.688   2.063  -0.003  0.00  0.00    +0.046 A 
ATOM     21  S   UNL     1      -0.022   1.780   0.012  0.00  0.00    -0.094 S 
ENDBRANCH  15  17
ENDBRANCH  14  15
ENDBRANCH  13  14
ENDBRANCH  12  13
TORSDOF 4
