REMARK  Name = ZINC39792293
REMARK  7 active torsions:
REMARK  status: ('A' for Active; 'I' for Inactive)
REMARK    1  A    between atoms: C_1  and  C_2
REMARK    2  A    between atoms: C_2  and  C_4
REMARK    3  A    between atoms: C_2  and  N_22
REMARK    4  A    between atoms: N_6  and  C_7
REMARK    5  A    between atoms: C_10  and  S_13
REMARK    6  A    between atoms: S_13  and  N_16
REMARK    7  A    between atoms: C_25  and  C_28
REMARK                            x       y       z     vdW  Elec       q    Type
REMARK                         _______ _______ _______ _____ _____    ______ ____
ROOT
ATOM      1  C   UNL     1       0.030   1.344  -0.179  0.00  0.00    -0.004 C 
ATOM      2  C   UNL     1       0.022  -0.166   0.069  0.00  0.00    +0.017 C 
ENDROOT
BRANCH   2   3
ATOM      3  N   UNL     1       0.652  -0.852  -1.067  0.00  0.00    +0.390 N 
ATOM      4  C   UNL     1       0.654  -2.304  -0.826  0.00  0.00    -0.073 C 
ATOM      5  C   UNL     1       1.058  -3.015  -2.119  0.00  0.00    +0.016 C 
ATOM      6  C   UNL     1       2.315  -2.392  -2.664  0.00  0.00    -0.049 C 
ATOM      7  C   UNL     1       2.752  -1.203  -2.254  0.00  0.00    -0.042 C 
ATOM      8  C   UNL     1       2.036  -0.389  -1.214  0.00  0.00    -0.050 C 
ATOM      9  H   UNL     1       0.137  -0.650  -1.911  0.00  0.00    -0.080 HD
BRANCH   6  10
ATOM     10  C   UNL     1       3.054  -3.091  -3.641  0.00  0.00    -0.017 C 
ATOM     11  C   UNL     1       2.702  -4.279  -4.269  0.00  0.00    +0.003 A 
ATOM     12  C   UNL     1       1.574  -5.124  -4.152  0.00  0.00    +0.010 A 
ATOM     13  C   UNL     1       1.494  -6.247  -4.908  0.00  0.00    +0.001 A 
ATOM     14  C   UNL     1       2.505  -6.598  -5.809  0.00  0.00    +0.002 A 
ATOM     15  C   UNL     1       3.612  -5.837  -5.974  0.00  0.00    +0.026 A 
ATOM     16  C   UNL     1       3.769  -4.644  -5.218  0.00  0.00    +0.043 A 
ATOM     17  N   UNL     1       4.733  -3.749  -5.194  0.00  0.00    -0.380 N 
ATOM     18  C   UNL     1       4.391  -2.699  -4.229  0.00  0.00    +0.149 C 
ATOM     19  H   UNL     1       5.539  -3.777  -5.732  0.00  0.00    +0.160 HD
ENDBRANCH   6  10
ENDBRANCH   2   3
BRANCH   2  20
ATOM     20  C   UNL     1      -1.399  -0.643   0.219  0.00  0.00    +0.203 C 
ATOM     21  O   UNL     1      -1.844  -1.473  -0.545  0.00  0.00    -0.277 OA
ATOM     22  N   UNL     1      -2.176  -0.147   1.203  0.00  0.00    -0.287 N 
ATOM     23  H   UNL     1      -1.799   0.458   1.860  0.00  0.00    +0.155 HD
BRANCH  22  24
ATOM     24  C   UNL     1      -3.527  -0.506   1.275  0.00  0.00    +0.033 A 
ATOM     25  C   UNL     1      -4.152  -0.614   2.510  0.00  0.00    +0.025 A 
ATOM     26  C   UNL     1      -5.486  -0.968   2.579  0.00  0.00    +0.030 A 
ATOM     27  C   UNL     1      -6.197  -1.215   1.419  0.00  0.00    +0.106 A 
ATOM     28  C   UNL     1      -5.577  -1.109   0.188  0.00  0.00    +0.030 A 
ATOM     29  C   UNL     1      -4.246  -0.749   0.112  0.00  0.00    +0.025 A 
BRANCH  27  30
ATOM     30  S   UNL     1      -7.898  -1.666   1.510  0.00  0.00    +0.061 S 
ATOM     31  O   UNL     1      -8.195  -2.374   0.315  0.00  0.00    -0.153 OA
ATOM     32  O   UNL     1      -8.100  -2.229   2.800  0.00  0.00    -0.153 OA
BRANCH  30  33
ATOM     33  N   UNL     1      -8.780  -0.265   1.462  0.00  0.00    -0.177 NA
ATOM     34  C   UNL     1      -9.125   0.445   2.701  0.00  0.00    +0.109 C 
ATOM     35  C   UNL     1      -8.666   1.902   2.578  0.00  0.00    +0.017 C 
ATOM     36  C   UNL     1      -9.268   2.517   1.313  0.00  0.00    +0.003 C 
ATOM     37  C   UNL     1      -8.772   1.749   0.085  0.00  0.00    +0.017 C 
ATOM     38  C   UNL     1      -9.226   0.294   0.179  0.00  0.00    +0.109 C 
ENDBRANCH  30  33
ENDBRANCH  27  30
ENDBRANCH  22  24
ENDBRANCH   2  20
TORSDOF 6
