REMARK  Name = ZINC13023965
REMARK  10 active torsions:
REMARK  status: ('A' for Active; 'I' for Inactive)
REMARK    1  A    between atoms: C_1  and  C_2
REMARK    2  A    between atoms: C_2  and  C_4
REMARK    3  A    between atoms: C_2  and  N_9
REMARK    4  A    between atoms: C_4  and  C_5
REMARK    5  A    between atoms: C_5  and  C_6
REMARK    6  A    between atoms: C_6  and  C_7
REMARK    7  A    between atoms: C_6  and  C_8
REMARK    8  A    between atoms: C_10  and  C_12
REMARK    9  A    between atoms: N_14  and  C_21
REMARK   10  A    between atoms: C_15  and  C_18
REMARK                            x       y       z     vdW  Elec       q    Type
REMARK                         _______ _______ _______ _____ _____    ______ ____
ROOT
ATOM      1  C   UNL     1       0.759  -1.118   3.541  0.00  0.00    +0.123 C 
ATOM      2  N   UNL     1       2.014  -1.432   3.586  0.00  0.00    -0.178 NA
ATOM      3  N   UNL     1       2.444  -1.867   4.838  0.00  0.00    -0.212 N 
ATOM      4  C   UNL     1       1.306  -1.840   5.769  0.00  0.00    +0.189 C 
ATOM      5  C   UNL     1       0.139  -1.324   4.904  0.00  0.00    +0.096 C 
ENDROOT
BRANCH   3   6
ATOM      6  C   UNL     1       3.744  -2.264   5.156  0.00  0.00    +0.052 A 
ATOM      7  C   UNL     1       4.048  -2.685   6.445  0.00  0.00    +0.025 A 
ATOM      8  C   UNL     1       5.335  -3.077   6.756  0.00  0.00    +0.002 A 
ATOM      9  C   UNL     1       6.321  -3.051   5.787  0.00  0.00    +0.000 A 
ATOM     10  C   UNL     1       6.022  -2.632   4.503  0.00  0.00    +0.002 A 
ATOM     11  C   UNL     1       4.736  -2.245   4.183  0.00  0.00    +0.025 A 
ENDBRANCH   3   6
BRANCH   4  12
ATOM     12  C   UNL     1       1.577  -0.893   6.910  0.00  0.00    +0.233 C 
ATOM     13  O   UNL     1       2.439  -0.047   6.803  0.00  0.00    -0.274 OA
ATOM     14  N   UNL     1       0.861  -0.986   8.048  0.00  0.00    -0.328 N 
ATOM     15  H   UNL     1       0.172  -1.663   8.133  0.00  0.00    +0.145 HD
ATOM     16  H   UNL     1       1.036  -0.377   8.782  0.00  0.00    +0.145 HD
ENDBRANCH   4  12
BRANCH   1  18
ATOM     17  N   UNL     1       0.711  -0.489   1.189  0.00  0.00    -0.308 N 
ATOM     18  C   UNL     1       0.051  -0.633   2.355  0.00  0.00    +0.260 C 
ATOM     19  O   UNL     1      -1.133  -0.360   2.423  0.00  0.00    -0.269 OA
ATOM     20  H   UNL     1       1.654  -0.707   1.135  0.00  0.00    +0.149 HD
BRANCH  17  22
ATOM     21  C   UNL     1      -0.019   1.526   0.010  0.00  0.00    +0.028 C 
ATOM     22  C   UNL     1       0.002  -0.004   0.002  0.00  0.00    +0.070 C 
BRANCH  22  23
ATOM     23  C   UNL     1       0.718  -0.497  -1.257  0.00  0.00    +0.022 C 
BRANCH  23  24
ATOM     24  C   UNL     1       0.630  -2.023  -1.329  0.00  0.00    +0.005 C 
BRANCH  24  25
ATOM     25  C   UNL     1       1.347  -2.517  -2.587  0.00  0.00    -0.017 C 
ATOM     26  C   UNL     1       1.367  -4.046  -2.596  0.00  0.00    +0.007 C 
ATOM     27  C   UNL     1       0.607  -2.010  -3.827  0.00  0.00    +0.007 C 
ENDBRANCH  24  25
ENDBRANCH  23  24
ENDBRANCH  22  23
ENDBRANCH  17  22
ENDBRANCH   1  18
TORSDOF 7
