REMARK  Name = ZINC36386045
REMARK  7 active torsions:
REMARK  status: ('A' for Active; 'I' for Inactive)
REMARK    1  A    between atoms: C_3  and  N_16
REMARK    2  A    between atoms: C_5  and  S_7
REMARK    3  A    between atoms: S_7  and  N_10
REMARK    4  A    between atoms: C_17  and  C_19
REMARK    5  A    between atoms: C_19  and  C_20
REMARK    6  A    between atoms: C_20  and  C_21
REMARK    7  A    between atoms: C_21  and  N_22
REMARK                            x       y       z     vdW  Elec       q    Type
REMARK                         _______ _______ _______ _____ _____    ______ ____
ROOT
ATOM      1  N   UNL     1       3.584   2.123  -0.021  0.00  0.00    -0.285 N 
ATOM      2  C   UNL     1       3.569   3.468  -0.116  0.00  0.00    +0.217 C 
ATOM      3  O   UNL     1       2.513   4.065  -0.103  0.00  0.00    -0.275 OA
ATOM      4  H   UNL     1       4.429   1.652   0.045  0.00  0.00    +0.155 HD
ENDROOT
BRANCH   1   7
ATOM      5  C   UNL     1       0.112   1.159  -0.752  0.00  0.00    +0.004 A 
ATOM      6  C   UNL     1       1.298   1.867  -0.756  0.00  0.00    +0.023 A 
ATOM      7  C   UNL     1       2.381   1.409  -0.019  0.00  0.00    +0.035 A 
ATOM      8  C   UNL     1       2.269   0.238   0.720  0.00  0.00    +0.052 A 
ATOM      9  C   UNL     1       1.081  -0.466   0.720  0.00  0.00    +0.114 A 
ATOM     10  C   UNL     1       0.003  -0.006  -0.015  0.00  0.00    +0.029 A 
BRANCH   9  11
ATOM     11  S   UNL     1       0.937  -1.951   1.657  0.00  0.00    +0.100 S 
ATOM     12  O   UNL     1      -0.102  -2.711   1.056  0.00  0.00    -0.146 OA
ATOM     13  O   UNL     1       2.255  -2.457   1.820  0.00  0.00    -0.146 OA
BRANCH  11  14
ATOM     14  N   UNL     1       0.402  -1.528   3.166  0.00  0.00    -0.118 NA
ATOM     15  C   UNL     1       0.210  -2.440   4.063  0.00  0.00    +0.117 C 
ATOM     16  N   UNL     1       0.419  -3.781   3.884  0.00  0.00    -0.331 N 
ATOM     17  C   UNL     1       0.573  -4.428   5.197  0.00  0.00    +0.103 C 
ATOM     18  C   UNL     1      -0.293  -3.575   6.151  0.00  0.00    +0.026 C 
ATOM     19  C   UNL     1      -0.274  -2.188   5.474  0.00  0.00    +0.074 C 
ATOM     20  H   UNL     1       0.460  -4.234   3.027  0.00  0.00    +0.147 HD
ENDBRANCH  11  14
ENDBRANCH   9  11
ENDBRANCH   1   7
BRANCH   2  21
ATOM     21  C   UNL     1       4.863   4.229  -0.238  0.00  0.00    +0.097 C 
BRANCH  21  22
ATOM     22  C   UNL     1       4.567   5.728  -0.329  0.00  0.00    +0.029 C 
BRANCH  22  23
ATOM     23  C   UNL     1       5.881   6.501  -0.454  0.00  0.00    +0.118 C 
BRANCH  23  24
ATOM     24  N   UNL     1       5.598   7.935  -0.541  0.00  0.00    -0.224 N 
ATOM     25  C   UNL     1       5.387   8.599  -1.698  0.00  0.00    +0.246 C 
ATOM     26  O   UNL     1       5.396   8.141  -2.821  0.00  0.00    -0.273 OA
ATOM     27  C   UNL     1       5.138  10.030  -1.296  0.00  0.00    +0.113 C 
ATOM     28  C   UNL     1       3.748  10.497  -1.750  0.00  0.00    +0.035 C 
ATOM     29  C   UNL     1       3.956  11.989  -2.117  0.00  0.00    +0.003 C 
ATOM     30  C   UNL     1       5.365  11.993  -2.762  0.00  0.00    +0.003 C 
ATOM     31  C   UNL     1       6.167  10.971  -1.927  0.00  0.00    +0.035 C 
ATOM     32  N   UNL     1       5.243  10.025   0.164  0.00  0.00    -0.285 N 
ATOM     33  C   UNL     1       5.509   8.751   0.518  0.00  0.00    +0.309 C 
ATOM     34  O   UNL     1       5.657   8.385   1.667  0.00  0.00    -0.252 OA
ATOM     35  H   UNL     1       5.138  10.784   0.758  0.00  0.00    +0.151 HD
ENDBRANCH  23  24
ENDBRANCH  22  23
ENDBRANCH  21  22
ENDBRANCH   2  21
TORSDOF 7
