REMARK  Name = ZINC23150825
REMARK  8 active torsions:
REMARK  status: ('A' for Active; 'I' for Inactive)
REMARK    1  A    between atoms: C_1  and  C_2
REMARK    2  A    between atoms: C_5  and  S_9
REMARK    3  A    between atoms: C_7  and  C_8
REMARK    4  A    between atoms: S_9  and  C_10
REMARK    5  A    between atoms: C_10  and  C_11
REMARK    6  A    between atoms: C_11  and  C_12
REMARK    7  A    between atoms: N_14  and  N_15
REMARK    8  A    between atoms: C_16  and  C_18
REMARK                            x       y       z     vdW  Elec       q    Type
REMARK                         _______ _______ _______ _____ _____    ______ ____
ROOT
ATOM      1  C   UNL     1      -6.450   2.206   0.075  0.00  0.00    +0.230 C 
ATOM      2  O   UNL     1      -6.102   1.044   0.066  0.00  0.00    -0.274 OA
ATOM      3  N   UNL     1      -7.761   2.517   0.089  0.00  0.00    -0.234 N 
ATOM      4  H   UNL     1      -8.077   3.571   0.097  0.00  0.00    +0.173 HD
ENDROOT
BRANCH   3   5
ATOM      5  N   UNL     1      -8.723   1.498   0.092  0.00  0.00    -0.234 N 
ATOM      6  C   UNL     1     -10.034   1.809   0.106  0.00  0.00    +0.235 C 
ATOM      7  O   UNL     1     -10.382   2.971   0.115  0.00  0.00    -0.274 OA
ATOM      8  H   UNL     1      -8.408   0.444   0.084  0.00  0.00    +0.173 HD
BRANCH   6   9
ATOM      9  C   UNL     1     -11.069   0.713   0.110  0.00  0.00    +0.049 C 
ATOM     10  C   UNL     1     -10.906  -0.147  -1.145  0.00  0.00    +0.019 C 
ATOM     11  C   UNL     1     -11.956  -1.259  -1.141  0.00  0.00    -0.009 C 
ATOM     12  C   UNL     1     -13.355  -0.640  -1.124  0.00  0.00    +0.007 C 
ATOM     13  C   UNL     1     -13.518   0.219   0.131  0.00  0.00    -0.009 C 
ATOM     14  C   UNL     1     -12.467   1.332   0.127  0.00  0.00    +0.019 C 
ATOM     15  C   UNL     1     -13.332  -0.653   1.374  0.00  0.00    +0.007 C 
ATOM     16  C   UNL     1     -11.932  -1.272   1.358  0.00  0.00    -0.009 C 
ATOM     17  C   UNL     1     -11.770  -2.132   0.103  0.00  0.00    +0.007 C 
ATOM     18  C   UNL     1     -10.882  -0.159   1.354  0.00  0.00    +0.019 C 
ENDBRANCH   6   9
ENDBRANCH   3   5
BRANCH   1  19
ATOM     19  C   UNL     1      -5.416   3.302   0.071  0.00  0.00    +0.108 C 
BRANCH  19  20
ATOM     20  C   UNL     1      -4.017   2.683   0.054  0.00  0.00    +0.083 C 
BRANCH  20  21
ATOM     21  S   UNL     1      -2.772   4.002   0.049  0.00  0.00    -0.125 S 
BRANCH  21  26
ATOM     22  C   UNL     1       2.490   1.044  -0.017  0.00  0.00    +0.044 C 
ATOM     23  C   UNL     1       1.176   1.783   0.000  0.00  0.00    -0.047 A 
ATOM     24  C   UNL     1      -0.013   1.076   0.008  0.00  0.00    +0.005 A 
ATOM     25  C   UNL     1      -1.218   1.749   0.017  0.00  0.00    +0.015 A 
ATOM     26  C   UNL     1      -1.236   3.139   0.031  0.00  0.00    +0.008 A 
ATOM     27  C   UNL     1      -0.040   3.846   0.023  0.00  0.00    +0.018 A 
ATOM     28  C   UNL     1       1.162   3.166   0.008  0.00  0.00    -0.046 A 
ATOM     29  C   UNL     1       2.460   3.931   0.000  0.00  0.00    +0.044 C 
ENDBRANCH  21  26
ENDBRANCH  20  21
ENDBRANCH  19  20
ENDBRANCH   1  19
TORSDOF 6
