REMARK  Name = ZINC13638218
REMARK  10 active torsions:
REMARK  status: ('A' for Active; 'I' for Inactive)
REMARK    1  A    between atoms: C_1  and  N_2
REMARK    2  A    between atoms: N_2  and  C_3
REMARK    3  A    between atoms: N_2  and  S_4
REMARK    4  A    between atoms: S_4  and  C_7
REMARK    5  A    between atoms: C_11  and  N_13
REMARK    6  A    between atoms: N_13  and  C_14
REMARK    7  A    between atoms: C_14  and  N_16
REMARK    8  A    between atoms: N_16  and  N_17
REMARK    9  A    between atoms: C_18  and  C_19
REMARK   10  A    between atoms: C_24  and  O_25
REMARK                            x       y       z     vdW  Elec       q    Type
REMARK                         _______ _______ _______ _____ _____    ______ ____
ROOT
ATOM      1  C   UNL     1      -1.649  -4.809  -3.829  0.00  0.00    +0.154 C 
ATOM      2  S   UNL     1      -2.607  -4.964  -2.419  0.00  0.00    -0.017 S 
ENDROOT
BRANCH   1   3
ATOM      3  N   UNL     1      -1.395  -3.588  -4.340  0.00  0.00    -0.296 N 
ATOM      4  H   UNL     1      -0.921  -3.503  -5.182  0.00  0.00    +0.154 HD
BRANCH   3   9
ATOM      5  C   UNL     1      -2.094  -1.235  -1.603  0.00  0.00    +0.107 A 
ATOM      6  C   UNL     1      -2.645  -0.177  -2.302  0.00  0.00    +0.028 A 
ATOM      7  C   UNL     1      -2.783  -0.249  -3.676  0.00  0.00    +0.004 A 
ATOM      8  C   UNL     1      -2.369  -1.378  -4.354  0.00  0.00    +0.023 A 
ATOM      9  C   UNL     1      -1.814  -2.442  -3.656  0.00  0.00    +0.034 A 
ATOM     10  C   UNL     1      -1.673  -2.365  -2.276  0.00  0.00    +0.051 A 
BRANCH   5  11
ATOM     11  S   UNL     1      -1.921  -1.139   0.148  0.00  0.00    +0.060 S 
ATOM     12  O   UNL     1      -1.873  -2.476   0.626  0.00  0.00    -0.153 OA
ATOM     13  O   UNL     1      -2.889  -0.202   0.601  0.00  0.00    -0.153 OA
BRANCH  11  15
ATOM     14  C   UNL     1      -0.299   0.982   0.582  0.00  0.00    +0.131 C 
ATOM     15  N   UNL     1      -0.437  -0.471   0.458  0.00  0.00    -0.183 NA
ATOM     16  C   UNL     1       0.737  -1.335   0.608  0.00  0.00    +0.131 C 
ENDBRANCH  11  15
ENDBRANCH   5  11
ENDBRANCH   3   9
ENDBRANCH   1   3
BRANCH   1  17
ATOM     17  N   UNL     1      -1.149  -5.907  -4.429  0.00  0.00    -0.218 N 
ATOM     18  H   UNL     1      -1.332  -6.786  -4.061  0.00  0.00    +0.176 HD
BRANCH  17  19
ATOM     19  N   UNL     1      -0.365  -5.780  -5.583  0.00  0.00    -0.188 NA
ATOM     20  C   UNL     1       0.116  -6.838  -6.161  0.00  0.00    +0.142 C 
BRANCH  20  21
ATOM     21  C   UNL     1       0.940  -6.704  -7.375  0.00  0.00    +0.037 A 
ATOM     22  C   UNL     1       1.455  -7.841  -8.003  0.00  0.00    +0.028 A 
ATOM     23  C   UNL     1       2.226  -7.708  -9.140  0.00  0.00    +0.019 A 
ATOM     24  C   UNL     1       2.492  -6.452  -9.661  0.00  0.00    +0.019 A 
ATOM     25  C   UNL     1       1.987  -5.321  -9.048  0.00  0.00    +0.047 A 
ATOM     26  C   UNL     1       1.207  -5.436  -7.910  0.00  0.00    +0.126 A 
ATOM     27 BR   UNL     1       2.924  -9.247  -9.989  0.00  0.00    -0.050 Br
BRANCH  26  28
ATOM     28  O   UNL     1       0.706  -4.325  -7.310  0.00  0.00    -0.506 OA
ATOM     29  H   UNL     1       1.288  -3.945  -6.637  0.00  0.00    +0.292 HD
ENDBRANCH  26  28
ENDBRANCH  20  21
ENDBRANCH  17  19
ENDBRANCH   1  17
TORSDOF 8
