REMARK  Name = ZINC63187662
REMARK  5 active torsions:
REMARK  status: ('A' for Active; 'I' for Inactive)
REMARK    1  A    between atoms: C_1  and  C_2
REMARK    2  A    between atoms: C_12  and  S_14
REMARK    3  A    between atoms: S_14  and  C_15
REMARK    4  A    between atoms: C_18  and  C_23
REMARK    5  A    between atoms: N_19  and  C_20
REMARK                            x       y       z     vdW  Elec       q    Type
REMARK                         _______ _______ _______ _____ _____    ______ ____
ROOT
ATOM      1  C   UNL     1       1.471  -1.360   3.690  0.00  0.00    +0.193 A 
ATOM      2  N   UNL     1       0.440  -2.107   4.056  0.00  0.00    -0.122 NA
ATOM      3  N   UNL     1       0.483  -2.330   5.321  0.00  0.00    -0.129 NA
ATOM      4  C   UNL     1       1.548  -1.739   5.844  0.00  0.00    +0.163 A 
ATOM      5  N   UNL     1       2.208  -1.107   4.806  0.00  0.00    -0.299 N 
ENDROOT
BRANCH   4   6
ATOM      6  C   UNL     1       1.933  -1.754   7.194  0.00  0.00    +0.025 C 
ATOM      7  C   UNL     1       1.284  -2.394   8.249  0.00  0.00    +0.006 A 
ATOM      8  C   UNL     1       0.114  -3.181   8.312  0.00  0.00    +0.010 A 
ATOM      9  C   UNL     1      -0.292  -3.689   9.504  0.00  0.00    +0.001 A 
ATOM     10  C   UNL     1       0.421  -3.453  10.681  0.00  0.00    +0.002 A 
ATOM     11  C   UNL     1       1.552  -2.706  10.695  0.00  0.00    +0.026 A 
ATOM     12  C   UNL     1       2.040  -2.143   9.487  0.00  0.00    +0.043 A 
ATOM     13  N   UNL     1       3.097  -1.395   9.239  0.00  0.00    -0.380 N 
ATOM     14  C   UNL     1       3.144  -1.085   7.806  0.00  0.00    +0.152 C 
ATOM     15  H   UNL     1       3.744  -1.099   9.898  0.00  0.00    +0.160 HD
ENDBRANCH   4   6
BRANCH   5  16
ATOM     16  C   UNL     1       3.444  -0.324   4.890  0.00  0.00    +0.091 C 
ATOM     17  C   UNL     1       3.777   0.599   3.716  0.00  0.00    +0.027 C 
ATOM     18  C   UNL     1       4.577  -0.688   3.928  0.00  0.00    +0.027 C 
ENDBRANCH   5  16
BRANCH   1  19
ATOM     19  S   UNL     1       1.827  -0.804   2.056  0.00  0.00    -0.069 S 
BRANCH  19  31
ATOM     20  C   UNL     1       0.640   0.533  -0.636  0.00  0.00    +0.041 C 
ATOM     21  C   UNL     1       0.624  -0.947  -0.354  0.00  0.00    -0.042 C 
ATOM     22  C   UNL     1       0.751  -1.862  -1.357  0.00  0.00    -0.003 A 
ATOM     23  C   UNL     1       0.908  -1.435  -2.747  0.00  0.00    +0.010 A 
ATOM     24  C   UNL     1       1.032  -2.382  -3.713  0.00  0.00    +0.001 A 
ATOM     25  C   UNL     1       1.011  -3.742  -3.404  0.00  0.00    +0.002 A 
ATOM     26  C   UNL     1       0.867  -4.203  -2.134  0.00  0.00    +0.024 A 
ATOM     27  C   UNL     1       0.732  -3.305  -1.059  0.00  0.00    +0.041 A 
ATOM     28  N   UNL     1       0.592  -3.769   0.182  0.00  0.00    -0.284 N 
ATOM     29  C   UNL     1       0.460  -2.981   1.237  0.00  0.00    +0.235 C 
ATOM     30  O   UNL     1       0.336  -3.463   2.347  0.00  0.00    -0.274 OA
ATOM     31  C   UNL     1       0.471  -1.480   1.058  0.00  0.00    +0.166 C 
ATOM     32  H   UNL     1       0.587  -4.729   0.319  0.00  0.00    +0.155 HD
ENDBRANCH  19  31
ENDBRANCH   1  19
TORSDOF 4
