REMARK  Name = ZINC20749856
REMARK  6 active torsions:
REMARK  status: ('A' for Active; 'I' for Inactive)
REMARK    1  A    between atoms: C_1  and  C_2
REMARK    2  A    between atoms: C_2  and  N_3
REMARK    3  A    between atoms: N_3  and  C_4
REMARK    4  A    between atoms: N_3  and  S_10
REMARK    5  A    between atoms: S_10  and  C_13
REMARK    6  A    between atoms: C_26  and  C_29
REMARK                            x       y       z     vdW  Elec       q    Type
REMARK                         _______ _______ _______ _____ _____    ______ ____
ROOT
ATOM      1  C   UNL     1       4.067   1.316  -0.837  0.00  0.00    +0.109 A 
ATOM      2  C   UNL     1       4.951   2.378  -0.869  0.00  0.00    +0.030 A 
ATOM      3  C   UNL     1       4.469   3.667  -0.979  0.00  0.00    +0.025 A 
ATOM      4  C   UNL     1       3.099   3.892  -1.058  0.00  0.00    +0.031 A 
ATOM      5  C   UNL     1       2.211   2.832  -1.022  0.00  0.00    -0.018 A 
ATOM      6  C   UNL     1       2.707   1.540  -0.913  0.00  0.00    +0.034 A 
ATOM      7  C   UNL     1       0.719   3.013  -1.090  0.00  0.00    +0.049 C 
ATOM      8  C   UNL     1       0.130   2.433   0.189  0.00  0.00    -0.023 C 
ATOM      9  C   UNL     1      -0.069   3.380   1.072  0.00  0.00    -0.030 C 
ATOM     10  C   UNL     1       0.352   4.725   0.510  0.00  0.00    +0.033 C 
ATOM     11  C   UNL     1       0.304   4.494  -1.018  0.00  0.00    +0.029 C 
ATOM     12  C   UNL     1       1.286   5.399  -1.738  0.00  0.00    +0.108 C 
ATOM     13  N   UNL     1       2.630   5.204  -1.181  0.00  0.00    -0.336 N 
ATOM     14  H   UNL     1       3.231   6.074  -0.877  0.00  0.00    +0.147 HD
ENDROOT
BRANCH  12  15
ATOM     15  C   UNL     1       1.297   5.062  -3.207  0.00  0.00    +0.010 A 
ATOM     16  C   UNL     1       2.500   4.940  -3.880  0.00  0.00    +0.047 A 
ATOM     17  C   UNL     1       2.509   4.626  -5.227  0.00  0.00    +0.020 A 
ATOM     18  C   UNL     1       1.317   4.444  -5.903  0.00  0.00    +0.003 A 
ATOM     19  C   UNL     1       0.116   4.571  -5.232  0.00  0.00    +0.020 A 
ATOM     20  C   UNL     1       0.105   4.880  -3.884  0.00  0.00    +0.047 A 
ATOM     21 CL   UNL     1      -1.405   5.039  -3.042  0.00  0.00    -0.083 Cl
ATOM     22 CL   UNL     1       3.996   5.176  -3.032  0.00  0.00    -0.083 Cl
ENDBRANCH  12  15
BRANCH   1  23
ATOM     23  S   UNL     1       4.678  -0.331  -0.697  0.00  0.00    +0.075 S 
ATOM     24  O   UNL     1       5.961  -0.238  -0.093  0.00  0.00    -0.150 OA
ATOM     25  O   UNL     1       3.628  -1.108  -0.139  0.00  0.00    -0.150 OA
BRANCH  23  26
ATOM     26  N   UNL     1       4.919  -0.896  -2.235  0.00  0.00    -0.203 N 
BRANCH  26  27
ATOM     27  C   UNL     1       3.930  -1.657  -2.862  0.00  0.00    +0.051 A 
ATOM     28  C   UNL     1       3.525  -2.865  -2.308  0.00  0.00    +0.025 A 
ATOM     29  C   UNL     1       2.543  -3.612  -2.929  0.00  0.00    +0.002 A 
ATOM     30  C   UNL     1       1.972  -3.165  -4.106  0.00  0.00    +0.000 A 
ATOM     31  C   UNL     1       2.377  -1.966  -4.663  0.00  0.00    +0.002 A 
ATOM     32  C   UNL     1       3.354  -1.211  -4.045  0.00  0.00    +0.025 A 
ENDBRANCH  26  27
BRANCH  26  34
ATOM     33  C   UNL     1       7.150  -1.758  -2.749  0.00  0.00    +0.026 C 
ATOM     34  C   UNL     1       6.170  -0.598  -2.937  0.00  0.00    +0.128 C 
ENDBRANCH  26  34
ENDBRANCH  23  26
ENDBRANCH   1  23
TORSDOF 5
