REMARK  Name = ZINC26895856
REMARK  8 active torsions:
REMARK  status: ('A' for Active; 'I' for Inactive)
REMARK    1  A    between atoms: C_1  and  C_2
REMARK    2  A    between atoms: C_2  and  C_4
REMARK    3  A    between atoms: C_2  and  N_12
REMARK    4  A    between atoms: C_4  and  C_5
REMARK    5  A    between atoms: C_5  and  C_6
REMARK    6  A    between atoms: N_12  and  C_13
REMARK    7  A    between atoms: C_32  and  C_34
REMARK    8  A    between atoms: C_32  and  C_35
REMARK                            x       y       z     vdW  Elec       q    Type
REMARK                         _______ _______ _______ _____ _____    ______ ____
ROOT
ATOM      1  C   UNL     1      -1.947   4.404  -6.025  0.00  0.00    +0.188 C 
ATOM      2  C   UNL     1      -1.795   4.704  -4.565  0.00  0.00    +0.050 A 
ATOM      3  C   UNL     1      -1.521   3.768  -3.611  0.00  0.00    +0.055 A 
ATOM      4  C   UNL     1      -1.389   4.252  -2.232  0.00  0.00    +0.031 A 
ATOM      5  C   UNL     1      -1.100   3.501  -1.065  0.00  0.00    -0.025 A 
ATOM      6  C   UNL     1      -1.018   4.131   0.136  0.00  0.00    +0.020 A 
ATOM      7  C   UNL     1      -1.225   5.514   0.215  0.00  0.00    +0.105 A 
ATOM      8  N   UNL     1      -1.495   6.215  -0.874  0.00  0.00    -0.337 N 
ATOM      9  C   UNL     1      -1.576   5.637  -2.053  0.00  0.00    +0.089 A 
ATOM     10  S   UNL     1      -1.904   6.235  -3.695  0.00  0.00    -0.070 S 
ATOM     11  N   UNL     1      -1.146   6.154   1.446  0.00  0.00    -0.312 N 
ATOM     12  C   UNL     1      -2.429   6.781   1.797  0.00  0.00    +0.134 C 
ATOM     13  C   UNL     1      -2.316   7.421   3.183  0.00  0.00    +0.178 C 
ATOM     14  O   UNL     1      -1.237   8.360   3.182  0.00  0.00    -0.377 OA
ATOM     15  C   UNL     1       0.028   7.783   2.845  0.00  0.00    +0.178 C 
ATOM     16  C   UNL     1      -0.062   7.146   1.456  0.00  0.00    +0.134 C 
ATOM     17  C   UNL     1      -0.698   3.377   1.401  0.00  0.00    +0.199 C 
ATOM     18  O   UNL     1      -0.882   1.976   1.202  0.00  0.00    -0.369 OA
ATOM     19  C   UNL     1      -0.197   1.474   0.049  0.00  0.00    +0.068 C 
ATOM     20  C   UNL     1      -0.894   2.016  -1.202  0.00  0.00    +0.070 C 
ATOM     21  C   UNL     1      -0.245  -0.055   0.044  0.00  0.00    +0.041 C 
ATOM     22  C   UNL     1       1.260   1.944   0.070  0.00  0.00    +0.041 C 
ATOM     23  N   UNL     1      -1.376   2.442  -4.005  0.00  0.00    -0.306 N 
ATOM     24  C   UNL     1      -1.723   2.094  -5.207  0.00  0.00    +0.157 C 
ATOM     25  N   UNL     1      -2.274   2.965  -6.113  0.00  0.00    -0.359 N 
ATOM     26  H   UNL     1      -2.952   2.591  -6.894  0.00  0.00    +0.162 HD
ATOM     27  H   UNL     1      -1.656   7.300  -0.803  0.00  0.00    +0.168 HD
ATOM     28  H   UNL     1      -0.971   1.700  -3.302  0.00  0.00    +0.153 HD
ENDROOT
BRANCH   1  29
ATOM     29  N   UNL     1      -0.688   4.680  -6.731  0.00  0.00    -0.290 NA
ATOM     30  H   UNL     1      -0.197   3.723  -6.962  0.00  0.00    +0.124 HD
BRANCH  29  32
ATOM     31  C   UNL     1      -1.270   4.430  -9.097  0.00  0.00    +0.024 C 
ATOM     32  C   UNL     1      -0.935   5.418  -7.977  0.00  0.00    +0.053 C 
BRANCH  32  33
ATOM     33  C   UNL     1       0.317   6.212  -8.356  0.00  0.00    +0.023 C 
BRANCH  33  34
ATOM     34  C   UNL     1       0.581   7.284  -7.296  0.00  0.00    +0.036 C 
BRANCH  34  35
ATOM     35  C   UNL     1       1.813   8.066  -7.669  0.00  0.00    -0.047 A 
ATOM     36  C   UNL     1       3.055   7.655  -7.221  0.00  0.00    +0.003 A 
ATOM     37  C   UNL     1       4.186   8.370  -7.567  0.00  0.00    +0.000 A 
ATOM     38  C   UNL     1       4.075   9.502  -8.352  0.00  0.00    +0.000 A 
ATOM     39  C   UNL     1       2.833   9.916  -8.796  0.00  0.00    +0.000 A 
ATOM     40  C   UNL     1       1.702   9.198  -8.454  0.00  0.00    +0.003 A 
ENDBRANCH  34  35
ENDBRANCH  33  34
ENDBRANCH  32  33
ENDBRANCH  29  32
ENDBRANCH   1  29
TORSDOF 5
