REMARK  Name = ZINC62609965
REMARK  7 active torsions:
REMARK  status: ('A' for Active; 'I' for Inactive)
REMARK    1  A    between atoms: C_4  and  S_9
REMARK    2  A    between atoms: C_5  and  C_7
REMARK    3  A    between atoms: S_9  and  N_12
REMARK    4  A    between atoms: N_12  and  C_13
REMARK    5  A    between atoms: C_13  and  C_14
REMARK    6  A    between atoms: C_17  and  C_19
REMARK    7  A    between atoms: C_19  and  C_20
REMARK                            x       y       z     vdW  Elec       q    Type
REMARK                         _______ _______ _______ _____ _____    ______ ____
ROOT
ATOM      1  C   UNL     1       3.155  -2.726   1.682  0.00  0.00    +0.168 C 
ENDROOT
BRANCH   1   2
ATOM      2  C   UNL     1       3.687  -3.542   2.832  0.00  0.00    +0.094 A 
ATOM      3  N   UNL     1       3.470  -3.381   4.113  0.00  0.00    -0.251 NA
ATOM      4  C   UNL     1       4.011  -4.185   5.006  0.00  0.00    +0.122 A 
ATOM      5  C   UNL     1       4.802  -5.183   4.537  0.00  0.00    +0.014 A 
ATOM      6  S   UNL     1       4.699  -4.886   2.779  0.00  0.00    -0.075 S 
BRANCH   5   7
ATOM      7  C   UNL     1       5.554  -6.250   5.290  0.00  0.00    +0.079 C 
BRANCH   7   8
ATOM      8  C   UNL     1       4.674  -7.462   5.458  0.00  0.00    -0.042 A 
ATOM      9  C   UNL     1       3.857  -7.573   6.567  0.00  0.00    +0.007 A 
ATOM     10  C   UNL     1       3.049  -8.684   6.721  0.00  0.00    +0.038 A 
ATOM     11  C   UNL     1       3.059  -9.685   5.765  0.00  0.00    +0.123 A 
ATOM     12  C   UNL     1       3.878  -9.572   4.655  0.00  0.00    +0.038 A 
ATOM     13  C   UNL     1       4.681  -8.459   4.500  0.00  0.00    +0.007 A 
ATOM     14  F   UNL     1       2.270 -10.772   5.915  0.00  0.00    -0.205 F 
ENDBRANCH   7   8
ENDBRANCH   5   7
ENDBRANCH   1   2
BRANCH   1  15
ATOM     15  N   UNL     1       4.085  -1.634   1.386  0.00  0.00    -0.184 NA
ATOM     16  H   UNL     1       4.774  -1.396   2.027  0.00  0.00    +0.148 HD
BRANCH  15  17
ATOM     17  S   UNL     1       3.962  -0.804  -0.042  0.00  0.00    +0.060 S 
ATOM     18  O   UNL     1       3.877  -1.780  -1.072  0.00  0.00    -0.153 OA
ATOM     19  O   UNL     1       4.972   0.195  -0.020  0.00  0.00    -0.153 OA
BRANCH  17  23
ATOM     20  C   UNL     1      -0.017   1.375   0.010  0.00  0.00    +0.001 A 
ATOM     21  C   UNL     1       1.170   2.086   0.002  0.00  0.00    +0.002 A 
ATOM     22  C   UNL     1       2.383   1.421  -0.013  0.00  0.00    +0.030 A 
ATOM     23  C   UNL     1       2.416   0.041  -0.021  0.00  0.00    +0.123 A 
ATOM     24  C   UNL     1       1.223  -0.682  -0.013  0.00  0.00    +0.078 A 
ATOM     25  C   UNL     1       0.002  -0.004   0.002  0.00  0.00    +0.021 A 
BRANCH  24  26
ATOM     26  C   UNL     1       1.250  -2.114  -0.022  0.00  0.00    +0.101 C 
ATOM     27  N   UNL     1       1.271  -3.250  -0.029  0.00  0.00    -0.191 NA
ENDBRANCH  24  26
ENDBRANCH  17  23
ENDBRANCH  15  17
ENDBRANCH   1  15
TORSDOF 7
