REMARK  Name = ZINC16609824
REMARK  11 active torsions:
REMARK  status: ('A' for Active; 'I' for Inactive)
REMARK    1  A    between atoms: C_1  and  C_2
REMARK    2  A    between atoms: C_2  and  N_3
REMARK    3  A    between atoms: C_4  and  C_33
REMARK    4  A    between atoms: C_5  and  C_28
REMARK    5  A    between atoms: C_6  and  C_11
REMARK    6  A    between atoms: C_15  and  N_17
REMARK    7  A    between atoms: C_18  and  C_20
REMARK    8  A    between atoms: C_21  and  C_22
REMARK    9  A    between atoms: C_28  and  O_30
REMARK   10  A    between atoms: O_30  and  C_31
REMARK   11  A    between atoms: C_31  and  C_32
REMARK                            x       y       z     vdW  Elec       q    Type
REMARK                         _______ _______ _______ _____ _____    ______ ____
ROOT
ATOM      1  C   UNL     1       3.475   2.179  -1.560  0.00  0.00    -0.021 A 
ATOM      2  C   UNL     1       3.489   1.572  -2.803  0.00  0.00    +0.006 A 
ATOM      3  C   UNL     1       4.409   1.964  -3.757  0.00  0.00    +0.002 A 
ATOM      4  C   UNL     1       5.319   2.963  -3.472  0.00  0.00    +0.023 A 
ATOM      5  C   UNL     1       5.308   3.575  -2.225  0.00  0.00    +0.034 A 
ATOM      6  C   UNL     1       4.378   3.182  -1.270  0.00  0.00    +0.029 A 
ENDROOT
BRANCH   1  10
ATOM      7  N   UNL     1       0.045   0.513  -1.017  0.00  0.00    -0.286 N 
ATOM      8  C   UNL     1       0.060   1.877  -0.973  0.00  0.00    +0.021 C 
ATOM      9  C   UNL     1       1.204   2.555  -0.737  0.00  0.00    +0.078 C 
ATOM     10  C   UNL     1       2.470   1.749  -0.523  0.00  0.00    +0.141 C 
ATOM     11  N   UNL     1       2.346   0.283  -0.591  0.00  0.00    -0.315 N 
ATOM     12  C   UNL     1       1.132  -0.248  -0.836  0.00  0.00    +0.138 C 
ATOM     13  S   UNL     1       0.974  -1.950  -0.917  0.00  0.00    -0.018 S 
ATOM     14  C   UNL     1      -1.221   2.639  -1.198  0.00  0.00    +0.061 C 
ATOM     15  H   UNL     1       3.120  -0.287  -0.463  0.00  0.00    +0.149 HD
BRANCH   7  17
ATOM     16  C   UNL     1      -2.009  -0.302   0.031  0.00  0.00    +0.025 C 
ATOM     17  C   UNL     1      -1.232  -0.157  -1.279  0.00  0.00    +0.109 C 
ENDBRANCH   7  17
BRANCH   9  18
ATOM     18  C   UNL     1       1.221   3.968  -0.692  0.00  0.00    +0.339 C 
ATOM     19  O   UNL     1       0.192   4.595  -0.867  0.00  0.00    -0.245 OA
BRANCH  18  20
ATOM     20  O   UNL     1       2.377   4.622  -0.454  0.00  0.00    -0.462 OA
BRANCH  20  21
ATOM     21  C   UNL     1       2.320   6.049  -0.422  0.00  0.00    +0.229 C 
ATOM     22  C   UNL     1       3.717   6.609  -0.142  0.00  0.00    +0.048 C 
ENDBRANCH  20  21
ENDBRANCH  18  20
ENDBRANCH   9  18
ENDBRANCH   1  10
BRANCH   5  23
ATOM     23  N   UNL     1       6.228   4.587  -1.933  0.00  0.00    -0.282 N 
ATOM     24  C   UNL     1       6.609   5.449  -2.896  0.00  0.00    +0.241 C 
ATOM     25  O   UNL     1       6.214   5.300  -4.038  0.00  0.00    -0.270 OA
ATOM     26  H   UNL     1       6.591   4.668  -1.038  0.00  0.00    +0.155 HD
BRANCH  24  27
ATOM     27  C   UNL     1       7.498   6.565  -2.569  0.00  0.00    +0.068 C 
ATOM     28  C   UNL     1       7.879   7.428  -3.533  0.00  0.00    +0.013 C 
BRANCH  28  29
ATOM     29  C   UNL     1       8.773   8.550  -3.204  0.00  0.00    -0.025 A 
ATOM     30  C   UNL     1       9.224   8.728  -1.892  0.00  0.00    +0.008 A 
ATOM     31  C   UNL     1      10.065   9.779  -1.593  0.00  0.00    +0.001 A 
ATOM     32  C   UNL     1      10.455  10.662  -2.585  0.00  0.00    +0.000 A 
ATOM     33  C   UNL     1      10.008  10.496  -3.885  0.00  0.00    +0.001 A 
ATOM     34  C   UNL     1       9.171   9.447  -4.200  0.00  0.00    +0.008 A 
ENDBRANCH  28  29
ENDBRANCH  24  27
ENDBRANCH   5  23
TORSDOF 8
