REMARK  Name = ZINC49171785
REMARK  13 active torsions:
REMARK  status: ('A' for Active; 'I' for Inactive)
REMARK    1  A    between atoms: C_1  and  C_2
REMARK    2  A    between atoms: C_3  and  C_8
REMARK    3  A    between atoms: C_4  and  C_7
REMARK    4  A    between atoms: C_8  and  N_9
REMARK    5  A    between atoms: C_18  and  C_33
REMARK    6  A    between atoms: C_21  and  C_24
REMARK    7  A    between atoms: N_26  and  C_27
REMARK    8  A    between atoms: C_27  and  C_28
REMARK    9  A    between atoms: C_28  and  N_29
REMARK   10  A    between atoms: C_30  and  C_32
REMARK   11  A    between atoms: C_33  and  C_34
REMARK   12  A    between atoms: C_34  and  C_35
REMARK   13  A    between atoms: C_34  and  C_36
REMARK                            x       y       z     vdW  Elec       q    Type
REMARK                         _______ _______ _______ _____ _____    ______ ____
ROOT
ATOM      1  N   UNL     1       1.371  -0.174  -3.041  0.00  0.00    -0.342 N 
ATOM      2  C   UNL     1       2.068   1.015  -3.020  0.00  0.00    +0.091 A 
ATOM      3  C   UNL     1       3.297   0.827  -3.480  0.00  0.00    -0.020 A 
ATOM      4  C   UNL     1       3.414  -0.609  -3.783  0.00  0.00    +0.008 A 
ATOM      5  C   UNL     1       2.158  -1.176  -3.560  0.00  0.00    +0.050 A 
ATOM      6  C   UNL     1       1.998  -2.511  -3.919  0.00  0.00    +0.026 A 
ATOM      7  C   UNL     1       3.072  -3.206  -4.439  0.00  0.00    +0.002 A 
ATOM      8  C   UNL     1       4.329  -2.626  -4.585  0.00  0.00    +0.006 A 
ATOM      9  C   UNL     1       4.512  -1.324  -4.217  0.00  0.00    -0.021 A 
ATOM     10  C   UNL     1       5.899  -0.720  -4.115  0.00  0.00    +0.085 C 
ATOM     11  N   UNL     1       6.005  -0.032  -2.817  0.00  0.00    -0.299 NA
ATOM     12  C   UNL     1       5.599   1.381  -2.789  0.00  0.00    +0.145 C 
ATOM     13  C   UNL     1       4.463   1.752  -3.723  0.00  0.00    +0.065 C 
ATOM     14  H   UNL     1       5.539  -0.556  -2.091  0.00  0.00    +0.123 HD
ENDROOT
BRANCH  12  15
ATOM     15  C   UNL     1       5.181   1.725  -1.383  0.00  0.00    +0.230 C 
ATOM     16  O   UNL     1       4.872   0.844  -0.609  0.00  0.00    -0.274 OA
ATOM     17  N   UNL     1       5.151   3.012  -0.985  0.00  0.00    -0.313 N 
ATOM     18  H   UNL     1       5.398   3.717  -1.604  0.00  0.00    +0.149 HD
BRANCH  17  19
ATOM     19  C   UNL     1       4.745   3.347   0.382  0.00  0.00    +0.123 C 
BRANCH  19  20
ATOM     20  C   UNL     1       4.798   4.864   0.573  0.00  0.00    +0.123 C 
BRANCH  20  21
ATOM     21  N   UNL     1       4.392   5.199   1.940  0.00  0.00    -0.314 N 
ATOM     22  C   UNL     1       4.362   6.486   2.338  0.00  0.00    +0.210 C 
ATOM     23  O   UNL     1       4.671   7.367   1.564  0.00  0.00    -0.276 OA
ATOM     24  C   UNL     1       3.944   6.830   3.745  0.00  0.00    +0.109 C 
ATOM     25  H   UNL     1       4.144   4.494   2.559  0.00  0.00    +0.149 HD
ENDBRANCH  20  21
ENDBRANCH  19  20
ENDBRANCH  17  19
ENDBRANCH  12  15
BRANCH   1  26
ATOM     26  C   UNL     1      -0.005  -0.348  -2.571  0.00  0.00    +0.162 C 
BRANCH  26  29
ATOM     27  C   UNL     1      -0.018   1.503   0.010  0.00  0.00    +0.069 C 
ATOM     28  C   UNL     1       0.002  -0.004   0.002  0.00  0.00    +0.086 A 
ATOM     29  C   UNL     1       0.008  -0.824  -1.141  0.00  0.00    +0.037 A 
ATOM     30  C   UNL     1       0.027  -2.108  -0.735  0.00  0.00    +0.139 A 
ATOM     31  O   UNL     1       0.034  -2.119   0.606  0.00  0.00    -0.359 OA
ATOM     32  N   UNL     1       0.023  -0.775   1.052  0.00  0.00    -0.083 NA
ATOM     33  C   UNL     1       0.039  -3.320  -1.631  0.00  0.00    +0.089 C 
ENDBRANCH  26  29
ENDBRANCH   1  26
BRANCH  10  34
ATOM     34  C   UNL     1       6.952  -1.826  -4.202  0.00  0.00    +0.026 C 
BRANCH  34  35
ATOM     35  C   UNL     1       8.348  -1.200  -4.225  0.00  0.00    -0.015 C 
ATOM     36  C   UNL     1       8.612  -0.494  -2.894  0.00  0.00    +0.007 C 
ATOM     37  C   UNL     1       9.395  -2.296  -4.437  0.00  0.00    +0.007 C 
ENDBRANCH  34  35
ENDBRANCH  10  34
TORSDOF 8
