REMARK  Name = ZINC23634934
REMARK  9 active torsions:
REMARK  status: ('A' for Active; 'I' for Inactive)
REMARK    1  A    between atoms: C_1  and  C_2
REMARK    2  A    between atoms: C_8  and  N_10
REMARK    3  A    between atoms: C_14  and  C_16
REMARK    4  A    between atoms: C_16  and  S_17
REMARK    5  A    between atoms: S_17  and  C_18
REMARK    6  A    between atoms: C_21  and  C_24
REMARK    7  A    between atoms: N_22  and  N_23
REMARK    8  A    between atoms: C_27  and  O_30
REMARK    9  A    between atoms: O_30  and  C_31
REMARK                            x       y       z     vdW  Elec       q    Type
REMARK                         _______ _______ _______ _____ _____    ______ ____
ROOT
ATOM      1  C   UNL     1       8.514   7.363  -2.974  0.00  0.00    +0.209 A 
ATOM      2  N   UNL     1       9.538   6.684  -2.506  0.00  0.00    -0.121 NA
ATOM      3  N   UNL     1      10.576   7.439  -2.443  0.00  0.00    -0.127 NA
ATOM      4  C   UNL     1      10.277   8.648  -2.857  0.00  0.00    +0.182 A 
ATOM      5  N   UNL     1       8.947   8.637  -3.211  0.00  0.00    -0.224 N 
ENDROOT
BRANCH   4   6
ATOM      6  C   UNL     1      11.196   9.804  -2.931  0.00  0.00    +0.021 A 
ATOM      7  C   UNL     1      12.577   9.605  -2.881  0.00  0.00    +0.015 A 
ATOM      8  C   UNL     1      13.430  10.685  -2.955  0.00  0.00    +0.046 A 
ATOM      9  C   UNL     1      12.918  11.970  -3.070  0.00  0.00    +0.127 A 
ATOM     10  C   UNL     1      11.545  12.173  -3.114  0.00  0.00    +0.046 A 
ATOM     11  C   UNL     1      10.685  11.098  -3.046  0.00  0.00    +0.015 A 
BRANCH   9  12
ATOM     12  O   UNL     1      13.762  13.033  -3.137  0.00  0.00    -0.434 OA
BRANCH  12  13
ATOM     13  C   UNL     1      15.163  12.752  -3.085  0.00  0.00    +0.541 C 
ATOM     14  F   UNL     1      15.465  12.108  -1.881  0.00  0.00    -0.166 F 
ATOM     15  F   UNL     1      15.513  11.925  -4.158  0.00  0.00    -0.166 F 
ENDBRANCH  12  13
ENDBRANCH   9  12
ENDBRANCH   4   6
BRANCH   5  16
ATOM     16  N   UNL     1       8.213   9.681  -3.697  0.00  0.00    -0.295 N 
ATOM     17  H   UNL     1       8.685  10.665  -3.842  0.00  0.00    +0.163 HD
ATOM     18  H   UNL     1       7.151   9.539  -3.943  0.00  0.00    +0.163 HD
ENDBRANCH   5  16
BRANCH   1  19
ATOM     19  S   UNL     1       6.886   6.746  -3.241  0.00  0.00    -0.075 S 
BRANCH  19  20
ATOM     20  C   UNL     1       7.107   5.031  -2.707  0.00  0.00    +0.173 C 
BRANCH  20  25
ATOM     21  N   UNL     1       4.491   1.019  -2.299  0.00  0.00    -0.296 N 
ATOM     22  C   UNL     1       4.565   2.321  -2.639  0.00  0.00    +0.306 C 
ATOM     23  O   UNL     1       3.581   2.895  -3.062  0.00  0.00    -0.252 OA
ATOM     24  N   UNL     1       5.731   2.986  -2.510  0.00  0.00    -0.239 N 
ATOM     25  C   UNL     1       5.804   4.288  -2.851  0.00  0.00    +0.231 C 
ATOM     26  O   UNL     1       4.823   4.861  -3.272  0.00  0.00    -0.274 OA
ATOM     27  H   UNL     1       5.382   0.499  -1.916  0.00  0.00    +0.151 HD
ATOM     28  H   UNL     1       6.621   2.466  -2.128  0.00  0.00    +0.159 HD
BRANCH  21  35
ATOM     29  C   UNL     1       4.361  -1.423  -3.852  0.00  0.00    +0.009 C 
ATOM     30  C   UNL     1       3.506  -1.199  -2.603  0.00  0.00    +0.006 C 
ATOM     31  C   UNL     1       2.183  -1.954  -2.749  0.00  0.00    +0.005 C 
ATOM     32  C   UNL     1       1.328  -1.730  -1.500  0.00  0.00    +0.000 C 
ATOM     33  C   UNL     1       1.046  -0.235  -1.335  0.00  0.00    +0.002 C 
ATOM     34  C   UNL     1       2.369   0.519  -1.190  0.00  0.00    +0.022 C 
ATOM     35  C   UNL     1       3.225   0.296  -2.438  0.00  0.00    +0.077 C 
ENDBRANCH  21  35
ENDBRANCH  20  25
ENDBRANCH  19  20
ENDBRANCH   1  19
TORSDOF 8
