REMARK  Name = ZINC36016759
REMARK  10 active torsions:
REMARK  status: ('A' for Active; 'I' for Inactive)
REMARK    1  A    between atoms: C_1  and  C_2
REMARK    2  A    between atoms: C_2  and  N_3
REMARK    3  A    between atoms: C_4  and  C_21
REMARK    4  A    between atoms: C_5  and  C_16
REMARK    5  A    between atoms: C_6  and  C_11
REMARK    6  A    between atoms: C_16  and  O_18
REMARK    7  A    between atoms: O_18  and  C_19
REMARK    8  A    between atoms: C_19  and  C_20
REMARK    9  A    between atoms: C_21  and  N_22
REMARK   10  A    between atoms: C_28  and  C_30
REMARK                            x       y       z     vdW  Elec       q    Type
REMARK                         _______ _______ _______ _____ _____    ______ ____
ROOT
ATOM      1  N   UNL     1      -1.480  -0.262   0.026  0.00  0.00    -0.258 N 
ATOM      2  C   UNL     1      -1.953  -0.772   1.202  0.00  0.00    +0.041 C 
ATOM      3  C   UNL     1      -3.119  -1.451   1.247  0.00  0.00    +0.080 C 
ATOM      4  C   UNL     1      -3.884  -1.627  -0.049  0.00  0.00    +0.144 C 
ATOM      5  N   UNL     1      -3.288  -1.039  -1.260  0.00  0.00    -0.288 N 
ATOM      6  C   UNL     1      -2.116  -0.384  -1.145  0.00  0.00    +0.307 C 
ATOM      7  O   UNL     1      -1.618   0.109  -2.139  0.00  0.00    -0.252 OA
ATOM      8  H   UNL     1      -3.731  -1.118  -2.120  0.00  0.00    +0.151 HD
ENDROOT
BRANCH   4   9
ATOM      9  C   UNL     1      -5.253  -1.024   0.134  0.00  0.00    -0.015 A 
ATOM     10  C   UNL     1      -6.343  -1.829   0.410  0.00  0.00    +0.013 A 
ATOM     11  C   UNL     1      -7.560  -1.255   0.569  0.00  0.00    +0.045 A 
ATOM     12  S   UNL     1      -7.188   0.474   0.328  0.00  0.00    -0.105 S 
ATOM     13  C   UNL     1      -5.433   0.316   0.037  0.00  0.00    +0.051 A 
ENDBRANCH   4   9
BRANCH   1  15
ATOM     14  C   UNL     1      -0.477   1.962   0.194  0.00  0.00    +0.025 C 
ATOM     15  C   UNL     1      -0.207   0.463   0.050  0.00  0.00    +0.111 C 
ENDBRANCH   1  15
BRANCH   3  16
ATOM     16  C   UNL     1      -3.610  -1.980   2.464  0.00  0.00    +0.339 C 
ATOM     17  O   UNL     1      -3.020  -1.760   3.505  0.00  0.00    -0.245 OA
BRANCH  16  18
ATOM     18  O   UNL     1      -4.732  -2.730   2.470  0.00  0.00    -0.462 OA
BRANCH  18  19
ATOM     19  C   UNL     1      -5.170  -3.232   3.734  0.00  0.00    +0.229 C 
ATOM     20  C   UNL     1      -6.447  -4.052   3.542  0.00  0.00    +0.048 C 
ENDBRANCH  18  19
ENDBRANCH  16  18
ENDBRANCH   3  16
BRANCH   2  21
ATOM     21  C   UNL     1      -1.160  -0.574   2.468  0.00  0.00    +0.136 C 
BRANCH  21  22
ATOM     22  N   UNL     1      -0.374  -1.783   2.747  0.00  0.00    -0.294 NA
ATOM     23  C   UNL     1       0.585  -2.049   1.667  0.00  0.00    +0.104 C 
ATOM     24  C   UNL     1       1.254  -3.407   1.905  0.00  0.00    +0.123 C 
ATOM     25  N   UNL     1       1.826  -3.415   3.260  0.00  0.00    -0.295 N 
ATOM     26  C   UNL     1       0.960  -3.025   4.383  0.00  0.00    +0.123 C 
ATOM     27  C   UNL     1       0.303  -1.682   4.047  0.00  0.00    +0.104 C 
ATOM     28  C   UNL     1       3.109  -3.771   3.467  0.00  0.00    +0.247 C 
ATOM     29  O   UNL     1       3.843  -3.979   2.520  0.00  0.00    -0.270 OA
BRANCH  28  30
ATOM     30  C   UNL     1       3.625  -3.908   4.845  0.00  0.00    +0.037 A 
ATOM     31  C   UNL     1       2.806  -4.424   5.851  0.00  0.00    +0.014 A 
ATOM     32  C   UNL     1       3.293  -4.550   7.136  0.00  0.00    +0.021 A 
ATOM     33  C   UNL     1       4.591  -4.165   7.428  0.00  0.00    +0.041 A 
ATOM     34  C   UNL     1       5.408  -3.653   6.434  0.00  0.00    +0.021 A 
ATOM     35  C   UNL     1       4.934  -3.527   5.145  0.00  0.00    +0.014 A 
ATOM     36 CL   UNL     1       5.197  -4.326   9.047  0.00  0.00    -0.084 Cl
ENDBRANCH  28  30
ENDBRANCH  21  22
ENDBRANCH   2  21
TORSDOF 8
