REMARK  Name = ZINC08828888
REMARK  9 active torsions:
REMARK  status: ('A' for Active; 'I' for Inactive)
REMARK    1  A    between atoms: C_1  and  C_2
REMARK    2  A    between atoms: C_2  and  N_3
REMARK    3  A    between atoms: N_3  and  C_4
REMARK    4  A    between atoms: C_4  and  N_5
REMARK    5  A    between atoms: N_5  and  N_6
REMARK    6  A    between atoms: C_7  and  C_9
REMARK    7  A    between atoms: C_11  and  C_19
REMARK    8  A    between atoms: C_21  and  C_26
REMARK    9  A    between atoms: C_24  and  C_25
REMARK                            x       y       z     vdW  Elec       q    Type
REMARK                         _______ _______ _______ _____ _____    ______ ____
ROOT
ATOM      1  C   UNL     1       3.986  -0.836   5.712  0.00  0.00    +0.049 A 
ATOM      2  C   UNL     1       3.723   0.493   5.422  0.00  0.00    +0.042 A 
ATOM      3  C   UNL     1       4.180   1.494   6.293  0.00  0.00    +0.073 A 
ATOM      4  N   UNL     1       4.858   1.203   7.385  0.00  0.00    -0.247 NA
ATOM      5  C   UNL     1       5.144  -0.056   7.719  0.00  0.00    +0.072 A 
ATOM      6  C   UNL     1       4.713  -1.127   6.896  0.00  0.00    +0.013 A 
ATOM      7  C   UNL     1       5.014  -2.445   7.259  0.00  0.00    +0.011 A 
ATOM      8  C   UNL     1       5.714  -2.688   8.403  0.00  0.00    +0.001 A 
ATOM      9  C   UNL     1       6.135  -1.639   9.218  0.00  0.00    +0.002 A 
ATOM     10  C   UNL     1       5.870  -0.345   8.890  0.00  0.00    +0.028 A 
ENDROOT
BRANCH   3  11
ATOM     11  C   UNL     1       3.894   2.914   5.976  0.00  0.00    +0.004 A 
ATOM     12  C   UNL     1       4.122   3.404   4.691  0.00  0.00    +0.013 A 
ATOM     13  C   UNL     1       3.854   4.727   4.402  0.00  0.00    -0.050 A 
ATOM     14  C   UNL     1       3.361   5.566   5.385  0.00  0.00    +0.003 A 
ATOM     15  C   UNL     1       3.133   5.086   6.662  0.00  0.00    +0.004 A 
ATOM     16  C   UNL     1       3.391   3.763   6.960  0.00  0.00    -0.041 A 
ATOM     17  C   UNL     1       3.136   3.240   8.350  0.00  0.00    +0.044 C 
ATOM     18  C   UNL     1       4.099   5.258   3.013  0.00  0.00    +0.044 C 
ENDBRANCH   3  11
BRANCH   1  20
ATOM     19  N   UNL     1       2.730  -1.630   3.765  0.00  0.00    -0.231 N 
ATOM     20  C   UNL     1       3.520  -1.919   4.818  0.00  0.00    +0.261 C 
ATOM     21  O   UNL     1       3.850  -3.069   5.033  0.00  0.00    -0.269 OA
ATOM     22  H   UNL     1       2.466  -0.713   3.594  0.00  0.00    +0.173 HD
BRANCH  19  23
ATOM     23  N   UNL     1       2.288  -2.656   2.919  0.00  0.00    -0.246 N 
ATOM     24  H   UNL     1       2.551  -3.573   3.091  0.00  0.00    +0.172 HD
BRANCH  23  25
ATOM     25  C   UNL     1       1.498  -2.367   1.866  0.00  0.00    +0.147 C 
ATOM     26  S   UNL     1       0.958  -3.620   0.832  0.00  0.00    -0.017 S 
BRANCH  25  27
ATOM     27  N   UNL     1       1.132  -1.092   1.628  0.00  0.00    -0.326 N 
ATOM     28  H   UNL     1       1.438  -0.382   2.214  0.00  0.00    +0.148 HD
BRANCH  27  30
ATOM     29  C   UNL     1       0.010   0.728   0.441  0.00  0.00    +0.024 C 
ATOM     30  C   UNL     1       0.272  -0.778   0.484  0.00  0.00    +0.100 C 
ENDBRANCH  27  30
ENDBRANCH  25  27
ENDBRANCH  23  25
ENDBRANCH  19  23
ENDBRANCH   1  20
TORSDOF 6
