REMARK  Name = ZINC14548132
REMARK  7 active torsions:
REMARK  status: ('A' for Active; 'I' for Inactive)
REMARK    1  A    between atoms: C_1  and  C_2
REMARK    2  A    between atoms: C_2  and  C_3
REMARK    3  A    between atoms: C_2  and  C_4
REMARK    4  A    between atoms: C_4  and  O_5
REMARK    5  A    between atoms: O_5  and  C_6
REMARK    6  A    between atoms: C_19  and  C_22
REMARK    7  A    between atoms: C_31  and  O_32
REMARK                            x       y       z     vdW  Elec       q    Type
REMARK                         _______ _______ _______ _____ _____    ______ ____
ROOT
ATOM      1  C   UNL     1       1.907  -7.123  -0.002  0.00  0.00    +0.121 A 
ATOM      2  C   UNL     1       2.177  -6.920   1.343  0.00  0.00    +0.047 A 
ATOM      3  C   UNL     1       1.698  -5.788   1.972  0.00  0.00    +0.027 A 
ATOM      4  C   UNL     1       0.951  -4.859   1.259  0.00  0.00    +0.032 A 
ATOM      5  C   UNL     1       0.679  -5.055  -0.086  0.00  0.00    -0.016 A 
ATOM      6  C   UNL     1       1.164  -6.196  -0.711  0.00  0.00    +0.051 A 
ATOM      7  C   UNL     1      -0.117  -4.079  -0.892  0.00  0.00    +0.049 C 
ATOM      8  C   UNL     1       0.770  -3.267  -1.807  0.00  0.00    -0.023 C 
ATOM      9  C   UNL     1       0.322  -2.039  -1.898  0.00  0.00    -0.030 C 
ATOM     10  C   UNL     1      -0.929  -1.865  -1.060  0.00  0.00    +0.033 C 
ATOM     11  C   UNL     1      -0.835  -3.026  -0.026  0.00  0.00    +0.029 C 
ATOM     12  C   UNL     1       0.090  -2.556   1.100  0.00  0.00    +0.109 C 
ATOM     13  N   UNL     1       0.474  -3.715   1.914  0.00  0.00    -0.336 N 
ATOM     14  H   UNL     1       0.400  -3.689   2.881  0.00  0.00    +0.147 HD
ENDROOT
BRANCH  12  15
ATOM     15  C   UNL     1       1.324  -1.924   0.510  0.00  0.00    +0.022 A 
ATOM     16  C   UNL     1       1.329  -0.558   0.180  0.00  0.00    -0.009 A 
ATOM     17  C   UNL     1       0.196   0.246   0.390  0.00  0.00    +0.009 A 
ATOM     18  C   UNL     1       0.236   1.566   0.059  0.00  0.00    +0.001 A 
ATOM     19  C   UNL     1       1.386   2.134  -0.486  0.00  0.00    +0.001 A 
ATOM     20  C   UNL     1       2.502   1.386  -0.703  0.00  0.00    +0.008 A 
ATOM     21  C   UNL     1       2.498   0.020  -0.374  0.00  0.00    -0.017 A 
ATOM     22  C   UNL     1       3.633  -0.783  -0.585  0.00  0.00    +0.012 A 
ATOM     23  C   UNL     1       3.596  -2.102  -0.255  0.00  0.00    +0.046 A 
ATOM     24  C   UNL     1       2.443  -2.675   0.292  0.00  0.00    +0.122 A 
BRANCH  24  25
ATOM     25  O   UNL     1       2.437  -3.996   0.611  0.00  0.00    -0.506 OA
ATOM     26  H   UNL     1       2.622  -4.581  -0.136  0.00  0.00    +0.292 HD
ENDBRANCH  24  25
ENDBRANCH  12  15
BRANCH   1  27
ATOM     27  O   UNL     1       2.376  -8.237  -0.627  0.00  0.00    -0.492 OA
BRANCH  27  28
ATOM     28  C   UNL     1       3.137  -9.152   0.164  0.00  0.00    +0.232 C 
BRANCH  28  30
ATOM     29  C   UNL     1       4.493 -11.250   0.107  0.00  0.00    +0.010 C 
ATOM     30  C   UNL     1       3.575 -10.334  -0.704  0.00  0.00    +0.020 C 
ATOM     31  C   UNL     1       2.342 -11.118  -1.158  0.00  0.00    +0.010 C 
ENDBRANCH  28  30
ENDBRANCH  27  28
ENDBRANCH   1  27
TORSDOF 5
