REMARK  Name = ZINC66570561
REMARK  5 active torsions:
REMARK  status: ('A' for Active; 'I' for Inactive)
REMARK    1  A    between atoms: C_6  and  C_7
REMARK    2  A    between atoms: C_10  and  C_12
REMARK    3  A    between atoms: N_14  and  N_15
REMARK    4  A    between atoms: C_16  and  C_18
REMARK    5  A    between atoms: C_18  and  C_19
REMARK                            x       y       z     vdW  Elec       q    Type
REMARK                         _______ _______ _______ _____ _____    ______ ____
ROOT
ATOM      1  C   UNL     1      -2.957  -1.870   1.675  0.00  0.00    +0.233 C 
ATOM      2  O   UNL     1      -3.850  -1.241   1.146  0.00  0.00    -0.274 OA
ATOM      3  N   UNL     1      -3.233  -2.695   2.705  0.00  0.00    -0.234 N 
ATOM      4  H   UNL     1      -2.519  -3.197   3.128  0.00  0.00    +0.173 HD
ENDROOT
BRANCH   3   5
ATOM      5  N   UNL     1      -4.550  -2.827   3.163  0.00  0.00    -0.234 N 
ATOM      6  C   UNL     1      -4.825  -3.652   4.193  0.00  0.00    +0.229 C 
ATOM      7  O   UNL     1      -3.933  -4.280   4.722  0.00  0.00    -0.274 OA
ATOM      8  H   UNL     1      -5.264  -2.325   2.740  0.00  0.00    +0.173 HD
BRANCH   6   9
ATOM      9  C   UNL     1      -6.242  -3.795   4.686  0.00  0.00    +0.101 C 
BRANCH   9  10
ATOM     10  C   UNL     1      -6.279  -4.784   5.853  0.00  0.00    -0.002 C 
ATOM     11  C   UNL     1      -5.495  -4.209   7.034  0.00  0.00    +0.004 C 
ATOM     12  C   UNL     1      -5.532  -5.199   8.200  0.00  0.00    +0.000 C 
ATOM     13  C   UNL     1      -6.983  -5.438   8.620  0.00  0.00    +0.000 C 
ATOM     14  C   UNL     1      -7.767  -6.013   7.439  0.00  0.00    +0.000 C 
ATOM     15  C   UNL     1      -7.731  -5.024   6.272  0.00  0.00    +0.004 C 
ENDBRANCH   9  10
ENDBRANCH   6   9
ENDBRANCH   3   5
BRANCH   1  18
ATOM     16  C   UNL     1      -1.293  -0.775   0.010  0.00  0.00    +0.032 C 
ATOM     17  C   UNL     1      -1.216  -2.288  -0.205  0.00  0.00    +0.022 C 
ATOM     18  C   UNL     1      -1.540  -1.727   1.182  0.00  0.00    +0.084 C 
BRANCH  16  24
ATOM     19  C   UNL     1      -0.017   1.378   0.010  0.00  0.00    +0.005 A 
ATOM     20  C   UNL     1       1.171   2.086   0.002  0.00  0.00    +0.015 A 
ATOM     21  C   UNL     1       2.378   1.411  -0.013  0.00  0.00    +0.018 A 
ATOM     22  C   UNL     1       2.396   0.027  -0.021  0.00  0.00    +0.015 A 
ATOM     23  C   UNL     1       1.208  -0.679  -0.013  0.00  0.00    +0.005 A 
ATOM     24  C   UNL     1       0.002  -0.004   0.002  0.00  0.00    -0.043 A 
ATOM     25 BR   UNL     1       4.003   2.378  -0.024  0.00  0.00    -0.050 Br
ENDBRANCH  16  24
ENDBRANCH   1  18
TORSDOF 5
