REMARK  Name = ZINC05248533
REMARK  10 active torsions:
REMARK  status: ('A' for Active; 'I' for Inactive)
REMARK    1  A    between atoms: C_1  and  O_2
REMARK    2  A    between atoms: O_2  and  C_3
REMARK    3  A    between atoms: C_7  and  C_9
REMARK    4  A    between atoms: C_16  and  N_32
REMARK    5  A    between atoms: C_17  and  C_30
REMARK    6  A    between atoms: C_18  and  C_20
REMARK    7  A    between atoms: C_23  and  O_28
REMARK    8  A    between atoms: C_24  and  O_26
REMARK    9  A    between atoms: O_26  and  C_27
REMARK   10  A    between atoms: O_28  and  C_29
REMARK                            x       y       z     vdW  Elec       q    Type
REMARK                         _______ _______ _______ _____ _____    ______ ____
ROOT
ATOM      1  C   UNL     1      -2.672  -4.512  -0.110  0.00  0.00    +0.074 A 
ATOM      2  C   UNL     1      -3.389  -5.120   0.865  0.00  0.00    +0.054 A 
ATOM      3  C   UNL     1      -3.264  -6.513   0.696  0.00  0.00    +0.245 A 
ATOM      4  N   UNL     1      -2.502  -6.734  -0.338  0.00  0.00    -0.135 NA
ATOM      5  N   UNL     1      -2.114  -5.497  -0.876  0.00  0.00    -0.273 N 
ATOM      6  H   UNL     1      -1.548  -5.365  -1.652  0.00  0.00    +0.189 HD
ATOM      7  O   UNL     1      -3.874  -7.398   1.530  0.00  0.00    -0.421 OA
ATOM      8  C   UNL     1      -4.381  -6.917   2.683  0.00  0.00    +0.201 C 
ATOM      9  C   UNL     1      -4.559  -5.606   2.952  0.00  0.00    +0.098 C 
ATOM     10  C   UNL     1      -4.209  -4.513   1.974  0.00  0.00    +0.102 C 
ENDROOT
BRANCH   1  15
ATOM     11  C   UNL     1      -2.082  -0.861   0.570  0.00  0.00    +0.121 A 
ATOM     12  C   UNL     1      -2.251  -0.322  -0.698  0.00  0.00    +0.045 A 
ATOM     13  C   UNL     1      -2.555  -1.142  -1.768  0.00  0.00    +0.004 A 
ATOM     14  C   UNL     1      -2.693  -2.503  -1.583  0.00  0.00    +0.010 A 
ATOM     15  C   UNL     1      -2.525  -3.054  -0.312  0.00  0.00    +0.004 A 
ATOM     16  C   UNL     1      -2.212  -2.226   0.766  0.00  0.00    +0.055 A 
BRANCH  11  18
ATOM     17  C   UNL     1      -1.663   1.347   1.346  0.00  0.00    +0.277 C 
ATOM     18  O   UNL     1      -1.782  -0.051   1.619  0.00  0.00    -0.495 OA
ENDBRANCH  11  18
ENDBRANCH   1  15
BRANCH  10  19
ATOM     19  C   UNL     1      -5.470  -3.915   1.406  0.00  0.00    -0.031 A 
ATOM     20  C   UNL     1      -6.332  -4.700   0.662  0.00  0.00    +0.008 A 
ATOM     21  C   UNL     1      -7.490  -4.156   0.139  0.00  0.00    +0.050 A 
ATOM     22  C   UNL     1      -7.790  -2.821   0.360  0.00  0.00    +0.162 A 
ATOM     23  C   UNL     1      -6.923  -2.031   1.110  0.00  0.00    +0.162 A 
ATOM     24  C   UNL     1      -5.766  -2.584   1.635  0.00  0.00    +0.054 A 
BRANCH  23  25
ATOM     25  O   UNL     1      -7.214  -0.721   1.329  0.00  0.00    -0.491 OA
ATOM     26  C   UNL     1      -6.278   0.029   2.107  0.00  0.00    +0.277 C 
ENDBRANCH  23  25
BRANCH  22  27
ATOM     27  O   UNL     1      -8.929  -2.285  -0.154  0.00  0.00    -0.491 OA
ATOM     28  C   UNL     1      -9.771  -3.155  -0.913  0.00  0.00    +0.277 C 
ENDBRANCH  22  27
ENDBRANCH  10  19
BRANCH   8  29
ATOM     29  N   UNL     1      -4.741  -7.822   3.650  0.00  0.00    -0.328 N 
ATOM     30  H   UNL     1      -4.628  -8.772   3.491  0.00  0.00    +0.145 HD
ATOM     31  H   UNL     1      -5.110  -7.512   4.491  0.00  0.00    +0.145 HD
ENDBRANCH   8  29
BRANCH   9  32
ATOM     32  C   UNL     1      -5.106  -5.237   4.223  0.00  0.00    +0.101 C 
ATOM     33  N   UNL     1      -5.540  -4.945   5.231  0.00  0.00    -0.191 NA
ENDBRANCH   9  32
TORSDOF 7
