REMARK  Name = ZINC39968135
REMARK  9 active torsions:
REMARK  status: ('A' for Active; 'I' for Inactive)
REMARK    1  A    between atoms: C_1  and  C_2
REMARK    2  A    between atoms: C_4  and  C_24
REMARK    3  A    between atoms: C_5  and  C_23
REMARK    4  A    between atoms: C_6  and  C_8
REMARK    5  A    between atoms: C_10  and  C_21
REMARK    6  A    between atoms: C_11  and  N_20
REMARK    7  A    between atoms: C_16  and  C_19
REMARK    8  A    between atoms: C_24  and  N_25
REMARK    9  A    between atoms: C_28  and  C_30
REMARK                            x       y       z     vdW  Elec       q    Type
REMARK                         _______ _______ _______ _____ _____    ______ ____
ROOT
ATOM      1  C   UNL     1      -0.018   1.503   0.010  0.00  0.00    +0.044 C 
ATOM      2  C   UNL     1       0.002  -0.004   0.002  0.00  0.00    -0.050 A 
ATOM      3  C   UNL     1       0.006  -0.689  -1.199  0.00  0.00    +0.009 A 
ATOM      4  C   UNL     1       0.025  -2.071  -1.207  0.00  0.00    -0.023 A 
ATOM      5  C   UNL     1       0.040  -2.768  -0.013  0.00  0.00    -0.041 A 
ATOM      6  C   UNL     1       0.037  -2.084   1.188  0.00  0.00    -0.031 A 
ATOM      7  C   UNL     1       0.023  -0.702   1.195  0.00  0.00    +0.008 A 
ATOM      8  C   UNL     1       0.059  -4.275  -0.021  0.00  0.00    +0.044 C 
ENDROOT
BRANCH   6   9
ATOM      9  C   UNL     1       0.054  -2.845   2.489  0.00  0.00    +0.098 C 
ATOM     10  C   UNL     1       1.262  -2.444   3.316  0.00  0.00    +0.097 C 
ATOM     11  C   UNL     1       1.143  -2.050   4.601  0.00  0.00    +0.195 C 
ATOM     12  O   UNL     1       0.001  -1.933   5.303  0.00  0.00    -0.448 OA
ATOM     13  C   UNL     1      -1.134  -2.669   4.840  0.00  0.00    +0.343 C 
ATOM     14  C   UNL     1      -1.145  -2.479   3.320  0.00  0.00    +0.030 C 
ATOM     15  C   UNL     1      -2.321  -1.970   3.049  0.00  0.00    +0.066 C 
ATOM     16  N   UNL     1      -3.004  -1.724   4.196  0.00  0.00    -0.155 NA
ATOM     17  N   UNL     1      -2.404  -2.060   5.245  0.00  0.00    -0.138 NA
ATOM     18  C   UNL     1      -2.842  -1.698   1.661  0.00  0.00    +0.067 C 
BRANCH  11  19
ATOM     19  N   UNL     1       2.305  -1.738   5.260  0.00  0.00    -0.329 N 
ATOM     20  H   UNL     1       3.156  -1.806   4.800  0.00  0.00    +0.145 HD
ATOM     21  H   UNL     1       2.276  -1.449   6.185  0.00  0.00    +0.145 HD
ENDBRANCH  11  19
BRANCH  10  22
ATOM     22  C   UNL     1       2.562  -2.486   2.717  0.00  0.00    +0.101 C 
ATOM     23  N   UNL     1       3.593  -2.519   2.242  0.00  0.00    -0.191 NA
ENDBRANCH  10  22
ENDBRANCH   6   9
BRANCH   4  24
ATOM     24  C   UNL     1       0.027  -2.817  -2.516  0.00  0.00    +0.178 C 
BRANCH  24  25
ATOM     25  N   UNL     1      -1.346  -3.182  -2.873  0.00  0.00    -0.267 N 
ATOM     26  C   UNL     1      -1.970  -2.886  -4.032  0.00  0.00    +0.109 A 
ATOM     27  C   UNL     1      -3.221  -3.398  -3.969  0.00  0.00    +0.053 A 
ATOM     28  C   UNL     1      -3.366  -4.029  -2.730  0.00  0.00    +0.165 A 
ATOM     29  N   UNL     1      -2.240  -3.906  -2.074  0.00  0.00    -0.167 NA
BRANCH  28  30
ATOM     30  C   UNL     1      -4.602  -4.736  -2.237  0.00  0.00    +0.436 C 
ATOM     31  F   UNL     1      -4.548  -6.084  -2.608  0.00  0.00    -0.164 F 
ATOM     32  F   UNL     1      -4.671  -4.639  -0.843  0.00  0.00    -0.164 F 
ATOM     33  F   UNL     1      -5.736  -4.142  -2.802  0.00  0.00    -0.164 F 
ENDBRANCH  28  30
ENDBRANCH  24  25
ENDBRANCH   4  24
TORSDOF 6
