REMARK  Name = ZINC13064812
REMARK  13 active torsions:
REMARK  status: ('A' for Active; 'I' for Inactive)
REMARK    1  A    between atoms: C_1  and  C_2
REMARK    2  A    between atoms: C_2  and  C_3
REMARK    3  A    between atoms: C_3  and  C_5
REMARK    4  A    between atoms: C_3  and  N_73
REMARK    5  A    between atoms: N_9  and  C_10
REMARK    6  A    between atoms: C_15  and  C_16
REMARK    7  A    between atoms: C_15  and  N_73
REMARK    8  A    between atoms: C_19  and  O_22
REMARK    9  A    between atoms: O_22  and  C_23
REMARK   10  A    between atoms: C_24  and  C_25
REMARK   11  A    between atoms: C_24  and  N_73
REMARK   12  A    between atoms: C_28  and  C_38
REMARK   13  A    between atoms: C_30  and  C_37
REMARK                            x       y       z     vdW  Elec       q    Type
REMARK                         _______ _______ _______ _____ _____    ______ ____
ROOT
ATOM      1  N   UNL     1       0.038  -0.289   0.069  0.00  0.00    +0.392 N 
ATOM      2  H   UNL     1       0.974   0.118  -0.042  0.00  0.00    -0.080 HD
ENDROOT
BRANCH   1   3
ATOM      3  C   UNL     1      -0.770   0.596   0.936  0.00  0.00    +0.003 C 
BRANCH   3   4
ATOM      4  C   UNL     1      -1.940  -0.158   1.514  0.00  0.00    +0.138 A 
ATOM      5  N   UNL     1      -1.885  -1.226   2.272  0.00  0.00    -0.115 NA
ATOM      6  N   UNL     1      -3.093  -1.569   2.562  0.00  0.00    -0.023 NA
ATOM      7  N   UNL     1      -3.916  -0.754   2.002  0.00  0.00    -0.044 NA
ATOM      8  N   UNL     1      -3.244   0.131   1.346  0.00  0.00    -0.228 N 
BRANCH   8   9
ATOM      9  C   UNL     1      -3.795   1.242   0.567  0.00  0.00    +0.111 C 
ATOM     10  C   UNL     1      -4.718   2.103   1.454  0.00  0.00    +0.027 C 
ATOM     11  C   UNL     1      -5.872   2.521   0.507  0.00  0.00    +0.002 C 
ATOM     12  C   UNL     1      -6.090   1.249  -0.350  0.00  0.00    +0.002 C 
ATOM     13  C   UNL     1      -4.667   0.699  -0.580  0.00  0.00    +0.027 C 
ENDBRANCH   8   9
ENDBRANCH   3   4
BRANCH   3  15
ATOM     14  C   UNL     1       1.299   1.885   1.486  0.00  0.00    +0.002 C 
ATOM     15  C   UNL     1       0.117   1.110   2.072  0.00  0.00    -0.011 C 
ENDBRANCH   3  15
ENDBRANCH   1   3
BRANCH   1  16
ATOM     16  C   UNL     1       0.165  -1.624   0.689  0.00  0.00    -0.042 C 
BRANCH  16  17
ATOM     17  C   UNL     1       1.113  -1.528   1.857  0.00  0.00    -0.064 A 
ATOM     18  C   UNL     1       2.412  -1.099   1.657  0.00  0.00    +0.005 A 
ATOM     19  C   UNL     1       3.281  -1.004   2.727  0.00  0.00    +0.046 A 
ATOM     20  C   UNL     1       2.853  -1.351   4.000  0.00  0.00    +0.120 A 
ATOM     21  C   UNL     1       1.551  -1.786   4.196  0.00  0.00    +0.046 A 
ATOM     22  C   UNL     1       0.684  -1.874   3.124  0.00  0.00    +0.005 A 
BRANCH  20  23
ATOM     23  O   UNL     1       3.708  -1.263   5.053  0.00  0.00    -0.495 OA
ATOM     24  C   UNL     1       5.033  -0.807   4.776  0.00  0.00    +0.277 C 
ENDBRANCH  20  23
ENDBRANCH  16  17
ENDBRANCH   1  16
BRANCH   1  25
ATOM     25  C   UNL     1      -0.596  -0.407  -1.261  0.00  0.00    -0.036 C 
BRANCH  25  26
ATOM     26  C   UNL     1      -0.061   0.689  -2.146  0.00  0.00    +0.001 A 
ATOM     27  C   UNL     1       1.028   0.461  -2.921  0.00  0.00    +0.017 A 
ATOM     28  C   UNL     1       1.522   1.547  -3.769  0.00  0.00    +0.002 A 
ATOM     29  C   UNL     1       2.642   1.372  -4.590  0.00  0.00    -0.041 A 
ATOM     30  C   UNL     1       3.077   2.405  -5.370  0.00  0.00    +0.007 A 
ATOM     31  C   UNL     1       2.419   3.627  -5.356  0.00  0.00    -0.048 A 
ATOM     32  C   UNL     1       1.315   3.823  -4.556  0.00  0.00    +0.029 A 
ATOM     33  C   UNL     1       0.852   2.785  -3.752  0.00  0.00    +0.050 A 
ATOM     34  N   UNL     1      -0.251   2.952  -2.943  0.00  0.00    -0.322 N 
ATOM     35  H   UNL     1      -0.711   3.806  -2.932  0.00  0.00    +0.169 HD
ATOM     36  C   UNL     1      -0.700   1.947  -2.171  0.00  0.00    +0.251 A 
ATOM     37  O   UNL     1      -1.681   2.129  -1.471  0.00  0.00    -0.268 OA
ATOM     38  C   UNL     1       2.918   4.753  -6.226  0.00  0.00    +0.044 C 
ATOM     39  C   UNL     1       3.364   0.050  -4.612  0.00  0.00    +0.044 C 
ENDBRANCH  25  26
ENDBRANCH   1  25
TORSDOF 9
