REMARK  Name = ZINC23353993
REMARK  7 active torsions:
REMARK  status: ('A' for Active; 'I' for Inactive)
REMARK    1  A    between atoms: C_1  and  C_2
REMARK    2  A    between atoms: C_2  and  N_3
REMARK    3  A    between atoms: C_6  and  C_8
REMARK    4  A    between atoms: C_17  and  N_21
REMARK    5  A    between atoms: N_21  and  C_22
REMARK    6  A    between atoms: C_22  and  C_23
REMARK    7  A    between atoms: C_23  and  N_28
REMARK                            x       y       z     vdW  Elec       q    Type
REMARK                         _______ _______ _______ _____ _____    ______ ____
ROOT
ATOM      1  N   UNL     1      -0.487  -0.451   0.802  0.00  0.00    -0.268 N 
ATOM      2  C   UNL     1      -0.791  -0.889  -0.430  0.00  0.00    +0.043 A 
ATOM      3  C   UNL     1       0.378  -1.060  -1.095  0.00  0.00    +0.004 A 
ATOM      4  C   UNL     1       1.392  -0.697  -0.192  0.00  0.00    +0.151 A 
ATOM      5  N   UNL     1       0.790  -0.337   0.928  0.00  0.00    -0.166 NA
ATOM      6  C   UNL     1       0.492  -1.547  -2.513  0.00  0.00    +0.023 C 
ATOM      7  C   UNL     1      -0.846  -2.184  -2.912  0.00  0.00    -0.067 C 
ATOM      8  C   UNL     1      -1.992  -1.234  -2.556  0.00  0.00    -0.009 C 
ATOM      9  C   UNL     1      -2.146  -1.161  -1.031  0.00  0.00    +0.054 C 
ENDROOT
BRANCH   4  10
ATOM     10  C   UNL     1       2.847  -0.710  -0.447  0.00  0.00    +0.267 C 
ATOM     11  O   UNL     1       3.266  -0.953  -1.562  0.00  0.00    -0.268 OA
ATOM     12  N   UNL     1       3.709  -0.453   0.556  0.00  0.00    -0.296 N 
ATOM     13  C   UNL     1       3.228  -0.297   1.936  0.00  0.00    +0.108 C 
ATOM     14  C   UNL     1       4.009  -1.254   2.842  0.00  0.00    +0.019 C 
ATOM     15  C   UNL     1       5.509  -1.005   2.668  0.00  0.00    +0.003 C 
ATOM     16  C   UNL     1       5.908  -1.280   1.216  0.00  0.00    +0.019 C 
ATOM     17  C   UNL     1       5.149  -0.329   0.293  0.00  0.00    +0.108 C 
ENDBRANCH   4  10
BRANCH   7  18
ATOM     18  N   UNL     1      -0.854  -2.440  -4.359  0.00  0.00    +0.382 N 
ATOM     19  H   UNL     1      -0.818  -1.563  -4.856  0.00  0.00    -0.085 HD
ATOM     20  H   UNL     1      -0.052  -3.000  -4.606  0.00  0.00    -0.085 HD
BRANCH  18  21
ATOM     21  C   UNL     1      -2.083  -3.158  -4.722  0.00  0.00    -0.060 C 
BRANCH  21  22
ATOM     22  C   UNL     1      -2.044  -3.516  -6.209  0.00  0.00    +0.007 C 
ATOM     23  C   UNL     1      -3.344  -4.243  -6.612  0.00  0.00    +0.020 C 
ATOM     24  C   UNL     1      -4.245  -3.120  -7.183  0.00  0.00    +0.002 C 
ATOM     25  C   UNL     1      -3.236  -2.227  -7.947  0.00  0.00    +0.002 C 
ATOM     26  C   UNL     1      -1.975  -2.235  -7.058  0.00  0.00    +0.020 C 
BRANCH  22  27
ATOM     27  N   UNL     1      -0.881  -4.369  -6.491  0.00  0.00    -0.294 NA
ATOM     28  C   UNL     1      -0.865  -4.789  -7.899  0.00  0.00    +0.113 C 
ATOM     29  C   UNL     1       0.391  -5.624  -8.163  0.00  0.00    +0.175 C 
ATOM     30  O   UNL     1       0.414  -6.737  -7.265  0.00  0.00    -0.377 OA
ATOM     31  C   UNL     1       0.399  -6.364  -5.885  0.00  0.00    +0.175 C 
ATOM     32  C   UNL     1      -0.856  -5.537  -5.598  0.00  0.00    +0.113 C 
ENDBRANCH  22  27
ENDBRANCH  21  22
ENDBRANCH  18  21
ENDBRANCH   7  18
BRANCH   1  34
ATOM     33  C   UNL     1      -1.881   1.327   1.741  0.00  0.00    +0.029 C 
ATOM     34  C   UNL     1      -1.466  -0.142   1.849  0.00  0.00    +0.140 C 
ENDBRANCH   1  34
TORSDOF 6
