REMARK  Name = ZINC50851836
REMARK  4 active torsions:
REMARK  status: ('A' for Active; 'I' for Inactive)
REMARK    1  A    between atoms: C_1  and  O_2
REMARK    2  A    between atoms: O_2  and  C_3
REMARK    3  A    between atoms: C_14  and  C_16
REMARK    4  A    between atoms: C_22  and  C_24
REMARK                            x       y       z     vdW  Elec       q    Type
REMARK                         _______ _______ _______ _____ _____    ______ ____
ROOT
ATOM      1  C   UNL     1       0.059  -0.524  -1.444  0.00  0.00    +0.120 A 
ATOM      2  C   UNL     1       0.431   0.191  -2.575  0.00  0.00    +0.046 A 
ATOM      3  C   UNL     1       1.133  -0.434  -3.585  0.00  0.00    +0.013 A 
ATOM      4  C   UNL     1       1.464  -1.778  -3.466  0.00  0.00    -0.008 A 
ATOM      5  C   UNL     1       1.119  -2.495  -2.307  0.00  0.00    -0.035 A 
ATOM      6  C   UNL     1       0.409  -1.862  -1.312  0.00  0.00    +0.050 A 
ATOM      7  C   UNL     1       1.570  -3.918  -2.139  0.00  0.00    +0.040 C 
ATOM      8  C   UNL     1       1.561  -4.709  -3.441  0.00  0.00    +0.041 C 
ATOM      9  C   UNL     1       2.267  -3.915  -4.534  0.00  0.00    -0.032 A 
ATOM     10  C   UNL     1       2.176  -2.520  -4.501  0.00  0.00    +0.023 A 
ATOM     11  S   UNL     1       3.083  -1.996  -5.921  0.00  0.00    -0.083 S 
ATOM     12  C   UNL     1       3.578  -3.612  -6.504  0.00  0.00    +0.075 A 
ATOM     13  C   UNL     1       2.996  -4.452  -5.566  0.00  0.00    +0.025 A 
ENDROOT
BRANCH  12  14
ATOM     14  C   UNL     1       4.388  -3.960  -7.673  0.00  0.00    +0.253 C 
ATOM     15  O   UNL     1       4.494  -5.123  -8.016  0.00  0.00    -0.269 OA
ATOM     16  N   UNL     1       5.018  -2.992  -8.368  0.00  0.00    -0.292 N 
ATOM     17  C   UNL     1       5.040  -1.603  -7.883  0.00  0.00    +0.136 C 
ATOM     18  C   UNL     1       6.492  -1.109  -7.900  0.00  0.00    +0.180 C 
ATOM     19  O   UNL     1       7.051  -1.338  -9.196  0.00  0.00    -0.364 OA
ATOM     20  C   UNL     1       7.121  -2.716  -9.568  0.00  0.00    +0.221 C 
ATOM     21  C   UNL     1       5.707  -3.294  -9.633  0.00  0.00    +0.149 C 
BRANCH  20  22
ATOM     22  C   UNL     1       7.780  -2.841 -10.917  0.00  0.00    +0.241 C 
ATOM     23  O   UNL     1       8.072  -1.845 -11.544  0.00  0.00    -0.273 OA
ATOM     24  N   UNL     1       8.045  -4.060 -11.428  0.00  0.00    -0.327 N 
ATOM     25  H   UNL     1       7.812  -4.857 -10.926  0.00  0.00    +0.145 HD
ATOM     26  H   UNL     1       8.470  -4.140 -12.296  0.00  0.00    +0.145 HD
ENDBRANCH  20  22
ENDBRANCH  12  14
BRANCH   1  28
ATOM     27  C   UNL     1      -0.974   1.466  -0.656  0.00  0.00    +0.277 C 
ATOM     28  O   UNL     1      -0.646   0.089  -0.458  0.00  0.00    -0.495 OA
ENDBRANCH   1  28
TORSDOF 3
