REMARK  Name = ZINC36670405
REMARK  4 active torsions:
REMARK  status: ('A' for Active; 'I' for Inactive)
REMARK    1  A    between atoms: C_4  and  O_9
REMARK    2  A    between atoms: C_5  and  C_7
REMARK    3  A    between atoms: O_9  and  C_10
REMARK    4  A    between atoms: C_15  and  C_16
REMARK                            x       y       z     vdW  Elec       q    Type
REMARK                         _______ _______ _______ _____ _____    ______ ____
ROOT
ATOM      1  O   UNL     1       3.612  -0.606  -0.036  0.00  0.00    -0.454 OA
ENDROOT
BRANCH   1   2
ATOM      2  C   UNL     1       4.740   0.138  -0.148  0.00  0.00    +0.140 A 
ATOM      3  C   UNL     1       4.667   1.522  -0.132  0.00  0.00    +0.062 A 
ATOM      4  C   UNL     1       5.817   2.279  -0.246  0.00  0.00    +0.021 A 
ATOM      5  C   UNL     1       7.054   1.662  -0.377  0.00  0.00    +0.016 A 
ATOM      6  C   UNL     1       7.147   0.289  -0.394  0.00  0.00    +0.016 A 
ATOM      7  C   UNL     1       5.991  -0.491  -0.274  0.00  0.00    +0.056 A 
ATOM      8 BR   UNL     1       5.707   4.166  -0.226  0.00  0.00    -0.050 Br
BRANCH   7   9
ATOM      9  C   UNL     1       6.083  -1.955  -0.285  0.00  0.00    +0.262 C 
ATOM     10  O   UNL     1       7.165  -2.494  -0.394  0.00  0.00    -0.296 OA
ENDBRANCH   7   9
ENDBRANCH   1   2
BRANCH   1  14
ATOM     11  C   UNL     1      -0.019   1.369  -0.016  0.00  0.00    +0.001 A 
ATOM     12  C   UNL     1       0.565   0.969   1.174  0.00  0.00    +0.004 A 
ATOM     13  C   UNL     1       1.778   0.309   1.170  0.00  0.00    +0.047 A 
ATOM     14  C   UNL     1       2.420   0.042  -0.030  0.00  0.00    +0.146 A 
ATOM     15  C   UNL     1       1.832   0.446  -1.237  0.00  0.00    +0.094 A 
ATOM     16  C   UNL     1       0.605   1.113  -1.218  0.00  0.00    +0.022 A 
BRANCH  15  17
ATOM     17  C   UNL     1       2.486   0.177  -2.482  0.00  0.00    +0.103 C 
ATOM     18  N   UNL     1       3.005  -0.037  -3.470  0.00  0.00    -0.191 NA
ENDBRANCH  15  17
ENDBRANCH   1  14
TORSDOF 4
