REMARK  Name = ZINC39638713
REMARK  12 active torsions:
REMARK  status: ('A' for Active; 'I' for Inactive)
REMARK    1  A    between atoms: C_1  and  C_2
REMARK    2  A    between atoms: C_2  and  C_3
REMARK    3  A    between atoms: C_3  and  C_4
REMARK    4  A    between atoms: C_4  and  C_5
REMARK    5  A    between atoms: C_5  and  C_7
REMARK    6  A    between atoms: C_5  and  C_8
REMARK    7  A    between atoms: C_12  and  C_21
REMARK    8  A    between atoms: N_23  and  C_24
REMARK    9  A    between atoms: C_24  and  C_25
REMARK   10  A    between atoms: C_30  and  O_31
REMARK   11  A    between atoms: O_31  and  C_32
REMARK   12  A    between atoms: C_32  and  C_33
REMARK                            x       y       z     vdW  Elec       q    Type
REMARK                         _______ _______ _______ _____ _____    ______ ____
ROOT
ATOM      1  C   UNL     1      -2.795  -4.242  -0.098  0.00  0.00    +0.218 C 
ATOM      2  O   UNL     1      -1.756  -4.850  -0.244  0.00  0.00    -0.275 OA
ATOM      3  N   UNL     1      -3.971  -4.898  -0.141  0.00  0.00    -0.300 N 
ATOM      4  C   UNL     1      -5.333  -4.333   0.007  0.00  0.00    +0.121 C 
ATOM      5  C   UNL     1      -6.189  -5.099  -1.027  0.00  0.00    +0.100 C 
ATOM      6  C   UNL     1      -5.438  -6.422  -1.254  0.00  0.00    -0.004 C 
ATOM      7  C   UNL     1      -4.195  -6.348  -0.355  0.00  0.00    +0.115 C 
ATOM      8  C   UNL     1      -5.017  -6.546  -2.715  0.00  0.00    -0.010 C 
ATOM      9  C   UNL     1      -4.323  -7.894  -2.929  0.00  0.00    -0.082 C 
ATOM     10  N   UNL     1      -5.241  -8.982  -2.569  0.00  0.00    +0.379 N 
ATOM     11  C   UNL     1      -5.568  -8.909  -1.139  0.00  0.00    -0.082 C 
ATOM     12  C   UNL     1      -6.314  -7.604  -0.850  0.00  0.00    -0.010 C 
ATOM     13  H   UNL     1      -6.088  -8.898  -3.111  0.00  0.00    -0.086 HD
ATOM     14  H   UNL     1      -4.804  -9.869  -2.768  0.00  0.00    -0.086 HD
ENDROOT
BRANCH   5  15
ATOM     15  C   UNL     1      -7.566  -5.363  -0.475  0.00  0.00    +0.218 C 
ATOM     16  O   UNL     1      -7.722  -5.520   0.718  0.00  0.00    -0.275 OA
ATOM     17  N   UNL     1      -8.624  -5.425  -1.307  0.00  0.00    -0.311 N 
ATOM     18  H   UNL     1      -8.500  -5.300  -2.261  0.00  0.00    +0.149 HD
BRANCH  17  19
ATOM     19  C   UNL     1      -9.963  -5.681  -0.771  0.00  0.00    +0.143 C 
BRANCH  19  20
ATOM     20  C   UNL     1     -10.961  -5.701  -1.900  0.00  0.00    +0.011 A 
ATOM     21  C   UNL     1     -11.738  -4.587  -2.155  0.00  0.00    +0.009 A 
ATOM     22  C   UNL     1     -12.654  -4.605  -3.191  0.00  0.00    +0.001 A 
ATOM     23  C   UNL     1     -12.795  -5.736  -3.973  0.00  0.00    +0.004 A 
ATOM     24  C   UNL     1     -12.021  -6.852  -3.722  0.00  0.00    +0.046 A 
ATOM     25  C   UNL     1     -11.097  -6.835  -2.687  0.00  0.00    +0.125 A 
BRANCH  25  26
ATOM     26  O   UNL     1     -10.331  -7.930  -2.441  0.00  0.00    -0.492 OA
BRANCH  26  27
ATOM     27  C   UNL     1     -10.524  -9.062  -3.291  0.00  0.00    +0.225 C 
ATOM     28  C   UNL     1      -9.580 -10.188  -2.865  0.00  0.00    +0.048 C 
ENDBRANCH  26  27
ENDBRANCH  25  26
ENDBRANCH  19  20
ENDBRANCH  17  19
ENDBRANCH   5  15
BRANCH   1  29
ATOM     29  C   UNL     1      -2.771  -2.753   0.131  0.00  0.00    +0.072 C 
ATOM     30  C   UNL     1      -3.422  -2.433   1.478  0.00  0.00    +0.017 C 
BRANCH  29  31
ATOM     31  C   UNL     1      -1.322  -2.260   0.135  0.00  0.00    +0.012 C 
BRANCH  31  32
ATOM     32  C   UNL     1      -1.303  -0.734   0.243  0.00  0.00    +0.000 C 
BRANCH  32  34
ATOM     33  C   UNL     1       0.166   1.284   0.355  0.00  0.00    +0.004 C 
ATOM     34  C   UNL     1       0.146  -0.242   0.248  0.00  0.00    -0.003 C 
ENDBRANCH  32  34
ENDBRANCH  31  32
ENDBRANCH  29  31
ENDBRANCH   1  29
TORSDOF 9
