REMARK  Name = ZINC09228218
REMARK  11 active torsions:
REMARK  status: ('A' for Active; 'I' for Inactive)
REMARK    1  A    between atoms: C_1  and  C_2
REMARK    2  A    between atoms: C_3  and  C_32
REMARK    3  A    between atoms: C_6  and  C_7
REMARK    4  A    between atoms: C_10  and  O_30
REMARK    5  A    between atoms: C_11  and  S_13
REMARK    6  A    between atoms: S_13  and  N_16
REMARK    7  A    between atoms: N_16  and  C_17
REMARK    8  A    between atoms: C_20  and  C_23
REMARK    9  A    between atoms: C_23  and  N_64
REMARK   10  A    between atoms: C_26  and  C_29
REMARK   11  A    between atoms: O_30  and  C_31
REMARK                            x       y       z     vdW  Elec       q    Type
REMARK                         _______ _______ _______ _____ _____    ______ ____
ROOT
ATOM      1  S   UNL     1      -1.674   3.418   1.188  0.00  0.00    +0.076 S 
ATOM      2  O   UNL     1      -0.731   4.478   1.113  0.00  0.00    -0.150 OA
ATOM      3  O   UNL     1      -3.073   3.634   1.068  0.00  0.00    -0.150 OA
ENDROOT
BRANCH   1   8
ATOM      4  C   UNL     1      -0.269   2.485   4.845  0.00  0.00    +0.022 A 
ATOM      5  C   UNL     1      -1.027   1.362   5.184  0.00  0.00    +0.015 A 
ATOM      6  C   UNL     1      -1.971   0.880   4.304  0.00  0.00    +0.048 A 
ATOM      7  C   UNL     1      -2.170   1.508   3.082  0.00  0.00    +0.147 A 
ATOM      8  C   UNL     1      -1.418   2.625   2.741  0.00  0.00    +0.151 A 
ATOM      9  C   UNL     1      -0.467   3.111   3.613  0.00  0.00    +0.044 A 
BRANCH   4  15
ATOM     10  C   UNL     1      -0.633   2.964   7.974  0.00  0.00    +0.049 C 
ATOM     11  C   UNL     1       0.591   3.212   7.130  0.00  0.00    +0.019 A 
ATOM     12  C   UNL     1       1.844   3.710   7.541  0.00  0.00    +0.084 A 
ATOM     13  N   UNL     1       2.594   3.757   6.477  0.00  0.00    -0.083 NA
ATOM     14  O   UNL     1       2.008   3.366   5.494  0.00  0.00    -0.354 OA
ATOM     15  C   UNL     1       0.745   3.005   5.785  0.00  0.00    +0.170 A 
ATOM     16  C   UNL     1       2.239   4.110   8.940  0.00  0.00    +0.069 C 
ENDBRANCH   4  15
BRANCH   7  17
ATOM     17  O   UNL     1      -3.101   1.029   2.217  0.00  0.00    -0.493 OA
ATOM     18  C   UNL     1      -3.758  -0.187   2.579  0.00  0.00    +0.277 C 
ENDBRANCH   7  17
ENDBRANCH   1   8
BRANCH   1  19
ATOM     19  N   UNL     1      -1.260   2.332   0.009  0.00  0.00    -0.216 N 
ATOM     20  H   UNL     1      -1.925   2.034  -0.631  0.00  0.00    +0.174 HD
BRANCH  19  21
ATOM     21  C   UNL     1       0.047   1.844  -0.063  0.00  0.00    +0.048 A 
ATOM     22  C   UNL     1       1.123   2.718   0.031  0.00  0.00    +0.025 A 
ATOM     23  C   UNL     1       2.413   2.232  -0.046  0.00  0.00    +0.003 A 
ATOM     24  C   UNL     1       2.636   0.878  -0.217  0.00  0.00    -0.064 A 
ATOM     25  C   UNL     1       1.567   0.005  -0.311  0.00  0.00    +0.003 A 
ATOM     26  C   UNL     1       0.274   0.484  -0.234  0.00  0.00    +0.025 A 
BRANCH  24  27
ATOM     27  C   UNL     1       4.045   0.352  -0.300  0.00  0.00    -0.043 C 
BRANCH  27  34
ATOM     28  C   UNL     1       4.143   1.618  -2.362  0.00  0.00    -0.078 C 
ATOM     29  C   UNL     1       4.483   1.526  -3.851  0.00  0.00    -0.016 C 
ATOM     30  C   UNL     1       5.978   1.234  -4.011  0.00  0.00    -0.018 C 
ATOM     31  C   UNL     1       6.317  -0.064  -3.274  0.00  0.00    -0.016 C 
ATOM     32  C   UNL     1       5.924   0.073  -1.802  0.00  0.00    -0.078 C 
ATOM     33  C   UNL     1       6.313   1.081  -5.496  0.00  0.00    +0.007 C 
ATOM     34  N   UNL     1       4.470   0.329  -1.715  0.00  0.00    +0.382 N 
ATOM     35  H   UNL     1       3.970  -0.424  -2.201  0.00  0.00    -0.081 HD
ENDBRANCH  27  34
ENDBRANCH  24  27
ENDBRANCH  19  21
ENDBRANCH   1  19
TORSDOF 7
