REMARK  Name = ZINC39455379
REMARK  8 active torsions:
REMARK  status: ('A' for Active; 'I' for Inactive)
REMARK    1  A    between atoms: C_5  and  C_7
REMARK    2  A    between atoms: C_7  and  N_8
REMARK    3  A    between atoms: C_9  and  C_11
REMARK    4  A    between atoms: C_11  and  C_12
REMARK    5  A    between atoms: C_12  and  C_13
REMARK    6  A    between atoms: N_18  and  C_20
REMARK    7  A    between atoms: C_20  and  C_21
REMARK    8  A    between atoms: C_26  and  C_27
REMARK                            x       y       z     vdW  Elec       q    Type
REMARK                         _______ _______ _______ _____ _____    ______ ____
ROOT
ATOM      1  C   UNL     1       2.096  -6.698   4.057  0.00  0.00    -0.027 C 
ATOM      2  C   UNL     1       3.526  -6.266   4.393  0.00  0.00    -0.000 C 
ATOM      3  C   UNL     1       3.868  -6.729   5.812  0.00  0.00    -0.018 C 
ATOM      4  C   UNL     1       3.683  -8.245   5.906  0.00  0.00    -0.079 C 
ATOM      5  N   UNL     1       2.290  -8.592   5.600  0.00  0.00    +0.381 N 
ATOM      6  C   UNL     1       1.975  -8.215   4.216  0.00  0.00    -0.075 C 
ATOM      7  H   UNL     1       1.675  -8.098   6.229  0.00  0.00    -0.082 HD
ENDROOT
BRANCH   1   8
ATOM      8  C   UNL     1       1.770  -6.308   2.614  0.00  0.00    +0.011 C 
BRANCH   8   9
ATOM      9  C   UNL     1       1.771  -4.784   2.484  0.00  0.00    +0.096 C 
BRANCH   9  11
ATOM     10  N   UNL     1       1.396  -3.100   0.711  0.00  0.00    -0.311 N 
ATOM     11  C   UNL     1       1.451  -4.400   1.062  0.00  0.00    +0.213 C 
ATOM     12  O   UNL     1       1.242  -5.261   0.234  0.00  0.00    -0.276 OA
ATOM     13  H   UNL     1       1.563  -2.412   1.373  0.00  0.00    +0.149 HD
BRANCH  10  14
ATOM     14  C   UNL     1       1.084  -2.727  -0.671  0.00  0.00    +0.142 C 
BRANCH  14  19
ATOM     15  C   UNL     1      -0.109   0.846  -0.912  0.00  0.00    +0.000 A 
ATOM     16  C   UNL     1       1.086   1.530  -1.034  0.00  0.00    +0.003 A 
ATOM     17  C   UNL     1       2.282   0.838  -1.038  0.00  0.00    +0.038 A 
ATOM     18  C   UNL     1       2.283  -0.542  -0.921  0.00  0.00    +0.128 A 
ATOM     19  C   UNL     1       1.085  -1.226  -0.798  0.00  0.00    +0.005 A 
ATOM     20  C   UNL     1      -0.110  -0.531  -0.794  0.00  0.00    +0.008 A 
ATOM     21  F   UNL     1       3.451  -1.220  -0.925  0.00  0.00    -0.205 F 
ENDBRANCH  14  19
ENDBRANCH  10  14
ENDBRANCH   9  11
ENDBRANCH   8   9
ENDBRANCH   1   8
BRANCH   5  22
ATOM     22  C   UNL     1       2.099 -10.038   5.767  0.00  0.00    -0.064 C 
BRANCH  22  23
ATOM     23  C   UNL     1       0.617 -10.379   5.600  0.00  0.00    +0.062 C 
ATOM     24  C   UNL     1      -0.191  -9.844   6.766  0.00  0.00    +0.115 C 
ATOM     25  N   UNL     1      -0.718 -10.877   7.335  0.00  0.00    -0.161 NA
ATOM     26  N   UNL     1      -0.373 -12.066   6.703  0.00  0.00    -0.158 NA
ATOM     27  C   UNL     1       0.400 -11.878   5.680  0.00  0.00    +0.051 C 
BRANCH  27  28
ATOM     28  C   UNL     1       0.969 -12.928   4.761  0.00  0.00    +0.036 C 
ATOM     29  C   UNL     1       0.395 -12.739   3.354  0.00  0.00    +0.009 C 
ATOM     30  C   UNL     1       0.973 -13.805   2.421  0.00  0.00    +0.001 C 
ATOM     31  C   UNL     1       0.600 -15.195   2.942  0.00  0.00    +0.000 C 
ATOM     32  C   UNL     1       1.173 -15.383   4.348  0.00  0.00    +0.001 C 
ATOM     33  C   UNL     1       0.596 -14.317   5.281  0.00  0.00    +0.009 C 
ENDBRANCH  27  28
ENDBRANCH  22  23
ENDBRANCH   5  22
TORSDOF 8
