REMARK  Name = ZINC14595824
REMARK  7 active torsions:
REMARK  status: ('A' for Active; 'I' for Inactive)
REMARK    1  A    between atoms: C_1  and  C_2
REMARK    2  A    between atoms: C_2  and  C_3
REMARK    3  A    between atoms: C_3  and  C_5
REMARK    4  A    between atoms: C_3  and  C_11
REMARK    5  A    between atoms: N_13  and  N_14
REMARK    6  A    between atoms: C_15  and  C_17
REMARK    7  A    between atoms: C_17  and  C_18
REMARK                            x       y       z     vdW  Elec       q    Type
REMARK                         _______ _______ _______ _____ _____    ______ ____
ROOT
ATOM      1  N   UNL     1      -1.436  -2.333   2.591  0.00  0.00    -0.234 N 
ATOM      2  C   UNL     1      -1.539  -3.660   2.798  0.00  0.00    +0.230 C 
ATOM      3  O   UNL     1      -1.075  -4.438   1.991  0.00  0.00    -0.274 OA
ATOM      4  H   UNL     1      -1.807  -1.711   3.236  0.00  0.00    +0.173 HD
ENDROOT
BRANCH   1   7
ATOM      5  C   UNL     1      -0.690  -0.523   1.236  0.00  0.00    +0.236 C 
ATOM      6  O   UNL     1      -1.154   0.255   2.043  0.00  0.00    -0.274 OA
ATOM      7  N   UNL     1      -0.793  -1.850   1.444  0.00  0.00    -0.234 N 
ATOM      8  H   UNL     1      -0.422  -2.472   0.798  0.00  0.00    +0.173 HD
BRANCH   5   9
ATOM      9  C   UNL     1       0.002  -0.004   0.002  0.00  0.00    +0.106 C 
BRANCH   9  10
ATOM     10  C   UNL     1      -0.018   1.503   0.010  0.00  0.00    -0.035 A 
ATOM     11  C   UNL     1      -1.225   2.178   0.020  0.00  0.00    +0.004 A 
ATOM     12  C   UNL     1      -1.244   3.560   0.032  0.00  0.00    +0.000 A 
ATOM     13  C   UNL     1      -0.056   4.267   0.025  0.00  0.00    +0.000 A 
ATOM     14  C   UNL     1       1.151   3.592   0.010  0.00  0.00    +0.000 A 
ATOM     15  C   UNL     1       1.169   2.210   0.003  0.00  0.00    +0.004 A 
ENDBRANCH   9  10
BRANCH   9  17
ATOM     16  C   UNL     1       0.049  -0.095  -2.494  0.00  0.00    +0.005 C 
ATOM     17  C   UNL     1      -0.724  -0.517  -1.243  0.00  0.00    +0.014 C 
ENDBRANCH   9  17
ENDBRANCH   5   9
ENDBRANCH   1   7
BRANCH   2  18
ATOM     18  C   UNL     1      -2.231  -4.179   4.033  0.00  0.00    +0.104 C 
BRANCH  18  19
ATOM     19  C   UNL     1      -2.210  -5.709   4.024  0.00  0.00    -0.020 C 
ATOM     20  C   UNL     1      -2.936  -6.222   2.779  0.00  0.00    +0.011 C 
ATOM     21  C   UNL     1      -2.915  -7.752   2.771  0.00  0.00    -0.010 C 
ATOM     22  C   UNL     1      -3.618  -8.278   4.024  0.00  0.00    +0.007 C 
ATOM     23  C   UNL     1      -2.892  -7.765   5.269  0.00  0.00    -0.010 C 
ATOM     24  C   UNL     1      -2.912  -6.235   5.277  0.00  0.00    +0.011 C 
ATOM     25  C   UNL     1      -1.442  -8.255   5.252  0.00  0.00    +0.007 C 
ATOM     26  C   UNL     1      -0.740  -7.729   3.999  0.00  0.00    -0.010 C 
ATOM     27  C   UNL     1      -1.466  -8.242   2.754  0.00  0.00    +0.007 C 
ATOM     28  C   UNL     1      -0.761  -6.199   4.008  0.00  0.00    +0.011 C 
ENDBRANCH  18  19
ENDBRANCH   2  18
TORSDOF 6
