REMARK  Name = ZINC44144822
REMARK  10 active torsions:
REMARK  status: ('A' for Active; 'I' for Inactive)
REMARK    1  A    between atoms: C_1  and  C_2
REMARK    2  A    between atoms: C_3  and  C_36
REMARK    3  A    between atoms: C_5  and  C_25
REMARK    4  A    between atoms: N_6  and  C_7
REMARK    5  A    between atoms: C_7  and  C_9
REMARK    6  A    between atoms: C_7  and  C_16
REMARK    7  A    between atoms: C_9  and  C_10
REMARK    8  A    between atoms: N_18  and  C_19
REMARK    9  A    between atoms: C_19  and  C_20
REMARK   10  A    between atoms: C_27  and  C_30
REMARK                            x       y       z     vdW  Elec       q    Type
REMARK                         _______ _______ _______ _____ _____    ______ ____
ROOT
ATOM      1  C   UNL     1       0.530   0.641  -0.049  0.00  0.00    +0.064 C 
ATOM      2  C   UNL     1       0.464  -0.861   0.044  0.00  0.00    +0.029 A 
ATOM      3  C   UNL     1       0.771  -1.748  -0.967  0.00  0.00    +0.058 A 
ATOM      4  C   UNL     1       0.572  -3.052  -0.450  0.00  0.00    +0.044 A 
ATOM      5  C   UNL     1       0.157  -2.911   0.838  0.00  0.00    +0.089 A 
ATOM      6  N   UNL     1       0.100  -1.569   1.131  0.00  0.00    -0.329 N 
ENDROOT
BRANCH   5   7
ATOM      7  C   UNL     1      -0.170  -4.009   1.763  0.00  0.00    +0.184 A 
ATOM      8  C   UNL     1      -0.284  -5.326   1.435  0.00  0.00    +0.082 A 
ATOM      9  C   UNL     1      -0.607  -6.039   2.608  0.00  0.00    +0.114 A 
ATOM     10  N   UNL     1      -0.682  -5.179   3.598  0.00  0.00    -0.078 NA
ATOM     11  O   UNL     1      -0.405  -3.890   3.084  0.00  0.00    -0.353 OA
BRANCH   9  12
ATOM     12  C   UNL     1      -0.823  -7.504   2.707  0.00  0.00    +0.004 A 
ATOM     13  C   UNL     1      -0.707  -8.306   1.574  0.00  0.00    +0.010 A 
ATOM     14  C   UNL     1      -0.909  -9.668   1.671  0.00  0.00    +0.001 A 
ATOM     15  C   UNL     1      -1.226 -10.237   2.891  0.00  0.00    +0.000 A 
ATOM     16  C   UNL     1      -1.343  -9.445   4.020  0.00  0.00    +0.001 A 
ATOM     17  C   UNL     1      -1.138  -8.083   3.934  0.00  0.00    +0.010 A 
ENDBRANCH   9  12
ENDBRANCH   5   7
BRANCH   3  18
ATOM     18  C   UNL     1       1.222  -1.403  -2.327  0.00  0.00    +0.243 C 
ATOM     19  O   UNL     1       1.353  -0.238  -2.647  0.00  0.00    -0.270 OA
ATOM     20  N   UNL     1       1.488  -2.381  -3.216  0.00  0.00    -0.325 N 
ATOM     21  H   UNL     1       1.383  -3.311  -2.961  0.00  0.00    +0.145 HD
ATOM     22  H   UNL     1       1.784  -2.154  -4.112  0.00  0.00    +0.145 HD
ENDBRANCH   3  18
BRANCH   6  23
ATOM     23  C   UNL     1      -0.298  -0.998   2.421  0.00  0.00    +0.177 C 
BRANCH  23  24
ATOM     24  C   UNL     1       0.633  -1.491   3.497  0.00  0.00    +0.237 C 
ATOM     25  O   UNL     1       1.611  -2.145   3.201  0.00  0.00    -0.274 OA
ATOM     26  N   UNL     1       0.380  -1.206   4.790  0.00  0.00    -0.309 N 
ATOM     27  H   UNL     1      -0.440  -0.749   5.034  0.00  0.00    +0.149 HD
BRANCH  26  28
ATOM     28  C   UNL     1       1.343  -1.588   5.827  0.00  0.00    +0.146 C 
BRANCH  28  29
ATOM     29  C   UNL     1       0.825  -1.158   7.175  0.00  0.00    +0.007 A 
ATOM     30  C   UNL     1       0.051  -1.845   8.051  0.00  0.00    +0.013 A 
ATOM     31  C   UNL     1      -0.305  -1.245   9.244  0.00  0.00    +0.008 A 
ATOM     32  C   UNL     1       0.129   0.013   9.503  0.00  0.00    +0.045 A 
ATOM     33  S   UNL     1       1.079   0.384   8.037  0.00  0.00    -0.100 S 
ENDBRANCH  28  29
ENDBRANCH  26  28
ENDBRANCH  23  24
BRANCH  23  34
ATOM     34  C   UNL     1      -1.730  -1.427   2.748  0.00  0.00    +0.069 C 
BRANCH  34  35
ATOM     35  C   UNL     1      -2.678  -0.824   1.744  0.00  0.00    -0.045 A 
ATOM     36  C   UNL     1      -3.142   0.466   1.919  0.00  0.00    +0.004 A 
ATOM     37  C   UNL     1      -4.011   1.020   0.998  0.00  0.00    +0.000 A 
ATOM     38  C   UNL     1      -4.416   0.283  -0.099  0.00  0.00    +0.000 A 
ATOM     39  C   UNL     1      -3.951  -1.007  -0.276  0.00  0.00    +0.000 A 
ATOM     40  C   UNL     1      -3.079  -1.559   0.644  0.00  0.00    +0.004 A 
ENDBRANCH  34  35
ENDBRANCH  23  34
ENDBRANCH   6  23
TORSDOF 9
