REMARK  Name = ZINC20785381
REMARK  4 active torsions:
REMARK  status: ('A' for Active; 'I' for Inactive)
REMARK    1  A    between atoms: C_11  and  C_27
REMARK    2  A    between atoms: N_13  and  C_16
REMARK    3  A    between atoms: C_16  and  C_17
REMARK    4  A    between atoms: C_31  and  O_33
REMARK                            x       y       z     vdW  Elec       q    Type
REMARK                         _______ _______ _______ _____ _____    ______ ____
ROOT
ATOM      1  C   UNL     1      -4.800   2.641   5.052  0.00  0.00    +0.001 A 
ATOM      2  C   UNL     1      -3.596   3.034   5.613  0.00  0.00    +0.002 A 
ATOM      3  C   UNL     1      -2.435   3.144   4.867  0.00  0.00    +0.026 A 
ATOM      4  C   UNL     1      -2.525   2.840   3.510  0.00  0.00    +0.047 A 
ATOM      5  C   UNL     1      -3.761   2.438   2.941  0.00  0.00    +0.003 A 
ATOM      6  C   UNL     1      -4.919   2.335   3.719  0.00  0.00    +0.010 A 
ATOM      7  C   UNL     1      -3.496   2.207   1.539  0.00  0.00    -0.016 A 
ATOM      8  C   UNL     1      -2.184   2.463   1.332  0.00  0.00    +0.042 A 
ATOM      9  N   UNL     1      -1.597   2.843   2.509  0.00  0.00    -0.356 N 
ATOM     10  H   UNL     1      -0.556   3.126   2.724  0.00  0.00    +0.166 HD
ATOM     11  C   UNL     1      -1.522   2.332  -0.019  0.00  0.00    +0.135 C 
ATOM     12  N   UNL     1      -2.397   1.530  -0.891  0.00  0.00    -0.286 NA
ATOM     13  C   UNL     1      -3.769   2.055  -0.903  0.00  0.00    +0.090 C 
ATOM     14  C   UNL     1      -4.439   1.766   0.448  0.00  0.00    +0.053 C 
ENDROOT
BRANCH  11  15
ATOM     15  C   UNL     1      -0.191   1.643   0.134  0.00  0.00    -0.021 A 
ATOM     16  C   UNL     1      -0.135   0.266   0.255  0.00  0.00    +0.006 A 
ATOM     17  C   UNL     1       1.085  -0.369   0.390  0.00  0.00    +0.004 A 
ATOM     18  C   UNL     1       2.252   0.370   0.404  0.00  0.00    +0.045 A 
ATOM     19  C   UNL     1       2.199   1.750   0.282  0.00  0.00    +0.117 A 
ATOM     20  C   UNL     1       0.973   2.386   0.147  0.00  0.00    +0.051 A 
BRANCH  19  21
ATOM     21  O   UNL     1       3.346   2.479   0.295  0.00  0.00    -0.507 OA
ATOM     22  H   UNL     1       3.303   3.574   0.199  0.00  0.00    +0.292 HD
ENDBRANCH  19  21
ENDBRANCH  11  15
BRANCH  12  23
ATOM     23  C   UNL     1      -1.852   1.450  -2.252  0.00  0.00    +0.122 C 
BRANCH  23  24
ATOM     24  C   UNL     1      -2.637   0.440  -3.049  0.00  0.00    -0.006 A 
ATOM     25  C   UNL     1      -3.553   0.856  -3.966  0.00  0.00    +0.007 A 
ATOM     26  C   UNL     1      -4.289  -0.062  -4.712  0.00  0.00    +0.003 A 
ATOM     27  C   UNL     1      -4.112  -1.402  -4.546  0.00  0.00    +0.030 A 
ATOM     28  C   UNL     1      -3.175  -1.870  -3.609  0.00  0.00    +0.089 A 
ATOM     29  C   UNL     1      -2.423  -0.935  -2.853  0.00  0.00    +0.094 A 
ATOM     30  N   UNL     1      -1.534  -1.374  -1.955  0.00  0.00    -0.252 NA
ATOM     31  C   UNL     1      -1.359  -2.666  -1.790  0.00  0.00    +0.131 A 
ATOM     32  C   UNL     1      -2.096  -3.586  -2.539  0.00  0.00    +0.131 A 
ATOM     33  N   UNL     1      -2.979  -3.179  -3.422  0.00  0.00    -0.252 NA
ENDBRANCH  23  24
ENDBRANCH  12  23
TORSDOF 4
