REMARK  Name = ZINC03653350
REMARK  7 active torsions:
REMARK  status: ('A' for Active; 'I' for Inactive)
REMARK    1  A    between atoms: C_1  and  N_2
REMARK    2  A    between atoms: N_2  and  C_3
REMARK    3  A    between atoms: N_2  and  C_4
REMARK    4  A    between atoms: C_7  and  C_10
REMARK    5  A    between atoms: C_22  and  S_25
REMARK    6  A    between atoms: S_25  and  C_26
REMARK    7  A    between atoms: C_26  and  C_27
REMARK                            x       y       z     vdW  Elec       q    Type
REMARK                         _______ _______ _______ _____ _____    ______ ____
ROOT
ATOM      1  C   UNL     1       0.465  -0.728  -1.202  0.00  0.00    +0.294 C 
ATOM      2  N   UNL     1       0.001  -0.058   0.008  0.00  0.00    -0.305 N 
ATOM      3  C   UNL     1      -0.024   1.339   0.035  0.00  0.00    +0.039 A 
ATOM      4  C   UNL     1      -1.217   2.038   0.053  0.00  0.00    +0.024 A 
ATOM      5  C   UNL     1      -1.205   3.421   0.064  0.00  0.00    +0.002 A 
ATOM      6  C   UNL     1      -0.005   4.112   0.050  0.00  0.00    +0.001 A 
ATOM      7  C   UNL     1       1.195   3.428   0.036  0.00  0.00    +0.012 A 
ATOM      8  C   UNL     1       1.197   2.039   0.036  0.00  0.00    +0.028 A 
ATOM      9  C   UNL     1       2.457   1.267   0.047  0.00  0.00    +0.156 A 
ATOM     10  C   UNL     1       2.625   0.190  -0.854  0.00  0.00    +0.248 A 
ATOM     11  N   UNL     1       3.755  -0.495  -0.821  0.00  0.00    -0.184 NA
ATOM     12  C   UNL     1       4.699  -0.152   0.051  0.00  0.00    +0.213 A 
ATOM     13  N   UNL     1       4.524   0.865   0.885  0.00  0.00    -0.122 NA
ATOM     14  N   UNL     1       3.438   1.558   0.888  0.00  0.00    -0.141 NA
ATOM     15  O   UNL     1       1.638  -0.118  -1.728  0.00  0.00    -0.449 OA
ATOM     16  H   UNL     1      -0.285  -0.572   0.780  0.00  0.00    +0.150 HD
ENDROOT
BRANCH   1  20
ATOM     17  C   UNL     1      -2.626  -0.575  -4.151  0.00  0.00    +0.029 A 
ATOM     18  C   UNL     1      -1.300  -0.391  -4.522  0.00  0.00    +0.023 A 
ATOM     19  C   UNL     1      -0.304  -0.441  -3.567  0.00  0.00    +0.011 A 
ATOM     20  C   UNL     1      -0.625  -0.674  -2.242  0.00  0.00    +0.011 A 
ATOM     21  C   UNL     1      -1.943  -0.864  -1.870  0.00  0.00    +0.011 A 
ATOM     22  C   UNL     1      -2.945  -0.809  -2.819  0.00  0.00    +0.023 A 
BRANCH  17  24
ATOM     23  C   UNL     1      -3.290  -0.399  -6.532  0.00  0.00    +0.129 C 
ATOM     24  N   UNL     1      -3.636  -0.526  -5.114  0.00  0.00    -0.336 N 
ATOM     25  C   UNL     1      -5.041  -0.601  -4.707  0.00  0.00    +0.129 C 
ENDBRANCH  17  24
ENDBRANCH   1  20
BRANCH  12  26
ATOM     26  S   UNL     1       6.207  -1.063   0.099  0.00  0.00    -0.080 S 
BRANCH  26  27
ATOM     27  C   UNL     1       7.066  -0.177   1.423  0.00  0.00    +0.112 C 
BRANCH  27  28
ATOM     28  C   UNL     1       8.421  -0.800   1.647  0.00  0.00    -0.037 A 
ATOM     29  C   UNL     1       8.566  -1.826   2.561  0.00  0.00    +0.006 A 
ATOM     30  C   UNL     1       9.807  -2.401   2.763  0.00  0.00    +0.020 A 
ATOM     31  C   UNL     1      10.905  -1.942   2.058  0.00  0.00    +0.041 A 
ATOM     32  C   UNL     1      10.759  -0.911   1.147  0.00  0.00    +0.020 A 
ATOM     33  C   UNL     1       9.517  -0.340   0.942  0.00  0.00    +0.006 A 
ATOM     34 CL   UNL     1      12.464  -2.659   2.315  0.00  0.00    -0.084 Cl
ENDBRANCH  27  28
ENDBRANCH  26  27
ENDBRANCH  12  26
TORSDOF 5
