REMARK  Name = ZINC39769919
REMARK  7 active torsions:
REMARK  status: ('A' for Active; 'I' for Inactive)
REMARK    1  A    between atoms: C_1  and  O_2
REMARK    2  A    between atoms: O_2  and  C_3
REMARK    3  A    between atoms: C_6  and  C_10
REMARK    4  A    between atoms: C_8  and  O_9
REMARK    5  A    between atoms: N_11  and  N_12
REMARK    6  A    between atoms: C_13  and  C_15
REMARK    7  A    between atoms: C_18  and  C_21
REMARK                            x       y       z     vdW  Elec       q    Type
REMARK                         _______ _______ _______ _____ _____    ______ ____
ROOT
ATOM      1  N   UNL     1      -7.299  -2.568   0.052  0.00  0.00    -0.205 N 
ATOM      2  C   UNL     1      -8.437  -1.847   0.062  0.00  0.00    +0.263 C 
ATOM      3  O   UNL     1      -8.387  -0.634   0.063  0.00  0.00    -0.271 OA
ATOM      4  H   UNL     1      -7.339  -3.537   0.051  0.00  0.00    +0.177 HD
ENDROOT
BRANCH   2   5
ATOM      5  C   UNL     1      -9.773  -2.546   0.070  0.00  0.00    +0.240 C 
ATOM      6  C   UNL     1     -10.149  -2.964   1.481  0.00  0.00    +0.041 C 
ATOM      7  C   UNL     1     -11.288  -2.287   1.725  0.00  0.00    +0.092 C 
ATOM      8  N   UNL     1     -11.629  -1.529   0.650  0.00  0.00    -0.153 NA
ATOM      9  N   UNL     1     -10.849  -1.615  -0.306  0.00  0.00    -0.170 NA
BRANCH   7  10
ATOM     10  C   UNL     1     -12.061  -2.359   2.989  0.00  0.00    +0.002 A 
ATOM     11  C   UNL     1     -11.607  -3.176   4.037  0.00  0.00    +0.011 A 
ATOM     12  C   UNL     1     -12.296  -3.260   5.204  0.00  0.00    +0.009 A 
ATOM     13  C   UNL     1     -13.482  -2.523   5.375  0.00  0.00    -0.018 A 
ATOM     14  C   UNL     1     -14.213  -2.592   6.573  0.00  0.00    +0.008 A 
ATOM     15  C   UNL     1     -15.356  -1.866   6.708  0.00  0.00    +0.001 A 
ATOM     16  C   UNL     1     -15.816  -1.052   5.675  0.00  0.00    +0.001 A 
ATOM     17  C   UNL     1     -15.135  -0.960   4.500  0.00  0.00    +0.008 A 
ATOM     18  C   UNL     1     -13.949  -1.694   4.324  0.00  0.00    -0.017 A 
ATOM     19  C   UNL     1     -13.219  -1.617   3.127  0.00  0.00    +0.018 A 
ENDBRANCH   7  10
ENDBRANCH   2   5
BRANCH   1  21
ATOM     20  C   UNL     1      -4.962  -2.613   0.035  0.00  0.00    +0.138 C 
ATOM     21  N   UNL     1      -6.058  -1.919   0.044  0.00  0.00    -0.188 NA
BRANCH  20  25
ATOM     22  C   UNL     1      -1.201  -0.638   0.010  0.00  0.00    +0.161 A 
ATOM     23  C   UNL     1      -2.373   0.104   0.019  0.00  0.00    +0.050 A 
ATOM     24  C   UNL     1      -3.596  -0.534   0.027  0.00  0.00    +0.013 A 
ATOM     25  C   UNL     1      -3.656  -1.930   0.026  0.00  0.00    -0.002 A 
ATOM     26  C   UNL     1      -2.474  -2.676   0.016  0.00  0.00    +0.058 A 
ATOM     27  C   UNL     1      -1.253  -2.030   0.003  0.00  0.00    +0.159 A 
BRANCH  22  29
ATOM     28  C   UNL     1      -0.017   1.425   0.010  0.00  0.00    +0.277 C 
ATOM     29  O   UNL     1       0.002  -0.004   0.002  0.00  0.00    -0.491 OA
ENDBRANCH  22  29
BRANCH  27  30
ATOM     30  O   UNL     1      -0.101  -2.753  -0.011  0.00  0.00    -0.503 OA
ATOM     31  H   UNL     1       0.240  -2.967   0.868  0.00  0.00    +0.292 HD
ENDBRANCH  27  30
ENDBRANCH  20  25
ENDBRANCH   1  21
TORSDOF 6
