REMARK  Name = ZINC17858953
REMARK  4 active torsions:
REMARK  status: ('A' for Active; 'I' for Inactive)
REMARK    1  A    between atoms: C_1  and  C_2
REMARK    2  A    between atoms: N_10  and  N_11
REMARK    3  A    between atoms: C_12  and  C_14
REMARK    4  A    between atoms: C_17  and  C_19
REMARK                            x       y       z     vdW  Elec       q    Type
REMARK                         _______ _______ _______ _____ _____    ______ ____
ROOT
ATOM      1  C   UNL     1       3.122   0.490   0.220  0.00  0.00    +0.045 C 
ATOM      2  C   UNL     1       2.215  -0.711   0.148  0.00  0.00    -0.036 A 
ATOM      3  C   UNL     1       1.937  -1.297  -1.075  0.00  0.00    +0.006 A 
ATOM      4  C   UNL     1       1.108  -2.397  -1.156  0.00  0.00    +0.024 A 
ATOM      5  C   UNL     1       0.541  -2.931  -0.004  0.00  0.00    +0.044 A 
ATOM      6  C   UNL     1       0.824  -2.337   1.232  0.00  0.00    +0.042 A 
ATOM      7  C   UNL     1       1.665  -1.231   1.305  0.00  0.00    +0.032 A 
ATOM      8 BR   UNL     1       2.049  -0.438   2.978  0.00  0.00    -0.049 Br
ATOM      9  C   UNL     1       0.086  -3.119   2.251  0.00  0.00    +0.154 C 
ATOM     10  N   UNL     1       0.060  -2.918   3.546  0.00  0.00    -0.174 NA
ATOM     11  C   UNL     1      -0.613  -4.174   1.490  0.00  0.00    +0.269 C 
ATOM     12  O   UNL     1      -1.335  -5.035   1.956  0.00  0.00    -0.268 OA
ATOM     13  N   UNL     1      -0.311  -4.013   0.190  0.00  0.00    -0.280 N 
ATOM     14  H   UNL     1      -0.645  -4.580  -0.523  0.00  0.00    +0.155 HD
ENDROOT
BRANCH  10  15
ATOM     15  N   UNL     1       0.149  -1.616   4.056  0.00  0.00    -0.206 N 
ATOM     16  C   UNL     1       0.254  -1.418   5.385  0.00  0.00    +0.236 C 
ATOM     17  O   UNL     1       0.272  -2.367   6.139  0.00  0.00    -0.274 OA
ATOM     18  H   UNL     1       0.136  -0.857   3.452  0.00  0.00    +0.177 HD
BRANCH  16  19
ATOM     19  C   UNL     1       0.350  -0.018   5.932  0.00  0.00    +0.085 C 
ATOM     20  C   UNL     1      -0.839   0.509   6.738  0.00  0.00    +0.022 C 
ATOM     21  C   UNL     1       0.466   0.141   7.450  0.00  0.00    +0.032 C 
BRANCH  21  22
ATOM     22  C   UNL     1       0.474  -1.115   8.282  0.00  0.00    -0.044 A 
ATOM     23  C   UNL     1      -0.602  -1.982   8.236  0.00  0.00    +0.004 A 
ATOM     24  C   UNL     1      -0.594  -3.134   9.000  0.00  0.00    +0.000 A 
ATOM     25  C   UNL     1       0.490  -3.420   9.809  0.00  0.00    +0.000 A 
ATOM     26  C   UNL     1       1.567  -2.554   9.854  0.00  0.00    +0.000 A 
ATOM     27  C   UNL     1       1.560  -1.403   9.087  0.00  0.00    +0.004 A 
ENDBRANCH  21  22
ENDBRANCH  16  19
ENDBRANCH  10  15
TORSDOF 3
