REMARK  Name = ZINC01081862
REMARK  7 active torsions:
REMARK  status: ('A' for Active; 'I' for Inactive)
REMARK    1  A    between atoms: C_1  and  C_2
REMARK    2  A    between atoms: C_2  and  C_4
REMARK    3  A    between atoms: C_2  and  N_17
REMARK    4  A    between atoms: N_6  and  N_7
REMARK    5  A    between atoms: C_8  and  C_9
REMARK    6  A    between atoms: C_14  and  O_15
REMARK    7  A    between atoms: N_17  and  C_18
REMARK                            x       y       z     vdW  Elec       q    Type
REMARK                         _______ _______ _______ _____ _____    ______ ____
ROOT
ATOM      1  C   UNL     1       0.707  -0.490  -1.238  0.00  0.00    +0.252 C 
ATOM      2  O   UNL     1       0.120  -1.191  -2.035  0.00  0.00    -0.272 OA
ATOM      3  N   UNL     1       1.991  -0.146  -1.462  0.00  0.00    -0.205 N 
ATOM      4  H   UNL     1       2.461   0.415  -0.825  0.00  0.00    +0.177 HD
ENDROOT
BRANCH   1   6
ATOM      5  C   UNL     1      -0.019   1.526   0.010  0.00  0.00    +0.038 C 
ATOM      6  C   UNL     1       0.002  -0.004   0.002  0.00  0.00    +0.155 C 
BRANCH   6   7
ATOM      7  N   UNL     1      -1.372  -0.511   0.012  0.00  0.00    -0.333 N 
ATOM      8  H   UNL     1      -1.810  -0.743  -0.822  0.00  0.00    +0.147 HD
BRANCH   7   9
ATOM      9  C   UNL     1      -2.052  -0.660   1.223  0.00  0.00    +0.028 A 
ATOM     10  C   UNL     1      -1.416  -0.318   2.422  0.00  0.00    +0.023 A 
ATOM     11  C   UNL     1      -2.053  -0.453   3.615  0.00  0.00    +0.010 A 
ATOM     12  C   UNL     1      -3.371  -0.942   3.653  0.00  0.00    -0.018 A 
ATOM     13  C   UNL     1      -4.055  -1.091   4.872  0.00  0.00    +0.008 A 
ATOM     14  C   UNL     1      -5.330  -1.568   4.875  0.00  0.00    +0.001 A 
ATOM     15  C   UNL     1      -5.971  -1.911   3.686  0.00  0.00    +0.001 A 
ATOM     16  C   UNL     1      -5.341  -1.780   2.487  0.00  0.00    +0.008 A 
ATOM     17  C   UNL     1      -4.023  -1.291   2.444  0.00  0.00    -0.016 A 
ATOM     18  C   UNL     1      -3.344  -1.138   1.224  0.00  0.00    +0.031 A 
ENDBRANCH   7   9
ENDBRANCH   6   7
ENDBRANCH   1   6
BRANCH   3  19
ATOM     19  N   UNL     1       2.647  -0.598  -2.614  0.00  0.00    -0.188 NA
ATOM     20  C   UNL     1       3.883  -0.266  -2.830  0.00  0.00    +0.142 C 
BRANCH  20  21
ATOM     21  C   UNL     1       4.573  -0.741  -4.042  0.00  0.00    +0.037 A 
ATOM     22  C   UNL     1       5.905  -0.392  -4.275  0.00  0.00    +0.033 A 
ATOM     23  C   UNL     1       6.545  -0.841  -5.412  0.00  0.00    +0.042 A 
ATOM     24  C   UNL     1       5.871  -1.636  -6.324  0.00  0.00    +0.023 A 
ATOM     25  C   UNL     1       4.553  -1.988  -6.105  0.00  0.00    +0.047 A 
ATOM     26  C   UNL     1       3.898  -1.551  -4.965  0.00  0.00    +0.126 A 
ATOM     27 CL   UNL     1       8.201  -0.406  -5.701  0.00  0.00    -0.084 Cl
BRANCH  26  28
ATOM     28  O   UNL     1       2.604  -1.902  -4.746  0.00  0.00    -0.506 OA
ATOM     29  H   UNL     1       1.960  -1.283  -5.118  0.00  0.00    +0.292 HD
ENDBRANCH  26  28
ENDBRANCH  20  21
ENDBRANCH   3  19
TORSDOF 6
