REMARK  Name = ZINC38702973
REMARK  7 active torsions:
REMARK  status: ('A' for Active; 'I' for Inactive)
REMARK    1  A    between atoms: C_1  and  C_2
REMARK    2  A    between atoms: C_2  and  C_3
REMARK    3  A    between atoms: C_3  and  C_4
REMARK    4  A    between atoms: C_4  and  O_5
REMARK    5  A    between atoms: O_5  and  C_6
REMARK    6  A    between atoms: C_10  and  C_12
REMARK    7  A    between atoms: C_20  and  C_28
REMARK                            x       y       z     vdW  Elec       q    Type
REMARK                         _______ _______ _______ _____ _____    ______ ____
ROOT
ATOM      1  C   UNL     1      -5.730  -6.426   0.011  0.00  0.00    +0.142 C 
ATOM      2  C   UNL     1      -6.091  -6.883   1.386  0.00  0.00    +0.072 A 
ATOM      3  C   UNL     1      -6.211  -6.146   2.649  0.00  0.00    +0.199 A 
ATOM      4  O   UNL     1      -6.188  -4.930   2.716  0.00  0.00    -0.287 OA
ATOM      5  C   UNL     1      -6.366  -7.024   3.836  0.00  0.00    +0.066 A 
ATOM      6  C   UNL     1      -6.294  -6.489   5.123  0.00  0.00    +0.035 A 
ATOM      7  C   UNL     1      -6.434  -7.319   6.214  0.00  0.00    +0.045 A 
ATOM      8  C   UNL     1      -6.646  -8.680   6.030  0.00  0.00    -0.029 A 
ATOM      9  C   UNL     1      -6.720  -9.217   4.765  0.00  0.00    +0.051 A 
ATOM     10  C   UNL     1      -6.584  -8.398   3.645  0.00  0.00    +0.140 A 
ATOM     11  O   UNL     1      -6.672  -8.950   2.413  0.00  0.00    -0.450 OA
ATOM     12  C   UNL     1      -6.318  -8.229   1.332  0.00  0.00    +0.199 A 
ATOM     13  C   UNL     1      -6.109  -8.677  -0.056  0.00  0.00    +0.281 C 
ATOM     14  O   UNL     1      -6.228  -9.822  -0.443  0.00  0.00    -0.267 OA
ATOM     15  N   UNL     1      -5.767  -7.629  -0.836  0.00  0.00    -0.298 N 
ATOM     16  C   UNL     1      -6.796  -9.579   7.230  0.00  0.00    +0.045 C 
ATOM     17 CL   UNL     1      -6.346  -6.665   7.819  0.00  0.00    -0.083 Cl
ATOM     18  H   UNL     1      -5.578  -7.663  -1.787  0.00  0.00    +0.150 HD
ENDROOT
BRANCH   1  23
ATOM     19  C   UNL     1      -2.913  -3.908   0.009  0.00  0.00    +0.121 A 
ATOM     20  C   UNL     1      -1.802  -4.739  -0.000  0.00  0.00    +0.045 A 
ATOM     21  C   UNL     1      -1.967  -6.110  -0.006  0.00  0.00    +0.004 A 
ATOM     22  C   UNL     1      -3.238  -6.655  -0.002  0.00  0.00    +0.006 A 
ATOM     23  C   UNL     1      -4.347  -5.829   0.007  0.00  0.00    -0.019 A 
ATOM     24  C   UNL     1      -4.187  -4.457   0.018  0.00  0.00    +0.051 A 
BRANCH  19  25
ATOM     25  O   UNL     1      -2.753  -2.558   0.015  0.00  0.00    -0.492 OA
BRANCH  25  26
ATOM     26  C   UNL     1      -1.413  -2.063   0.004  0.00  0.00    +0.229 C 
BRANCH  26  27
ATOM     27  C   UNL     1      -1.433  -0.534   0.013  0.00  0.00    +0.041 C 
BRANCH  27  29
ATOM     28  C   UNL     1      -0.019   1.526   0.010  0.00  0.00    +0.004 C 
ATOM     29  C   UNL     1       0.002  -0.004   0.002  0.00  0.00    -0.000 C 
ENDBRANCH  27  29
ENDBRANCH  26  27
ENDBRANCH  25  26
ENDBRANCH  19  25
ENDBRANCH   1  23
TORSDOF 5
