REMARK  Name = ZINC36259962
REMARK  6 active torsions:
REMARK  status: ('A' for Active; 'I' for Inactive)
REMARK    1  A    between atoms: C_1  and  C_2
REMARK    2  A    between atoms: C_11  and  O_13
REMARK    3  A    between atoms: O_13  and  C_14
REMARK    4  A    between atoms: C_14  and  C_15
REMARK    5  A    between atoms: N_17  and  C_18
REMARK    6  A    between atoms: C_19  and  C_27
REMARK                            x       y       z     vdW  Elec       q    Type
REMARK                         _______ _______ _______ _____ _____    ______ ____
ROOT
ATOM      1  C   UNL     1       0.130  -4.991   6.007  0.00  0.00    +0.255 C 
ATOM      2  O   UNL     1       0.129  -4.282   6.990  0.00  0.00    -0.272 OA
ATOM      3  N   UNL     1       0.150  -6.332   6.143  0.00  0.00    -0.277 N 
ATOM      4  H   UNL     1       0.151  -6.899   5.356  0.00  0.00    +0.155 HD
ENDROOT
BRANCH   3   5
ATOM      5  C   UNL     1       0.171  -6.901   7.407  0.00  0.00    +0.084 A 
ATOM      6  C   UNL     1       0.199  -8.247   7.736  0.00  0.00    +0.068 A 
ATOM      7  C   UNL     1       0.216  -8.585   9.148  0.00  0.00    -0.023 A 
ATOM      8  C   UNL     1       0.202  -7.516   9.973  0.00  0.00    -0.004 A 
ATOM      9  S   UNL     1       0.175  -6.116   8.892  0.00  0.00    -0.077 S 
ATOM     10  C   UNL     1       0.211  -7.534  11.470  0.00  0.00    +0.043 C 
ATOM     11  C   UNL     1      -0.140  -8.954  11.937  0.00  0.00    +0.005 C 
ATOM     12  C   UNL     1       0.710  -9.959  11.153  0.00  0.00    +0.005 C 
ATOM     13  C   UNL     1       0.249 -10.005   9.695  0.00  0.00    +0.037 C 
BRANCH   6  14
ATOM     14  C   UNL     1       0.210  -9.286   6.701  0.00  0.00    +0.244 C 
ATOM     15  O   UNL     1       1.269  -9.697   6.264  0.00  0.00    -0.270 OA
ATOM     16  N   UNL     1      -0.951  -9.785   6.234  0.00  0.00    -0.325 N 
ATOM     17  H   UNL     1      -1.795  -9.457   6.583  0.00  0.00    +0.145 HD
ATOM     18  H   UNL     1      -0.944 -10.472   5.550  0.00  0.00    +0.145 HD
ENDBRANCH   6  14
ENDBRANCH   3   5
BRANCH   1  19
ATOM     19  C   UNL     1       0.108  -4.373   4.632  0.00  0.00    +0.325 C 
BRANCH  19  20
ATOM     20  O   UNL     1       0.088  -2.950   4.751  0.00  0.00    -0.481 OA
BRANCH  20  31
ATOM     21  C   UNL     1      -0.018   1.503   0.010  0.00  0.00    +0.045 C 
ATOM     22  C   UNL     1       0.002  -0.004   0.002  0.00  0.00    -0.033 A 
ATOM     23  C   UNL     1       0.006  -0.695  -1.167  0.00  0.00    +0.096 A 
ATOM     24  C   UNL     1       0.026  -2.105  -1.149  0.00  0.00    +0.337 A 
ATOM     25  O   UNL     1       0.029  -2.712  -2.205  0.00  0.00    -0.245 OA
ATOM     26  O   UNL     1       0.042  -2.795   0.002  0.00  0.00    -0.422 OA
ATOM     27  C   UNL     1       0.038  -2.169   1.199  0.00  0.00    +0.143 A 
ATOM     28  C   UNL     1       0.024  -0.763   1.254  0.00  0.00    +0.022 A 
ATOM     29  C   UNL     1       0.026  -0.110   2.492  0.00  0.00    +0.035 A 
ATOM     30  C   UNL     1       0.047  -0.842   3.645  0.00  0.00    +0.083 A 
ATOM     31  C   UNL     1       0.067  -2.235   3.596  0.00  0.00    +0.143 A 
ATOM     32  C   UNL     1       0.054  -2.897   2.379  0.00  0.00    +0.094 A 
ATOM     33 CL   UNL     1       0.050  -0.033   5.181  0.00  0.00    -0.080 Cl
ENDBRANCH  20  31
ENDBRANCH  19  20
ENDBRANCH   1  19
TORSDOF 5
