REMARK  Name = ZINC08427128
REMARK  9 active torsions:
REMARK  status: ('A' for Active; 'I' for Inactive)
REMARK    1  A    between atoms: C_1  and  O_2
REMARK    2  A    between atoms: O_2  and  C_3
REMARK    3  A    between atoms: C_6  and  N_30
REMARK    4  A    between atoms: C_8  and  C_9
REMARK    5  A    between atoms: N_10  and  N_11
REMARK    6  A    between atoms: C_12  and  C_14
REMARK    7  A    between atoms: C_14  and  N_21
REMARK    8  A    between atoms: C_15  and  C_16
REMARK    9  A    between atoms: C_22  and  C_24
REMARK                            x       y       z     vdW  Elec       q    Type
REMARK                         _______ _______ _______ _____ _____    ______ ____
ROOT
ATOM      1  N   UNL     1      -2.418  -2.127  -1.826  0.00  0.00    -0.202 N 
ATOM      2  C   UNL     1      -1.660  -2.536  -2.863  0.00  0.00    +0.277 C 
ATOM      3  O   UNL     1      -0.482  -2.237  -2.910  0.00  0.00    -0.267 OA
ATOM      4  H   UNL     1      -3.338  -2.426  -1.750  0.00  0.00    +0.178 HD
ENDROOT
BRANCH   1   6
ATOM      5  C   UNL     1      -2.580  -0.952   0.200  0.00  0.00    +0.142 C 
ATOM      6  N   UNL     1      -1.877  -1.271  -0.858  0.00  0.00    -0.187 NA
BRANCH   5  12
ATOM      7  C   UNL     1      -0.641   0.287   1.156  0.00  0.00    +0.129 A 
ATOM      8  C   UNL     1      -0.085   1.054   2.168  0.00  0.00    +0.048 A 
ATOM      9  C   UNL     1      -0.835   1.384   3.280  0.00  0.00    +0.036 A 
ATOM     10  C   UNL     1      -2.150   0.954   3.396  0.00  0.00    +0.127 A 
ATOM     11  C   UNL     1      -2.723   0.193   2.403  0.00  0.00    +0.045 A 
ATOM     12  C   UNL     1      -1.977  -0.147   1.265  0.00  0.00    +0.038 A 
BRANCH  10  13
ATOM     13  N   UNL     1      -2.940   1.317   4.594  0.00  0.00    +0.056 N 
ATOM     14  O   UNL     1      -2.395   2.046   5.546  0.00  0.00    -0.126 OA
ATOM     15  O   UNL     1      -4.188   0.911   4.707  0.00  0.00    -0.126 OA
ENDBRANCH  10  13
BRANCH   7  17
ATOM     16  C   UNL     1       1.442   0.438   0.025  0.00  0.00    +0.277 C 
ATOM     17  O   UNL     1       0.095  -0.038   0.064  0.00  0.00    -0.494 OA
ENDBRANCH   7  17
ENDBRANCH   5  12
ENDBRANCH   1   6
BRANCH   2  18
ATOM     18  C   UNL     1      -2.261  -3.348  -3.943  0.00  0.00    +0.099 C 
ATOM     19  C   UNL     1      -2.190  -4.759  -3.890  0.00  0.00    +0.043 C 
BRANCH  19  20
ATOM     20  C   UNL     1      -1.658  -5.382  -2.778  0.00  0.00    +0.014 A 
ATOM     21  C   UNL     1      -1.385  -6.817  -2.553  0.00  0.00    +0.015 A 
ATOM     22  C   UNL     1      -0.861  -7.099  -1.354  0.00  0.00    +0.008 A 
ATOM     23  C   UNL     1      -0.623  -6.064  -0.447  0.00  0.00    +0.046 A 
ATOM     24  S   UNL     1      -1.114  -4.666  -1.238  0.00  0.00    -0.097 S 
ENDBRANCH  19  20
BRANCH  18  25
ATOM     25  N   UNL     1      -2.878  -2.741  -4.982  0.00  0.00    -0.277 N 
ATOM     26  C   UNL     1      -2.850  -1.399  -5.092  0.00  0.00    +0.248 C 
ATOM     27  O   UNL     1      -2.185  -0.740  -4.316  0.00  0.00    -0.270 OA
ATOM     28  H   UNL     1      -3.342  -3.273  -5.648  0.00  0.00    +0.155 HD
BRANCH  26  29
ATOM     29  C   UNL     1      -3.626  -0.727  -6.154  0.00  0.00    +0.037 A 
ATOM     30  C   UNL     1      -4.395  -1.481  -7.044  0.00  0.00    +0.013 A 
ATOM     31  C   UNL     1      -5.118  -0.848  -8.033  0.00  0.00    +0.001 A 
ATOM     32  C   UNL     1      -5.081   0.531  -8.147  0.00  0.00    +0.000 A 
ATOM     33  C   UNL     1      -4.321   1.284  -7.269  0.00  0.00    +0.001 A 
ATOM     34  C   UNL     1      -3.598   0.664  -6.271  0.00  0.00    +0.013 A 
ENDBRANCH  26  29
ENDBRANCH  18  25
ENDBRANCH   2  18
TORSDOF 8
