REMARK  Name = ZINC44658353
REMARK  5 active torsions:
REMARK  status: ('A' for Active; 'I' for Inactive)
REMARK    1  A    between atoms: C_7  and  C_10
REMARK    2  A    between atoms: C_13  and  S_23
REMARK    3  A    between atoms: N_15  and  C_16
REMARK    4  A    between atoms: S_23  and  C_24
REMARK    5  A    between atoms: C_24  and  C_25
REMARK                            x       y       z     vdW  Elec       q    Type
REMARK                         _______ _______ _______ _____ _____    ______ ____
ROOT
ATOM      1  C   UNL     1       0.664  -3.313   0.545  0.00  0.00    +0.151 C 
ATOM      2  N   UNL     1      -0.630  -3.144   0.472  0.00  0.00    -0.169 NA
ATOM      3  N   UNL     1      -1.237  -4.172  -0.260  0.00  0.00    -0.237 N 
ATOM      4  C   UNL     1      -0.157  -5.079  -0.681  0.00  0.00    +0.241 C 
ATOM      5  N   UNL     1       1.065  -4.468  -0.133  0.00  0.00    -0.254 N 
ATOM      6  H   UNL     1      -2.183  -4.268  -0.451  0.00  0.00    +0.171 HD
ENDROOT
BRANCH   1  13
ATOM      7  C   UNL     1      -0.077   0.350   3.117  0.00  0.00    +0.001 A 
ATOM      8  C   UNL     1       1.093   0.939   3.601  0.00  0.00    +0.002 A 
ATOM      9  C   UNL     1       2.319   0.438   3.311  0.00  0.00    +0.026 A 
ATOM     10  C   UNL     1       2.434  -0.716   2.494  0.00  0.00    +0.043 A 
ATOM     11  N   UNL     1       3.490  -1.386   2.074  0.00  0.00    -0.380 N 
ATOM     12  C   UNL     1       3.050  -2.513   1.246  0.00  0.00    +0.152 C 
ATOM     13  C   UNL     1       1.539  -2.443   1.213  0.00  0.00    +0.022 C 
ATOM     14  C   UNL     1       1.198  -1.333   1.986  0.00  0.00    +0.006 A 
ATOM     15  C   UNL     1      -0.043  -0.756   2.330  0.00  0.00    +0.010 A 
ATOM     16  H   UNL     1       4.412  -1.167   2.280  0.00  0.00    +0.160 HD
ENDBRANCH   1  13
BRANCH   5  17
ATOM     17  C   UNL     1       2.371  -4.949  -0.263  0.00  0.00    +0.038 A 
ATOM     18  C   UNL     1       2.854  -5.898   0.628  0.00  0.00    +0.025 A 
ATOM     19  C   UNL     1       4.145  -6.372   0.497  0.00  0.00    +0.022 A 
ATOM     20  C   UNL     1       4.957  -5.901  -0.520  0.00  0.00    +0.041 A 
ATOM     21  C   UNL     1       4.477  -4.955  -1.409  0.00  0.00    +0.022 A 
ATOM     22  C   UNL     1       3.186  -4.482  -1.287  0.00  0.00    +0.025 A 
ATOM     23 CL   UNL     1       6.579  -6.498  -0.681  0.00  0.00    -0.084 Cl
ENDBRANCH   5  17
BRANCH   4  24
ATOM     24  S   UNL     1      -0.066  -5.161  -2.490  0.00  0.00    -0.108 S 
BRANCH  24  25
ATOM     25  C   UNL     1       0.218  -3.442  -2.994  0.00  0.00    +0.168 C 
BRANCH  25  26
ATOM     26  C   UNL     1       0.315  -3.367  -4.496  0.00  0.00    +0.220 C 
ATOM     27  O   UNL     1       0.203  -4.375  -5.161  0.00  0.00    -0.275 OA
ATOM     28  N   UNL     1       0.526  -2.181  -5.099  0.00  0.00    -0.329 N 
ATOM     29  H   UNL     1       0.616  -1.375  -4.567  0.00  0.00    +0.145 HD
ATOM     30  H   UNL     1       0.588  -2.133  -6.066  0.00  0.00    +0.145 HD
ENDBRANCH  25  26
ENDBRANCH  24  25
ENDBRANCH   4  24
TORSDOF 5
