REMARK  Name = ZINC20842221
REMARK  12 active torsions:
REMARK  status: ('A' for Active; 'I' for Inactive)
REMARK    1  A    between atoms: C_1  and  C_2
REMARK    2  A    between atoms: N_7  and  S_9
REMARK    3  A    between atoms: S_9  and  C_12
REMARK    4  A    between atoms: C_15  and  N_18
REMARK    5  A    between atoms: C_19  and  C_21
REMARK    6  A    between atoms: C_21  and  S_22
REMARK    7  A    between atoms: S_22  and  C_23
REMARK    8  A    between atoms: C_26  and  C_29
REMARK    9  A    between atoms: N_27  and  N_28
REMARK   10  A    between atoms: C_29  and  C_30
REMARK   11  A    between atoms: C_29  and  C_31
REMARK   12  A    between atoms: C_29  and  C_32
REMARK                            x       y       z     vdW  Elec       q    Type
REMARK                         _______ _______ _______ _____ _____    ______ ____
ROOT
ATOM      1  N   UNL     1       0.206  -1.657   5.774  0.00  0.00    -0.285 N 
ATOM      2  C   UNL     1      -0.844  -2.364   6.237  0.00  0.00    +0.227 C 
ATOM      3  O   UNL     1      -1.735  -2.692   5.481  0.00  0.00    -0.275 OA
ATOM      4  H   UNL     1       1.054  -1.433   6.438  0.00  0.00    +0.155 HD
ENDROOT
BRANCH   1   8
ATOM      5  C   UNL     1       0.241  -0.323   1.827  0.00  0.00    +0.106 A 
ATOM      6  C   UNL     1       1.425  -0.683   2.444  0.00  0.00    +0.030 A 
ATOM      7  C   UNL     1       1.417  -1.120   3.754  0.00  0.00    +0.025 A 
ATOM      8  C   UNL     1       0.218  -1.209   4.448  0.00  0.00    +0.034 A 
ATOM      9  C   UNL     1      -0.970  -0.853   3.824  0.00  0.00    +0.025 A 
ATOM     10  C   UNL     1      -0.955  -0.411   2.515  0.00  0.00    +0.030 A 
BRANCH   5  11
ATOM     11  S   UNL     1       0.256   0.240   0.158  0.00  0.00    +0.061 S 
ATOM     12  O   UNL     1      -1.041  -0.010  -0.367  0.00  0.00    -0.153 OA
ATOM     13  O   UNL     1       1.433  -0.287  -0.439  0.00  0.00    -0.153 OA
BRANCH  11  19
ATOM     14  C   UNL     1       3.245   4.182   1.293  0.00  0.00    +0.009 C 
ATOM     15  C   UNL     1       1.907   3.444   1.370  0.00  0.00    +0.002 C 
ATOM     16  C   UNL     1       0.761   4.457   1.331  0.00  0.00    +0.006 C 
ATOM     17  C   UNL     1      -0.576   3.722   1.442  0.00  0.00    +0.017 C 
ATOM     18  C   UNL     1      -0.732   2.770   0.246  0.00  0.00    +0.109 C 
ATOM     19  N   UNL     1       0.441   1.885   0.198  0.00  0.00    -0.176 NA
ATOM     20  C   UNL     1       1.780   2.488   0.179  0.00  0.00    +0.112 C 
ENDBRANCH  11  19
ENDBRANCH   5  11
ENDBRANCH   1   8
BRANCH   2  21
ATOM     21  C   UNL     1      -0.911  -2.747   7.692  0.00  0.00    +0.173 C 
BRANCH  21  22
ATOM     22  S   UNL     1      -2.430  -3.683   8.001  0.00  0.00    -0.075 S 
BRANCH  22  23
ATOM     23  C   UNL     1      -2.254  -3.992   9.726  0.00  0.00    +0.209 A 
ATOM     24  N   UNL     1      -1.255  -3.612  10.490  0.00  0.00    -0.121 NA
ATOM     25  N   UNL     1      -1.454  -4.006  11.697  0.00  0.00    -0.131 NA
ATOM     26  C   UNL     1      -2.577  -4.663  11.774  0.00  0.00    +0.156 A 
ATOM     27  N   UNL     1      -3.127  -4.677  10.521  0.00  0.00    -0.227 N 
BRANCH  26  28
ATOM     28  C   UNL     1      -3.162  -5.289  13.013  0.00  0.00    +0.024 C 
ATOM     29  C   UNL     1      -3.460  -6.766  12.746  0.00  0.00    +0.019 C 
ATOM     30  C   UNL     1      -2.163  -5.170  14.165  0.00  0.00    +0.019 C 
ATOM     31  C   UNL     1      -4.459  -4.567  13.386  0.00  0.00    +0.019 C 
ENDBRANCH  26  28
BRANCH  27  32
ATOM     32  N   UNL     1      -4.305  -5.257  10.145  0.00  0.00    -0.295 N 
ATOM     33  H   UNL     1      -4.922  -5.784  10.888  0.00  0.00    +0.163 HD
ATOM     34  H   UNL     1      -4.638  -5.197   9.098  0.00  0.00    +0.163 HD
ENDBRANCH  27  32
ENDBRANCH  22  23
ENDBRANCH  21  22
ENDBRANCH   2  21
TORSDOF 8
