REMARK  Name = ZINC67183242
REMARK  6 active torsions:
REMARK  status: ('A' for Active; 'I' for Inactive)
REMARK    1  A    between atoms: C_1  and  C_2
REMARK    2  A    between atoms: N_4  and  C_5
REMARK    3  A    between atoms: C_8  and  C_11
REMARK    4  A    between atoms: C_12  and  C_13
REMARK    5  A    between atoms: N_15  and  C_16
REMARK    6  A    between atoms: C_19  and  N_22
REMARK                            x       y       z     vdW  Elec       q    Type
REMARK                         _______ _______ _______ _____ _____    ______ ____
ROOT
ATOM      1  C   UNL     1      -1.285  -6.317  -0.727  0.00  0.00    +0.013 C 
ATOM      2  C   UNL     1      -2.472  -6.956  -0.644  0.00  0.00    +0.068 C 
ENDROOT
BRANCH   1   6
ATOM      3  C   UNL     1      -1.126  -2.089  -0.426  0.00  0.00    +0.033 A 
ATOM      4  C   UNL     1       0.046  -2.816  -0.610  0.00  0.00    +0.024 A 
ATOM      5  C   UNL     1      -0.001  -4.188  -0.708  0.00  0.00    +0.010 A 
ATOM      6  C   UNL     1      -1.230  -4.852  -0.622  0.00  0.00    -0.025 A 
ATOM      7  C   UNL     1      -2.407  -4.117  -0.438  0.00  0.00    +0.010 A 
ATOM      8  C   UNL     1      -2.350  -2.746  -0.336  0.00  0.00    +0.024 A 
BRANCH   3  12
ATOM      9  C   UNL     1      -0.196   1.503  -1.036  0.00  0.00    +0.109 C 
ATOM     10  C   UNL     1      -0.184  -0.004  -1.064  0.00  0.00    +0.214 C 
ATOM     11  O   UNL     1       0.626  -0.591  -1.749  0.00  0.00    -0.276 OA
ATOM     12  N   UNL     1      -1.074  -0.699  -0.328  0.00  0.00    -0.286 N 
ATOM     13  H   UNL     1      -1.678  -0.232   0.271  0.00  0.00    +0.155 HD
ENDBRANCH   3  12
ENDBRANCH   1   6
BRANCH   2  14
ATOM     14  C   UNL     1      -2.527  -8.413  -0.748  0.00  0.00    +0.241 C 
ATOM     15  O   UNL     1      -1.502  -9.051  -0.909  0.00  0.00    -0.270 OA
ATOM     16  N   UNL     1      -3.711  -9.051  -0.666  0.00  0.00    -0.282 N 
ATOM     17  H   UNL     1      -4.534  -8.540  -0.612  0.00  0.00    +0.155 HD
BRANCH  16  18
ATOM     18  C   UNL     1      -3.754 -10.448  -0.658  0.00  0.00    +0.034 A 
ATOM     19  C   UNL     1      -4.818 -11.115  -1.254  0.00  0.00    +0.025 A 
ATOM     20  C   UNL     1      -4.857 -12.495  -1.245  0.00  0.00    +0.034 A 
ATOM     21  C   UNL     1      -3.839 -13.214  -0.644  0.00  0.00    +0.126 A 
ATOM     22  C   UNL     1      -2.779 -12.553  -0.051  0.00  0.00    +0.034 A 
ATOM     23  C   UNL     1      -2.731 -11.173  -0.061  0.00  0.00    +0.025 A 
BRANCH  21  24
ATOM     24  N   UNL     1      -3.885 -14.693  -0.635  0.00  0.00    +0.056 N 
ATOM     25  O   UNL     1      -4.811 -15.272  -1.153  0.00  0.00    -0.126 OA
ATOM     26  O   UNL     1      -2.996 -15.322  -0.111  0.00  0.00    -0.126 OA
ENDBRANCH  21  24
ENDBRANCH  16  18
ENDBRANCH   2  14
TORSDOF 5
