REMARK  Name = ZINC11441688
REMARK  12 active torsions:
REMARK  status: ('A' for Active; 'I' for Inactive)
REMARK    1  A    between atoms: C_1  and  C_2
REMARK    2  A    between atoms: C_2  and  N_3
REMARK    3  A    between atoms: N_3  and  C_4
REMARK    4  A    between atoms: N_3  and  S_6
REMARK    5  A    between atoms: C_4  and  C_5
REMARK    6  A    between atoms: S_6  and  C_9
REMARK    7  A    between atoms: C_11  and  C_16
REMARK    8  A    between atoms: C_16  and  O_18
REMARK    9  A    between atoms: O_18  and  C_19
REMARK   10  A    between atoms: C_19  and  C_20
REMARK   11  A    between atoms: N_25  and  C_26
REMARK   12  A    between atoms: C_32  and  C_34
REMARK                            x       y       z     vdW  Elec       q    Type
REMARK                         _______ _______ _______ _____ _____    ______ ____
ROOT
ATOM      1  C   UNL     1      -9.796   0.655  -2.287  0.00  0.00    +0.340 C 
ATOM      2  O   UNL     1      -8.898   0.875  -3.075  0.00  0.00    -0.245 OA
ENDROOT
BRANCH   1   5
ATOM      3  C   UNL     1     -12.788   1.809  -4.238  0.00  0.00    +0.124 A 
ATOM      4  C   UNL     1     -11.482   1.523  -3.901  0.00  0.00    +0.045 A 
ATOM      5  C   UNL     1     -11.192   0.969  -2.653  0.00  0.00    +0.061 A 
ATOM      6  C   UNL     1     -12.227   0.717  -1.749  0.00  0.00    +0.016 A 
ATOM      7  C   UNL     1     -13.528   1.012  -2.096  0.00  0.00    +0.023 A 
ATOM      8  C   UNL     1     -13.810   1.557  -3.338  0.00  0.00    +0.067 A 
ATOM      9 CL   UNL     1     -15.451   1.926  -3.768  0.00  0.00    -0.082 Cl
BRANCH   3  10
ATOM     10  S   UNL     1     -13.157   2.503  -5.815  0.00  0.00    +0.062 S 
ATOM     11  O   UNL     1     -14.061   3.575  -5.586  0.00  0.00    -0.153 OA
ATOM     12  O   UNL     1     -11.915   2.684  -6.480  0.00  0.00    -0.153 OA
BRANCH  10  13
ATOM     13  N   UNL     1     -13.990   1.357  -6.672  0.00  0.00    -0.177 NA
BRANCH  13  15
ATOM     14  C   UNL     1     -15.921   1.686  -8.136  0.00  0.00    +0.022 C 
ATOM     15  C   UNL     1     -15.454   1.391  -6.710  0.00  0.00    +0.106 C 
ENDBRANCH  13  15
BRANCH  13  16
ATOM     16  C   UNL     1     -13.263   0.309  -7.392  0.00  0.00    +0.106 C 
ATOM     17  C   UNL     1     -13.168  -0.941  -6.515  0.00  0.00    +0.022 C 
ENDBRANCH  13  16
ENDBRANCH  10  13
ENDBRANCH   3  10
ENDBRANCH   1   5
BRANCH   1  18
ATOM     18  O   UNL     1      -9.518   0.125  -1.080  0.00  0.00    -0.452 OA
BRANCH  18  19
ATOM     19  C   UNL     1      -8.124  -0.158  -0.789  0.00  0.00    +0.328 C 
BRANCH  19  20
ATOM     20  C   UNL     1      -8.009  -0.742   0.595  0.00  0.00    +0.258 C 
ATOM     21  O   UNL     1      -9.003  -0.904   1.270  0.00  0.00    -0.272 OA
ATOM     22  N   UNL     1      -6.800  -1.084   1.083  0.00  0.00    -0.237 N 
ATOM     23  C   UNL     1      -6.697  -1.607   2.321  0.00  0.00    +0.306 C 
ATOM     24  O   UNL     1      -7.693  -1.769   2.998  0.00  0.00    -0.252 OA
ATOM     25  N   UNL     1      -5.488  -1.949   2.810  0.00  0.00    -0.296 N 
ATOM     26  H   UNL     1      -6.005  -0.954   0.544  0.00  0.00    +0.159 HD
ATOM     27  H   UNL     1      -4.692  -1.819   2.270  0.00  0.00    +0.151 HD
BRANCH  25  28
ATOM     28  C   UNL     1      -5.375  -2.517   4.155  0.00  0.00    +0.077 C 
ATOM     29  C   UNL     1      -5.615  -4.027   4.093  0.00  0.00    +0.022 C 
ATOM     30  C   UNL     1      -5.497  -4.620   5.499  0.00  0.00    +0.002 C 
ATOM     31  C   UNL     1      -4.097  -4.348   6.052  0.00  0.00    +0.000 C 
ATOM     32  C   UNL     1      -3.857  -2.838   6.114  0.00  0.00    +0.005 C 
ATOM     33  C   UNL     1      -3.975  -2.245   4.708  0.00  0.00    +0.006 C 
ATOM     34  C   UNL     1      -3.736  -0.735   4.770  0.00  0.00    +0.009 C 
ENDBRANCH  25  28
ENDBRANCH  19  20
ENDBRANCH  18  19
ENDBRANCH   1  18
TORSDOF 9
