REMARK  Name = ZINC20101992
REMARK  5 active torsions:
REMARK  status: ('A' for Active; 'I' for Inactive)
REMARK    1  A    between atoms: C_1  and  N_2
REMARK    2  A    between atoms: C_13  and  C_16
REMARK    3  A    between atoms: C_20  and  O_22
REMARK    4  A    between atoms: O_22  and  C_23
REMARK    5  A    between atoms: C_23  and  C_25
REMARK                            x       y       z     vdW  Elec       q    Type
REMARK                         _______ _______ _______ _____ _____    ______ ____
ROOT
ATOM      1  C   UNL     1      -0.689   1.221   0.292  0.00  0.00    -0.096 C 
ATOM      2  N   UNL     1      -0.557  -0.241   0.243  0.00  0.00    +0.381 N 
ATOM      3  C   UNL     1      -1.892  -0.854   0.253  0.00  0.00    -0.074 C 
ATOM      4  C   UNL     1      -1.795  -2.339  -0.110  0.00  0.00    +0.018 C 
ATOM      5  C   UNL     1      -0.753  -2.976   0.800  0.00  0.00    -0.027 A 
ATOM      6  C   UNL     1       0.128  -2.198   1.469  0.00  0.00    -0.021 A 
ATOM      7  S   UNL     1       1.129  -3.334   2.386  0.00  0.00    -0.080 S 
ATOM      8  C   UNL     1       0.430  -4.763   1.911  0.00  0.00    +0.080 A 
ATOM      9  C   UNL     1      -0.604  -4.400   1.034  0.00  0.00    +0.068 A 
ATOM     10  C   UNL     1      -1.426  -5.487   0.454  0.00  0.00    +0.248 C 
ATOM     11  O   UNL     1      -2.445  -5.248  -0.168  0.00  0.00    -0.270 OA
ATOM     12  N   UNL     1      -0.999  -6.753   0.643  0.00  0.00    -0.289 N 
ATOM     13  C   UNL     1       0.290  -7.087   1.240  0.00  0.00    +0.190 C 
ATOM     14  N   UNL     1       0.705  -6.071   2.224  0.00  0.00    -0.316 N 
ATOM     15  C   UNL     1       0.208  -0.705   1.415  0.00  0.00    -0.036 C 
ATOM     16  H   UNL     1      -1.580  -7.480   0.368  0.00  0.00    +0.151 HD
ATOM     17  H   UNL     1       1.151  -6.315   3.050  0.00  0.00    +0.149 HD
ATOM     18  H   UNL     1      -0.072  -0.507  -0.601  0.00  0.00    -0.082 HD
ENDROOT
BRANCH  13  19
ATOM     19  C   UNL     1       1.330  -7.174   0.153  0.00  0.00    -0.006 A 
ATOM     20  C   UNL     1       2.649  -6.867   0.432  0.00  0.00    +0.007 A 
ATOM     21  C   UNL     1       3.605  -6.945  -0.563  0.00  0.00    +0.004 A 
ATOM     22  C   UNL     1       3.245  -7.330  -1.840  0.00  0.00    +0.046 A 
ATOM     23  C   UNL     1       1.922  -7.638  -2.123  0.00  0.00    +0.132 A 
ATOM     24  C   UNL     1       0.965  -7.565  -1.121  0.00  0.00    +0.053 A 
BRANCH  23  25
ATOM     25  O   UNL     1       1.566  -8.018  -3.378  0.00  0.00    -0.422 OA
BRANCH  25  26
ATOM     26  C   UNL     1       0.809  -7.170  -4.105  0.00  0.00    +0.351 C 
ATOM     27  O   UNL     1       0.554  -6.061  -3.675  0.00  0.00    -0.244 OA
BRANCH  26  28
ATOM     28  C   UNL     1       0.294  -7.584  -5.411  0.00  0.00    +0.097 A 
ATOM     29  C   UNL     1      -0.487  -6.872  -6.309  0.00  0.00    +0.022 A 
ATOM     30  C   UNL     1      -0.818  -7.532  -7.468  0.00  0.00    +0.008 A 
ATOM     31  C   UNL     1      -0.372  -8.800  -7.654  0.00  0.00    +0.046 A 
ATOM     32  S   UNL     1       0.516  -9.132  -6.267  0.00  0.00    -0.090 S 
ENDBRANCH  26  28
ENDBRANCH  25  26
ENDBRANCH  23  25
ENDBRANCH  13  19
TORSDOF 4
