REMARK  Name = ZINC15982542
REMARK  6 active torsions:
REMARK  status: ('A' for Active; 'I' for Inactive)
REMARK    1  A    between atoms: C_12  and  N_14
REMARK    2  A    between atoms: C_15  and  C_17
REMARK    3  A    between atoms: C_17  and  S_18
REMARK    4  A    between atoms: S_18  and  C_19
REMARK    5  A    between atoms: C_22  and  C_28
REMARK    6  A    between atoms: C_24  and  N_25
REMARK                            x       y       z     vdW  Elec       q    Type
REMARK                         _______ _______ _______ _____ _____    ______ ____
ROOT
ATOM      1  N   UNL     1       6.169  -4.170  -0.079  0.00  0.00    -0.285 N 
ATOM      2  C   UNL     1       7.495  -3.961  -0.193  0.00  0.00    +0.227 C 
ATOM      3  O   UNL     1       7.933  -2.830  -0.191  0.00  0.00    -0.275 OA
ATOM      4  H   UNL     1       5.825  -5.074  -0.004  0.00  0.00    +0.155 HD
ENDROOT
BRANCH   1  16
ATOM      5  C   UNL     1       0.207   1.554   0.791  0.00  0.00    +0.000 A 
ATOM      6  C   UNL     1       1.156   2.079  -0.067  0.00  0.00    +0.001 A 
ATOM      7  C   UNL     1       2.275   1.343  -0.400  0.00  0.00    +0.009 A 
ATOM      8  C   UNL     1       2.451   0.063   0.131  0.00  0.00    -0.014 A 
ATOM      9  C   UNL     1       1.490  -0.456   0.994  0.00  0.00    -0.035 A 
ATOM     10  C   UNL     1       0.375   0.286   1.321  0.00  0.00    +0.004 A 
ATOM     11  C   UNL     1       1.943  -1.837   1.401  0.00  0.00    +0.071 C 
ATOM     12  C   UNL     1       3.256  -2.070   0.695  0.00  0.00    -0.034 A 
ATOM     13  C   UNL     1       3.538  -0.929  -0.053  0.00  0.00    -0.014 A 
ATOM     14  C   UNL     1       4.709  -0.878  -0.813  0.00  0.00    +0.010 A 
ATOM     15  C   UNL     1       5.575  -1.950  -0.819  0.00  0.00    +0.024 A 
ATOM     16  C   UNL     1       5.288  -3.084  -0.070  0.00  0.00    +0.034 A 
ATOM     17  C   UNL     1       4.123  -3.140   0.687  0.00  0.00    +0.028 A 
ENDBRANCH   1  16
BRANCH   2  18
ATOM     18  C   UNL     1       8.435  -5.132  -0.322  0.00  0.00    +0.170 C 
BRANCH  18  19
ATOM     19  S   UNL     1      10.140  -4.528  -0.456  0.00  0.00    -0.114 S 
BRANCH  19  20
ATOM     20  C   UNL     1      11.103  -5.997  -0.599  0.00  0.00    +0.039 A 
ATOM     21  C   UNL     1      10.477  -7.242  -0.593  0.00  0.00    +0.018 A 
ATOM     22  C   UNL     1      11.218  -8.383  -0.703  0.00  0.00    +0.014 A 
ATOM     23  C   UNL     1      12.609  -8.307  -0.822  0.00  0.00    +0.039 A 
ATOM     24  C   UNL     1      13.240  -7.059  -0.827  0.00  0.00    +0.047 A 
ATOM     25  C   UNL     1      12.488  -5.911  -0.722  0.00  0.00    +0.140 A 
BRANCH  23  26
ATOM     26  C   UNL     1      13.410  -9.540  -0.940  0.00  0.00    +0.242 C 
ATOM     27  O   UNL     1      14.619  -9.472  -1.042  0.00  0.00    -0.270 OA
ATOM     28  N   UNL     1      12.800 -10.742  -0.933  0.00  0.00    -0.325 N 
ATOM     29  H   UNL     1      11.835 -10.796  -0.851  0.00  0.00    +0.145 HD
ATOM     30  H   UNL     1      13.327 -11.553  -1.011  0.00  0.00    +0.145 HD
ENDBRANCH  23  26
BRANCH  25  31
ATOM     31  N   UNL     1      13.150  -4.587  -0.734  0.00  0.00    +0.058 N 
ATOM     32  O   UNL     1      14.351  -4.514  -0.841  0.00  0.00    -0.126 OA
ATOM     33  O   UNL     1      12.488  -3.580  -0.636  0.00  0.00    -0.126 OA
ENDBRANCH  25  31
ENDBRANCH  19  20
ENDBRANCH  18  19
ENDBRANCH   2  18
TORSDOF 6
