REMARK  Name = ZINC28252094
REMARK  14 active torsions:
REMARK  status: ('A' for Active; 'I' for Inactive)
REMARK    1  A    between atoms: C_1  and  C_2
REMARK    2  A    between atoms: C_2  and  C_3
REMARK    3  A    between atoms: C_3  and  C_4
REMARK    4  A    between atoms: C_4  and  C_5
REMARK    5  A    between atoms: C_5  and  O_6
REMARK    6  A    between atoms: O_6  and  C_7
REMARK    7  A    between atoms: C_9  and  C_27
REMARK    8  A    between atoms: C_12  and  S_13
REMARK    9  A    between atoms: S_13  and  N_16
REMARK   10  A    between atoms: N_16  and  C_17
REMARK   11  A    between atoms: C_19  and  C_25
REMARK   12  A    between atoms: C_19  and  C_26
REMARK   13  A    between atoms: C_21  and  C_23
REMARK   14  A    between atoms: C_21  and  C_24
REMARK                            x       y       z     vdW  Elec       q    Type
REMARK                         _______ _______ _______ _____ _____    ______ ____
ROOT
ATOM      1  S   UNL     1       1.119   4.756  -4.098  0.00  0.00    +0.062 S 
ATOM      2  O   UNL     1       1.729   4.932  -5.369  0.00  0.00    -0.153 OA
ATOM      3  O   UNL     1      -0.277   4.924  -3.894  0.00  0.00    -0.153 OA
ENDROOT
BRANCH   1   9
ATOM      4  C   UNL     1       3.312   5.914  -2.947  0.00  0.00    +0.147 A 
ATOM      5  C   UNL     1       3.945   6.790  -2.077  0.00  0.00    +0.051 A 
ATOM      6  C   UNL     1       3.195   7.613  -1.260  0.00  0.00    -0.047 A 
ATOM      7  C   UNL     1       1.813   7.564  -1.309  0.00  0.00    +0.005 A 
ATOM      8  C   UNL     1       1.180   6.696  -2.179  0.00  0.00    +0.032 A 
ATOM      9  C   UNL     1       1.927   5.867  -2.994  0.00  0.00    +0.147 A 
ATOM     10  C   UNL     1       3.881   8.564  -0.314  0.00  0.00    +0.044 C 
BRANCH   4  11
ATOM     11  O   UNL     1       4.048   5.103  -3.751  0.00  0.00    -0.490 OA
BRANCH  11  12
ATOM     12  C   UNL     1       5.466   5.123  -3.570  0.00  0.00    +0.229 C 
BRANCH  12  13
ATOM     13  C   UNL     1       6.124   4.199  -4.597  0.00  0.00    +0.041 C 
BRANCH  13  14
ATOM     14  C   UNL     1       7.628   4.127  -4.327  0.00  0.00    +0.003 C 
BRANCH  14  16
ATOM     15  C   UNL     1       9.788   3.128  -5.091  0.00  0.00    +0.004 C 
ATOM     16  C   UNL     1       8.304   3.300  -5.423  0.00  0.00    -0.003 C 
ENDBRANCH  14  16
ENDBRANCH  13  14
ENDBRANCH  12  13
ENDBRANCH  11  12
ENDBRANCH   4  11
ENDBRANCH   1   9
BRANCH   1  17
ATOM     17  N   UNL     1       1.489   3.219  -3.604  0.00  0.00    -0.187 NA
ATOM     18  H   UNL     1       2.209   2.627  -4.186  0.00  0.00    +0.148 HD
BRANCH  17  19
ATOM     19  C   UNL     1       1.032   2.740  -2.294  0.00  0.00    +0.074 C 
ATOM     20  C   UNL     1       2.101   1.829  -1.691  0.00  0.00    +0.007 C 
ATOM     21  C   UNL     1       1.643   1.298  -0.335  0.00  0.00    -0.072 C 
ATOM     22  N   UNL     1       0.306   0.743  -0.367  0.00  0.00    +0.386 N 
ATOM     23  C   UNL     1      -0.738   1.398  -1.127  0.00  0.00    -0.072 C 
ATOM     24  C   UNL     1      -0.252   1.930  -2.473  0.00  0.00    +0.007 C 
ATOM     25  C   UNL     1      -1.851   0.364  -1.410  0.00  0.00    -0.010 C 
ATOM     26  C   UNL     1      -1.373   2.540  -0.325  0.00  0.00    -0.010 C 
ATOM     27  C   UNL     1       1.756   2.409   0.716  0.00  0.00    -0.010 C 
ATOM     28  C   UNL     1       2.621   0.176   0.080  0.00  0.00    -0.010 C 
ATOM     29  H   UNL     1       0.341  -0.272  -0.790  0.00  0.00    -0.084 HD
ATOM     30  H   UNL     1      -0.099   0.701   0.654  0.00  0.00    -0.084 HD
ENDBRANCH  17  19
ENDBRANCH   1  17
TORSDOF 8
