REMARK  Name = ZINC66951912
REMARK  4 active torsions:
REMARK  status: ('A' for Active; 'I' for Inactive)
REMARK    1  A    between atoms: C_10  and  C_11
REMARK    2  A    between atoms: C_10  and  O_27
REMARK    3  A    between atoms: C_11  and  N_12
REMARK    4  A    between atoms: N_15  and  C_16
REMARK                            x       y       z     vdW  Elec       q    Type
REMARK                         _______ _______ _______ _____ _____    ______ ____
ROOT
ATOM      1  N   UNL     1       4.732   1.487   0.593  0.00  0.00    -0.296 N 
ATOM      2  C   UNL     1       5.599   2.307   1.220  0.00  0.00    +0.304 C 
ATOM      3  O   UNL     1       6.159   1.938   2.235  0.00  0.00    -0.253 OA
ATOM      4  N   UNL     1       5.846   3.534   0.723  0.00  0.00    -0.269 N 
ATOM      5  H   UNL     1       4.286   1.781  -0.216  0.00  0.00    +0.150 HD
ATOM      6  H   UNL     1       5.345   3.857  -0.042  0.00  0.00    +0.156 HD
ENDROOT
BRANCH   4   7
ATOM      7  C   UNL     1       6.827   4.345   1.311  0.00  0.00    +0.037 A 
ATOM      8  C   UNL     1       7.960   3.766   1.867  0.00  0.00    +0.024 A 
ATOM      9  C   UNL     1       8.928   4.565   2.445  0.00  0.00    +0.018 A 
ATOM     10  C   UNL     1       8.766   5.940   2.470  0.00  0.00    +0.030 A 
ATOM     11  C   UNL     1       7.630   6.532   1.916  0.00  0.00    +0.049 A 
ATOM     12  C   UNL     1       6.664   5.722   1.330  0.00  0.00    +0.047 A 
ATOM     13  N   UNL     1       7.442   7.912   1.939  0.00  0.00    -0.284 N 
ATOM     14  C   UNL     1       8.392   8.833   2.075  0.00  0.00    +0.227 C 
ATOM     15  O   UNL     1       8.064  10.001   2.063  0.00  0.00    -0.275 OA
ATOM     16  C   UNL     1       9.851   8.507   2.242  0.00  0.00    +0.170 C 
ATOM     17  S   UNL     1      10.000   6.969   3.201  0.00  0.00    -0.114 S 
ATOM     18  H   UNL     1       6.531   8.232   1.847  0.00  0.00    +0.155 HD
ENDBRANCH   4   7
BRANCH   1  19
ATOM     19  C   UNL     1       4.464   0.152   1.134  0.00  0.00    +0.145 C 
BRANCH  19  29
ATOM     20  C   UNL     1       2.883  -4.511   1.802  0.00  0.00    +0.000 A 
ATOM     21  C   UNL     1       2.873  -3.392   2.614  0.00  0.00    +0.000 A 
ATOM     22  C   UNL     1       3.096  -2.146   2.065  0.00  0.00    +0.007 A 
ATOM     23  C   UNL     1       3.332  -2.007   0.703  0.00  0.00    -0.011 A 
ATOM     24  C   UNL     1       3.346  -3.122  -0.104  0.00  0.00    -0.041 A 
ATOM     25  C   UNL     1       3.118  -4.375   0.450  0.00  0.00    +0.004 A 
ATOM     26  C   UNL     1       3.611  -3.048  -1.585  0.00  0.00    +0.035 C 
ATOM     27  C   UNL     1       3.411  -1.622  -2.095  0.00  0.00    +0.008 C 
ATOM     28  C   UNL     1       4.222  -0.672  -1.206  0.00  0.00    +0.041 C 
ATOM     29  C   UNL     1       3.560  -0.617   0.169  0.00  0.00    +0.107 C 
BRANCH  29  30
ATOM     30  O   UNL     1       2.305   0.058   0.061  0.00  0.00    -0.382 OA
ATOM     31  H   UNL     1       1.832   0.146   0.901  0.00  0.00    +0.211 HD
ENDBRANCH  29  30
ENDBRANCH  19  29
ENDBRANCH   1  19
TORSDOF 4
