REMARK  Name = ZINC21319254
REMARK  7 active torsions:
REMARK  status: ('A' for Active; 'I' for Inactive)
REMARK    1  A    between atoms: C_4  and  C_7
REMARK    2  A    between atoms: C_7  and  S_8
REMARK    3  A    between atoms: S_8  and  C_9
REMARK    4  A    between atoms: N_13  and  N_14
REMARK    5  A    between atoms: N_15  and  N_16
REMARK    6  A    between atoms: C_17  and  C_18
REMARK    7  A    between atoms: C_23  and  O_24
REMARK                            x       y       z     vdW  Elec       q    Type
REMARK                         _______ _______ _______ _____ _____    ______ ____
ROOT
ATOM      1  C   UNL     1       5.754  -1.850  -1.609  0.00  0.00    +0.210 A 
ATOM      2  N   UNL     1       6.346  -2.182  -0.487  0.00  0.00    -0.119 NA
ATOM      3  N   UNL     1       7.537  -2.848  -0.807  0.00  0.00    -0.109 NA
ATOM      4  C   UNL     1       7.633  -2.901  -2.113  0.00  0.00    +0.254 A 
ATOM      5  N   UNL     1       6.530  -2.290  -2.643  0.00  0.00    -0.211 N 
ATOM      6  N   UNL     1       8.669  -3.479  -2.832  0.00  0.00    -0.204 N 
ATOM      7  H   UNL     1       8.649  -3.468  -3.932  0.00  0.00    +0.177 HD
ENDROOT
BRANCH   5   8
ATOM      8  N   UNL     1       6.255  -2.144  -3.973  0.00  0.00    -0.294 N 
ATOM      9  H   UNL     1       6.953  -2.538  -4.726  0.00  0.00    +0.163 HD
ATOM     10  H   UNL     1       5.335  -1.631  -4.291  0.00  0.00    +0.163 HD
ENDBRANCH   5   8
BRANCH   6  11
ATOM     11  N   UNL     1       9.740  -4.079  -2.157  0.00  0.00    -0.187 NA
ATOM     12  C   UNL     1      10.710  -4.621  -2.830  0.00  0.00    +0.142 C 
BRANCH  12  13
ATOM     13  C   UNL     1      11.837  -5.251  -2.120  0.00  0.00    +0.037 A 
ATOM     14  C   UNL     1      12.882  -5.835  -2.840  0.00  0.00    +0.028 A 
ATOM     15  C   UNL     1      13.935  -6.423  -2.168  0.00  0.00    +0.019 A 
ATOM     16  C   UNL     1      13.959  -6.437  -0.784  0.00  0.00    +0.019 A 
ATOM     17  C   UNL     1      12.931  -5.862  -0.061  0.00  0.00    +0.047 A 
ATOM     18  C   UNL     1      11.870  -5.263  -0.719  0.00  0.00    +0.126 A 
ATOM     19 BR   UNL     1      15.349  -7.215  -3.143  0.00  0.00    -0.050 Br
BRANCH  18  20
ATOM     20  O   UNL     1      10.862  -4.692  -0.009  0.00  0.00    -0.506 OA
ATOM     21  H   UNL     1      10.889  -4.702   1.091  0.00  0.00    +0.292 HD
ENDBRANCH  18  20
ENDBRANCH  12  13
ENDBRANCH   6  11
BRANCH   1  22
ATOM     22  S   UNL     1       4.221  -0.993  -1.756  0.00  0.00    -0.080 S 
BRANCH  22  23
ATOM     23  C   UNL     1       3.711  -0.707  -0.039  0.00  0.00    +0.112 C 
BRANCH  23  27
ATOM     24  C   UNL     1      -0.017   1.378   0.010  0.00  0.00    +0.000 A 
ATOM     25  C   UNL     1       1.171   2.086   0.002  0.00  0.00    +0.000 A 
ATOM     26  C   UNL     1       2.377   1.411  -0.014  0.00  0.00    +0.004 A 
ATOM     27  C   UNL     1       2.396   0.029  -0.022  0.00  0.00    -0.037 A 
ATOM     28  C   UNL     1       1.208  -0.679  -0.014  0.00  0.00    +0.004 A 
ATOM     29  C   UNL     1       0.002  -0.004   0.002  0.00  0.00    +0.000 A 
ENDBRANCH  23  27
ENDBRANCH  22  23
ENDBRANCH   1  22
TORSDOF 7
