REMARK  Name = ZINC39325275
REMARK  8 active torsions:
REMARK  status: ('A' for Active; 'I' for Inactive)
REMARK    1  A    between atoms: C_1  and  C_2
REMARK    2  A    between atoms: C_9  and  C_14
REMARK    3  A    between atoms: C_14  and  N_15
REMARK    4  A    between atoms: N_15  and  C_16
REMARK    5  A    between atoms: N_15  and  S_24
REMARK    6  A    between atoms: C_16  and  C_17
REMARK    7  A    between atoms: S_24  and  C_27
REMARK    8  A    between atoms: C_28  and  C_36
REMARK                            x       y       z     vdW  Elec       q    Type
REMARK                         _______ _______ _______ _____ _____    ______ ____
ROOT
ATOM      1  N   UNL     1      -0.801  -6.836   2.401  0.00  0.00    -0.171 NA
ENDROOT
BRANCH   1   2
ATOM      2  S   UNL     1      -2.044  -7.254   1.391  0.00  0.00    +0.064 S 
ATOM      3  O   UNL     1      -2.702  -6.045   1.036  0.00  0.00    -0.153 OA
ATOM      4  O   UNL     1      -1.500  -8.138   0.421  0.00  0.00    -0.153 OA
BRANCH   2   5
ATOM      5  C   UNL     1      -3.194  -8.193   2.340  0.00  0.00    +0.136 A 
ATOM      6  C   UNL     1      -4.052  -7.564   3.177  0.00  0.00    -0.022 A 
ATOM      7  C   UNL     1      -4.976  -8.275   3.943  0.00  0.00    +0.007 A 
ATOM      8  C   UNL     1      -5.054  -9.626   3.882  0.00  0.00    +0.031 A 
ATOM      9  C   UNL     1      -4.185 -10.353   3.025  0.00  0.00    +0.102 A 
ATOM     10  C   UNL     1      -3.223  -9.609   2.220  0.00  0.00    +0.126 A 
ATOM     11  N   UNL     1      -2.466 -10.392   1.451  0.00  0.00    -0.189 NA
ATOM     12  S   UNL     1      -2.958 -11.896   1.744  0.00  0.00    +0.117 S 
ATOM     13  N   UNL     1      -4.118 -11.671   2.836  0.00  0.00    -0.191 NA
ATOM     14  C   UNL     1      -4.008  -6.062   3.284  0.00  0.00    +0.046 C 
ENDBRANCH   2   5
ENDBRANCH   1   2
BRANCH   1  15
ATOM     15  C   UNL     1      -0.756  -5.497   2.994  0.00  0.00    +0.126 C 
BRANCH  15  24
ATOM     16  C   UNL     1       0.981   1.403   3.609  0.00  0.00    +0.044 C 
ATOM     17  C   UNL     1       0.764   0.134   2.826  0.00  0.00    -0.050 A 
ATOM     18  C   UNL     1       0.507   0.212   1.457  0.00  0.00    +0.005 A 
ATOM     19  C   UNL     1       0.302  -0.887   0.685  0.00  0.00    +0.024 A 
ATOM     20  C   UNL     1       0.344  -2.175   1.252  0.00  0.00    +0.040 A 
ATOM     21  N   UNL     1       0.142  -3.247   0.485  0.00  0.00    -0.284 N 
ATOM     22  C   UNL     1       0.167  -4.484   0.952  0.00  0.00    +0.225 C 
ATOM     23  O   UNL     1      -0.024  -5.423   0.204  0.00  0.00    -0.275 OA
ATOM     24  C   UNL     1       0.434  -4.726   2.421  0.00  0.00    +0.114 C 
ATOM     25  C   UNL     1       0.665  -3.510   3.297  0.00  0.00    -0.003 C 
ATOM     26  C   UNL     1       0.614  -2.287   2.696  0.00  0.00    -0.007 A 
ATOM     27  C   UNL     1       0.830  -1.062   3.466  0.00  0.00    +0.012 A 
ATOM     28  H   UNL     1      -0.031  -3.113  -0.460  0.00  0.00    +0.155 HD
ENDBRANCH  15  24
ENDBRANCH   1  15
BRANCH   1  29
ATOM     29  C   UNL     1       0.255  -7.806   2.703  0.00  0.00    +0.144 C 
BRANCH  29  30
ATOM     30  C   UNL     1      -0.073  -8.521   3.989  0.00  0.00    -0.031 A 
ATOM     31  C   UNL     1       0.365  -8.009   5.196  0.00  0.00    +0.008 A 
ATOM     32  C   UNL     1       0.065  -8.663   6.375  0.00  0.00    +0.038 A 
ATOM     33  C   UNL     1      -0.675  -9.833   6.348  0.00  0.00    +0.123 A 
ATOM     34  C   UNL     1      -1.113 -10.346   5.139  0.00  0.00    +0.038 A 
ATOM     35  C   UNL     1      -0.816  -9.687   3.961  0.00  0.00    +0.008 A 
ATOM     36  F   UNL     1      -0.969 -10.474   7.500  0.00  0.00    -0.205 F 
ENDBRANCH  29  30
ENDBRANCH   1  29
TORSDOF 6
