REMARK  Name = ZINC16101341
REMARK  7 active torsions:
REMARK  status: ('A' for Active; 'I' for Inactive)
REMARK    1  A    between atoms: C_1  and  C_2
REMARK    2  A    between atoms: C_5  and  C_8
REMARK    3  A    between atoms: C_9  and  C_32
REMARK    4  A    between atoms: C_16  and  C_18
REMARK    5  A    between atoms: C_18  and  N_19
REMARK    6  A    between atoms: N_22  and  C_25
REMARK    7  A    between atoms: C_28  and  O_31
REMARK                            x       y       z     vdW  Elec       q    Type
REMARK                         _______ _______ _______ _____ _____    ______ ____
ROOT
ATOM      1  C   UNL     1      -0.780   9.467  -5.840  0.00  0.00    +0.007 A 
ATOM      2  C   UNL     1      -2.105   9.717  -5.711  0.00  0.00    -0.003 A 
ATOM      3  S   UNL     1      -2.437   9.297  -4.010  0.00  0.00    -0.073 S 
ATOM      4  C   UNL     1      -0.806   8.803  -3.523  0.00  0.00    +0.116 A 
ATOM      5  C   UNL     1      -0.044   8.973  -4.683  0.00  0.00    +0.080 A 
ATOM      6  C   UNL     1       1.387   8.625  -4.551  0.00  0.00    +0.260 A 
ATOM      7  O   UNL     1       2.142   8.736  -5.503  0.00  0.00    -0.267 OA
ATOM      8  N   UNL     1       1.844   8.188  -3.367  0.00  0.00    -0.309 N 
ATOM      9  C   UNL     1       1.070   8.050  -2.327  0.00  0.00    +0.125 A 
ATOM     10  N   UNL     1      -0.243   8.349  -2.373  0.00  0.00    -0.225 NA
ATOM     11  C   UNL     1      -3.067  10.227  -6.753  0.00  0.00    +0.052 C 
ATOM     12  H   UNL     1       2.908   7.932  -3.249  0.00  0.00    +0.170 HD
ENDROOT
BRANCH   1  17
ATOM     13  C   UNL     1       1.895  10.340 -10.864  0.00  0.00    +0.044 C 
ATOM     14  C   UNL     1       1.195  10.112  -9.549  0.00  0.00    -0.050 A 
ATOM     15  C   UNL     1       0.659  11.184  -8.858  0.00  0.00    +0.004 A 
ATOM     16  C   UNL     1       0.017  10.981  -7.654  0.00  0.00    +0.009 A 
ATOM     17  C   UNL     1      -0.091   9.692  -7.134  0.00  0.00    -0.016 A 
ATOM     18  C   UNL     1       0.456   8.616  -7.832  0.00  0.00    +0.009 A 
ATOM     19  C   UNL     1       1.091   8.831  -9.038  0.00  0.00    +0.004 A 
ENDBRANCH   1  17
BRANCH   9  20
ATOM     20  C   UNL     1       1.662   7.549  -1.035  0.00  0.00    +0.158 C 
BRANCH  20  21
ATOM     21  N   UNL     1       1.681   6.080  -1.042  0.00  0.00    -0.292 NA
ATOM     22  C   UNL     1       2.462   5.557   0.088  0.00  0.00    +0.104 C 
ATOM     23  C   UNL     1       2.523   4.031  -0.001  0.00  0.00    +0.120 C 
ATOM     24  N   UNL     1       1.159   3.486   0.009  0.00  0.00    -0.327 N 
ATOM     25  C   UNL     1       0.378   4.009  -1.121  0.00  0.00    +0.120 C 
ATOM     26  C   UNL     1       0.316   5.535  -1.032  0.00  0.00    +0.104 C 
BRANCH  24  27
ATOM     27  C   UNL     1       1.177   2.087   0.002  0.00  0.00    +0.030 A 
ATOM     28  C   UNL     1      -0.017   1.377   0.010  0.00  0.00    +0.027 A 
ATOM     29  C   UNL     1       0.002  -0.004   0.002  0.00  0.00    +0.047 A 
ATOM     30  C   UNL     1       1.212  -0.681  -0.014  0.00  0.00    +0.117 A 
ATOM     31  C   UNL     1       2.405   0.027  -0.021  0.00  0.00    +0.047 A 
ATOM     32  C   UNL     1       2.388   1.408  -0.012  0.00  0.00    +0.027 A 
BRANCH  30  33
ATOM     33  O   UNL     1       1.230  -2.041  -0.022  0.00  0.00    -0.507 OA
ATOM     34  H   UNL     1       2.189  -2.579  -0.034  0.00  0.00    +0.292 HD
ENDBRANCH  30  33
ENDBRANCH  24  27
ENDBRANCH  20  21
ENDBRANCH   9  20
TORSDOF 5
