REMARK  Name = ZINC36738390
REMARK  4 active torsions:
REMARK  status: ('A' for Active; 'I' for Inactive)
REMARK    1  A    between atoms: C_1  and  C_2
REMARK    2  A    between atoms: C_5  and  C_7
REMARK    3  A    between atoms: N_9  and  C_10
REMARK    4  A    between atoms: C_13  and  N_17
REMARK                            x       y       z     vdW  Elec       q    Type
REMARK                         _______ _______ _______ _____ _____    ______ ____
ROOT
ATOM      1  C   UNL     1       0.093  -3.830   3.182  0.00  0.00    +0.062 A 
ATOM      2  C   UNL     1      -0.829  -4.533   2.417  0.00  0.00    +0.042 A 
ATOM      3  C   UNL     1      -1.422  -5.673   2.924  0.00  0.00    +0.040 A 
ATOM      4  C   UNL     1      -1.097  -6.116   4.199  0.00  0.00    +0.027 A 
ATOM      5  C   UNL     1      -0.175  -5.413   4.965  0.00  0.00    +0.040 A 
ATOM      6  C   UNL     1       0.423  -4.277   4.455  0.00  0.00    +0.042 A 
ATOM      7 BR   UNL     1       1.684  -3.325   5.494  0.00  0.00    -0.048 Br
ATOM      8 BR   UNL     1      -1.272  -3.929   0.680  0.00  0.00    -0.048 Br
ENDROOT
BRANCH   1  11
ATOM      9  C   UNL     1       0.134  -1.468   2.885  0.00  0.00    +0.221 C 
ATOM     10  O   UNL     1      -0.938  -1.390   3.447  0.00  0.00    -0.275 OA
ATOM     11  N   UNL     1       0.695  -2.673   2.667  0.00  0.00    -0.283 N 
ATOM     12  H   UNL     1       1.516  -2.741   2.155  0.00  0.00    +0.155 HD
BRANCH   9  16
ATOM     13  C   UNL     1       1.041   2.321   3.038  0.00  0.00    +0.008 C 
ATOM     14  C   UNL     1       0.149   1.123   2.706  0.00  0.00    -0.002 C 
ATOM     15  C   UNL     1       0.206   0.573   1.280  0.00  0.00    +0.017 C 
ATOM     16  C   UNL     1       0.838  -0.215   2.430  0.00  0.00    +0.078 C 
ENDBRANCH   9  16
ENDBRANCH   1  11
BRANCH   4  17
ATOM     17  N   UNL     1      -1.697  -7.270   4.713  0.00  0.00    -0.358 N 
ATOM     18  H   UNL     1      -2.341  -7.761   4.178  0.00  0.00    +0.142 HD
ATOM     19  H   UNL     1      -1.470  -7.580   5.604  0.00  0.00    +0.142 HD
ENDBRANCH   4  17
TORSDOF 3
