REMARK  Name = ZINC03546261
REMARK  8 active torsions:
REMARK  status: ('A' for Active; 'I' for Inactive)
REMARK    1  A    between atoms: C_1  and  C_2
REMARK    2  A    between atoms: C_2  and  N_3
REMARK    3  A    between atoms: C_13  and  S_14
REMARK    4  A    between atoms: S_14  and  C_15
REMARK    5  A    between atoms: C_15  and  C_16
REMARK    6  A    between atoms: C_16  and  C_18
REMARK    7  A    between atoms: C_21  and  O_25
REMARK    8  A    between atoms: C_23  and  O_24
REMARK                            x       y       z     vdW  Elec       q    Type
REMARK                         _______ _______ _______ _____ _____    ______ ____
ROOT
ATOM      1  N   UNL     1      -0.698   1.558   1.213  0.00  0.00    -0.288 N 
ATOM      2  C   UNL     1      -1.678   0.806   1.767  0.00  0.00    +0.262 A 
ATOM      3  O   UNL     1      -2.004  -0.261   1.281  0.00  0.00    -0.267 OA
ATOM      4  C   UNL     1      -2.333   1.326   2.974  0.00  0.00    +0.066 A 
ATOM      5  C   UNL     1      -3.353   0.625   3.618  0.00  0.00    +0.030 A 
ATOM      6  C   UNL     1      -3.932   1.160   4.748  0.00  0.00    +0.019 A 
ATOM      7  C   UNL     1      -3.509   2.386   5.247  0.00  0.00    +0.017 A 
ATOM      8  C   UNL     1      -2.512   3.089   4.632  0.00  0.00    +0.029 A 
ATOM      9  C   UNL     1      -1.905   2.573   3.483  0.00  0.00    +0.079 A 
ATOM     10  N   UNL     1      -0.913   3.239   2.846  0.00  0.00    -0.223 NA
ATOM     11  C   UNL     1      -0.340   2.752   1.773  0.00  0.00    +0.173 A 
ATOM     12 BR   UNL     1      -5.316   0.218   5.628  0.00  0.00    -0.050 Br
ENDROOT
BRANCH   1  14
ATOM     13  C   UNL     1      -0.753   1.593  -1.232  0.00  0.00    +0.027 C 
ATOM     14  C   UNL     1      -0.013   1.086   0.008  0.00  0.00    +0.124 C 
ENDBRANCH   1  14
BRANCH  11  15
ATOM     15  S   UNL     1       0.947   3.683   1.012  0.00  0.00    -0.080 S 
BRANCH  15  16
ATOM     16  C   UNL     1       1.002   5.110   2.124  0.00  0.00    +0.157 C 
BRANCH  16  17
ATOM     17  C   UNL     1       2.064   6.071   1.655  0.00  0.00    +0.177 C 
ATOM     18  O   UNL     1       2.719   5.817   0.666  0.00  0.00    -0.291 OA
BRANCH  17  19
ATOM     19  C   UNL     1       2.305   7.313   2.394  0.00  0.00    +0.060 A 
ATOM     20  C   UNL     1       1.550   7.611   3.537  0.00  0.00    +0.018 A 
ATOM     21  C   UNL     1       1.777   8.768   4.224  0.00  0.00    +0.046 A 
ATOM     22  C   UNL     1       2.758   9.660   3.797  0.00  0.00    +0.120 A 
ATOM     23  C   UNL     1       3.514   9.382   2.667  0.00  0.00    +0.091 A 
ATOM     24  C   UNL     1       3.299   8.210   1.963  0.00  0.00    +0.131 A 
BRANCH  24  25
ATOM     25  O   UNL     1       4.040   7.930   0.862  0.00  0.00    -0.506 OA
ATOM     26  H   UNL     1       4.816   8.634   0.528  0.00  0.00    +0.292 HD
ENDBRANCH  24  25
BRANCH  22  27
ATOM     27  O   UNL     1       2.974  10.807   4.489  0.00  0.00    -0.507 OA
ATOM     28  H   UNL     1       3.748  11.514   4.154  0.00  0.00    +0.292 HD
ENDBRANCH  22  27
ENDBRANCH  17  19
ENDBRANCH  16  17
ENDBRANCH  15  16
ENDBRANCH  11  15
TORSDOF 7
