REMARK  Name = ZINC35745067
REMARK  16 active torsions:
REMARK  status: ('A' for Active; 'I' for Inactive)
REMARK    1  A    between atoms: C_1  and  O_2
REMARK    2  A    between atoms: O_2  and  C_3
REMARK    3  A    between atoms: C_3  and  C_4
REMARK    4  A    between atoms: C_4  and  N_5
REMARK    5  A    between atoms: N_5  and  C_6
REMARK    6  A    between atoms: N_5  and  C_14
REMARK    7  A    between atoms: C_6  and  C_7
REMARK    8  A    between atoms: C_14  and  C_15
REMARK    9  A    between atoms: C_18  and  C_20
REMARK   10  A    between atoms: C_20  and  C_21
REMARK   11  A    between atoms: C_20  and  C_29
REMARK   12  A    between atoms: C_20  and  O_37
REMARK   13  A    between atoms: C_24  and  O_27
REMARK   14  A    between atoms: O_27  and  C_28
REMARK   15  A    between atoms: C_32  and  O_35
REMARK   16  A    between atoms: O_35  and  C_36
REMARK                            x       y       z     vdW  Elec       q    Type
REMARK                         _______ _______ _______ _____ _____    ______ ____
ROOT
ATOM      1  C   UNL     1       1.645  -4.080  -0.595  0.00  0.00    +0.089 A 
ATOM      2  C   UNL     1       2.982  -4.202  -0.676  0.00  0.00    +0.043 A 
ATOM      3  C   UNL     1       3.281  -4.549  -2.014  0.00  0.00    +0.048 A 
ATOM      4  C   UNL     1       2.108  -4.618  -2.670  0.00  0.00    +0.146 A 
ATOM      5  O   UNL     1       1.121  -4.339  -1.804  0.00  0.00    -0.463 OA
ENDROOT
BRANCH   1   6
ATOM      6  C   UNL     1       0.867  -3.721   0.645  0.00  0.00    -0.003 C 
BRANCH   6   7
ATOM      7  N   UNL     1       0.711  -2.262   0.720  0.00  0.00    +0.389 N 
ATOM      8  H   UNL     1       1.619  -1.824   0.673  0.00  0.00    -0.081 HD
BRANCH   7   9
ATOM      9  C   UNL     1      -0.114  -1.800  -0.405  0.00  0.00    -0.049 C 
BRANCH   9  10
ATOM     10  C   UNL     1      -0.144  -0.270  -0.420  0.00  0.00    +0.141 C 
BRANCH  10  12
ATOM     11  C   UNL     1       1.248   1.656  -0.735  0.00  0.00    +0.193 C 
ATOM     12  O   UNL     1       1.166   0.230  -0.698  0.00  0.00    -0.385 OA
ENDBRANCH  10  12
ENDBRANCH   9  10
ENDBRANCH   7   9
BRANCH   7  13
ATOM     13  C   UNL     1       0.058  -1.903   1.986  0.00  0.00    -0.042 C 
BRANCH  13  14
ATOM     14  C   UNL     1       0.967  -2.251   3.136  0.00  0.00    -0.064 A 
ATOM     15  C   UNL     1       0.817  -3.458   3.794  0.00  0.00    +0.004 A 
ATOM     16  C   UNL     1       1.651  -3.778   4.849  0.00  0.00    +0.038 A 
ATOM     17  C   UNL     1       2.637  -2.891   5.246  0.00  0.00    +0.123 A 
ATOM     18  C   UNL     1       2.786  -1.683   4.586  0.00  0.00    +0.038 A 
ATOM     19  C   UNL     1       1.955  -1.367   3.528  0.00  0.00    +0.004 A 
ATOM     20  F   UNL     1       3.452  -3.203   6.277  0.00  0.00    -0.205 F 
ENDBRANCH  13  14
ENDBRANCH   7  13
ENDBRANCH   6   7
ENDBRANCH   1   6
BRANCH   4  21
ATOM     21  C   UNL     1       1.933  -4.956  -4.128  0.00  0.00    +0.174 C 
BRANCH  21  22
ATOM     22  C   UNL     1       0.603  -5.636  -4.329  0.00  0.00    -0.004 A 
ATOM     23  C   UNL     1       0.558  -6.965  -4.707  0.00  0.00    +0.011 A 
ATOM     24  C   UNL     1      -0.660  -7.591  -4.893  0.00  0.00    +0.046 A 
ATOM     25  C   UNL     1      -1.838  -6.885  -4.698  0.00  0.00    +0.120 A 
ATOM     26  C   UNL     1      -1.790  -5.551  -4.318  0.00  0.00    +0.046 A 
ATOM     27  C   UNL     1      -0.570  -4.932  -4.129  0.00  0.00    +0.011 A 
BRANCH  25  28
ATOM     28  O   UNL     1      -3.037  -7.497  -4.880  0.00  0.00    -0.495 OA
ATOM     29  C   UNL     1      -4.209  -6.709  -4.663  0.00  0.00    +0.277 C 
ENDBRANCH  25  28
ENDBRANCH  21  22
BRANCH  21  30
ATOM     30  C   UNL     1       1.979  -3.692  -4.946  0.00  0.00    -0.004 A 
ATOM     31  C   UNL     1       1.365  -2.544  -4.479  0.00  0.00    +0.011 A 
ATOM     32  C   UNL     1       1.405  -1.384  -5.228  0.00  0.00    +0.046 A 
ATOM     33  C   UNL     1       2.064  -1.371  -6.449  0.00  0.00    +0.120 A 
ATOM     34  C   UNL     1       2.679  -2.523  -6.915  0.00  0.00    +0.046 A 
ATOM     35  C   UNL     1       2.640  -3.679  -6.160  0.00  0.00    +0.011 A 
BRANCH  33  36
ATOM     36  O   UNL     1       2.105  -0.230  -7.187  0.00  0.00    -0.495 OA
ATOM     37  C   UNL     1       2.800  -0.290  -8.434  0.00  0.00    +0.277 C 
ENDBRANCH  33  36
ENDBRANCH  21  30
BRANCH  21  38
ATOM     38  O   UNL     1       2.983  -5.831  -4.543  0.00  0.00    -0.372 OA
ATOM     39  H   UNL     1       3.869  -5.458  -4.442  0.00  0.00    +0.212 HD
ENDBRANCH  21  38
ENDBRANCH   4  21
TORSDOF 13
