REMARK  Name = ZINC32891540
REMARK  7 active torsions:
REMARK  status: ('A' for Active; 'I' for Inactive)
REMARK    1  A    between atoms: C_1  and  C_2
REMARK    2  A    between atoms: C_2  and  C_4
REMARK    3  A    between atoms: C_2  and  N_12
REMARK    4  A    between atoms: C_4  and  C_5
REMARK    5  A    between atoms: C_5  and  C_6
REMARK    6  A    between atoms: C_18  and  C_21
REMARK    7  A    between atoms: C_24  and  O_27
REMARK                            x       y       z     vdW  Elec       q    Type
REMARK                         _______ _______ _______ _____ _____    ______ ____
ROOT
ATOM      1  N   UNL     1       6.520  -0.844  -0.927  0.00  0.00    -0.297 N 
ATOM      2  C   UNL     1       7.615  -1.402  -0.374  0.00  0.00    +0.302 C 
ATOM      3  O   UNL     1       7.697  -2.611  -0.272  0.00  0.00    -0.253 OA
ATOM      4  N   UNL     1       8.621  -0.620   0.067  0.00  0.00    -0.286 N 
ATOM      5  C   UNL     1       8.494   0.844   0.047  0.00  0.00    +0.110 C 
ATOM      6  C   UNL     1       9.689   1.436  -0.698  0.00  0.00    +0.027 C 
ATOM      7  C   UNL     1      10.986   0.925  -0.066  0.00  0.00    +0.022 C 
ATOM      8  C   UNL     1      11.048  -0.599  -0.185  0.00  0.00    +0.027 C 
ATOM      9  C   UNL     1       9.866  -1.214   0.571  0.00  0.00    +0.110 C 
ATOM     10  H   UNL     1       6.409   0.250  -0.943  0.00  0.00    +0.151 HD
ENDROOT
BRANCH   7  11
ATOM     11  C   UNL     1      12.166   1.533  -0.780  0.00  0.00    -0.044 A 
ATOM     12  C   UNL     1      12.346   1.305  -2.132  0.00  0.00    +0.007 A 
ATOM     13  C   UNL     1      13.424   1.865  -2.791  0.00  0.00    +0.045 A 
ATOM     14  C   UNL     1      14.331   2.648  -2.092  0.00  0.00    +0.117 A 
ATOM     15  C   UNL     1      14.151   2.871  -0.734  0.00  0.00    +0.045 A 
ATOM     16  C   UNL     1      13.069   2.313  -0.082  0.00  0.00    +0.007 A 
BRANCH  14  17
ATOM     17  O   UNL     1      15.396   3.195  -2.736  0.00  0.00    -0.507 OA
ATOM     18  H   UNL     1      16.115   3.816  -2.181  0.00  0.00    +0.292 HD
ENDBRANCH  14  17
ENDBRANCH   7  11
BRANCH   1  20
ATOM     19  C   UNL     1       5.849  -2.045  -2.949  0.00  0.00    +0.028 C 
ATOM     20  C   UNL     1       5.478  -1.695  -1.506  0.00  0.00    +0.072 C 
BRANCH  20  21
ATOM     21  C   UNL     1       4.143  -0.949  -1.489  0.00  0.00    +0.026 C 
BRANCH  21  22
ATOM     22  C   UNL     1       3.711  -0.709  -0.041  0.00  0.00    +0.037 C 
BRANCH  22  23
ATOM     23  C   UNL     1       2.395   0.026  -0.025  0.00  0.00    -0.047 A 
ATOM     24  C   UNL     1       1.208  -0.682  -0.018  0.00  0.00    +0.003 A 
ATOM     25  C   UNL     1       0.001  -0.008  -0.003  0.00  0.00    +0.000 A 
ATOM     26  C   UNL     1      -0.018   1.374   0.006  0.00  0.00    +0.000 A 
ATOM     27  C   UNL     1       1.169   2.082  -0.000  0.00  0.00    +0.000 A 
ATOM     28  C   UNL     1       2.376   1.408  -0.015  0.00  0.00    +0.003 A 
ENDBRANCH  22  23
ENDBRANCH  21  22
ENDBRANCH  20  21
ENDBRANCH   1  20
TORSDOF 6
