REMARK  Name = ZINC01277882
REMARK  4 active torsions:
REMARK  status: ('A' for Active; 'I' for Inactive)
REMARK    1  A    between atoms: C_1  and  C_2
REMARK    2  A    between atoms: C_2  and  C_21
REMARK    3  A    between atoms: C_6  and  N_14
REMARK    4  A    between atoms: C_11  and  C_12
REMARK                            x       y       z     vdW  Elec       q    Type
REMARK                         _______ _______ _______ _____ _____    ______ ____
ROOT
ATOM      1  C   UNL     1      -3.431  -1.003  -3.876  0.00  0.00    +0.023 C 
ATOM      2  C   UNL     1      -3.171  -2.421  -3.364  0.00  0.00    +0.015 C 
ATOM      3  C   UNL     1      -3.748  -2.580  -1.965  0.00  0.00    +0.054 C 
ATOM      4  C   UNL     1      -3.046  -1.755  -0.927  0.00  0.00    -0.019 A 
ATOM      5  C   UNL     1      -1.776  -1.239  -0.998  0.00  0.00    +0.005 A 
ATOM      6  C   UNL     1      -1.269  -0.513   0.083  0.00  0.00    +0.104 A 
ATOM      7  N   UNL     1      -1.990  -0.301   1.210  0.00  0.00    -0.336 N 
ATOM      8  H   UNL     1      -1.599   0.192   1.948  0.00  0.00    +0.168 HD
ATOM      9  C   UNL     1      -3.249  -0.769   1.308  0.00  0.00    +0.103 A 
ATOM     10  S   UNL     1      -4.171  -0.471   2.719  0.00  0.00    -0.031 S 
ATOM     11  C   UNL     1      -3.800  -1.508   0.244  0.00  0.00    +0.086 A 
ATOM     12  C   UNL     1      -0.842  -1.367  -2.176  0.00  0.00    +0.108 C 
ATOM     13  S   UNL     1      -1.377  -2.720  -3.259  0.00  0.00    -0.149 S 
ATOM     14  C   UNL     1      -3.811  -3.439  -4.310  0.00  0.00    +0.023 C 
ENDROOT
BRANCH   6  15
ATOM     15  N   UNL     1       0.002  -0.004   0.002  0.00  0.00    -0.320 N 
ATOM     16  C   UNL     1       0.883  -0.627   0.999  0.00  0.00    +0.087 C 
ATOM     17  C   UNL     1       2.306  -0.091   0.824  0.00  0.00    -0.063 C 
ATOM     18  C   UNL     1       1.417   1.994  -0.024  0.00  0.00    -0.063 C 
ATOM     19  C   UNL     1      -0.006   1.458   0.151  0.00  0.00    +0.087 C 
ATOM     20  N   UNL     1       2.304   1.375   0.980  0.00  0.00    +0.381 N 
ATOM     21  H   UNL     1       3.258   1.732   0.854  0.00  0.00    -0.086 HD
ATOM     22  H   UNL     1       1.970   1.616   1.921  0.00  0.00    -0.086 HD
ENDBRANCH   6  15
BRANCH  11  23
ATOM     23  C   UNL     1      -5.135  -2.016   0.349  0.00  0.00    +0.102 C 
ATOM     24  N   UNL     1      -6.194  -2.418   0.432  0.00  0.00    -0.191 NA
ENDBRANCH  11  23
TORSDOF 2
