REMARK  Name = ZINC50362400
REMARK  9 active torsions:
REMARK  status: ('A' for Active; 'I' for Inactive)
REMARK    1  A    between atoms: C_1  and  C_2
REMARK    2  A    between atoms: C_2  and  C_3
REMARK    3  A    between atoms: C_2  and  N_4
REMARK    4  A    between atoms: N_4  and  C_5
REMARK    5  A    between atoms: N_4  and  C_10
REMARK    6  A    between atoms: C_5  and  C_6
REMARK    7  A    between atoms: C_10  and  C_12
REMARK    8  A    between atoms: C_10  and  C_14
REMARK    9  A    between atoms: C_12  and  N_13
REMARK                            x       y       z     vdW  Elec       q    Type
REMARK                         _______ _______ _______ _____ _____    ______ ____
ROOT
ATOM      1  C   UNL     1      -3.057  -0.705   0.919  0.00  0.00    +0.106 C 
ENDROOT
BRANCH   1   2
ATOM      2  C   UNL     1      -2.917  -1.622   2.107  0.00  0.00    +0.123 A 
ATOM      3  C   UNL     1      -3.179  -1.298   3.386  0.00  0.00    +0.062 A 
ATOM      4  C   UNL     1      -2.915  -2.450   4.163  0.00  0.00    +0.070 A 
ATOM      5  C   UNL     1      -2.506  -3.410   3.311  0.00  0.00    +0.184 A 
ATOM      6  O   UNL     1      -2.514  -2.903   2.067  0.00  0.00    -0.450 OA
ATOM      7 BR   UNL     1      -2.011  -5.172   3.785  0.00  0.00    -0.007 Br
ATOM      8 BR   UNL     1      -3.099  -2.611   6.038  0.00  0.00    -0.046 Br
ENDBRANCH   1   2
BRANCH   1   9
ATOM      9  N   UNL     1      -1.859  -0.811   0.075  0.00  0.00    -0.284 NA
BRANCH   9  11
ATOM     10  C   UNL     1      -1.041   1.402   0.730  0.00  0.00    +0.024 C 
ATOM     11  C   UNL     1      -0.727  -0.094   0.676  0.00  0.00    +0.051 C 
ATOM     12  C   UNL     1      -0.487  -0.616   2.094  0.00  0.00    +0.024 C 
ENDBRANCH   9  11
BRANCH   9  13
ATOM     13  C   UNL     1      -1.517  -2.217  -0.180  0.00  0.00    +0.199 C 
BRANCH  13  14
ATOM     14  C   UNL     1      -0.666  -2.313  -1.448  0.00  0.00    +0.402 C 
ATOM     15  F   UNL     1       0.557  -1.668  -1.238  0.00  0.00    -0.169 F 
ATOM     16  F   UNL     1      -0.438  -3.658  -1.755  0.00  0.00    -0.169 F 
ATOM     17  F   UNL     1      -1.340  -1.699  -2.509  0.00  0.00    -0.169 F 
ENDBRANCH  13  14
ENDBRANCH   9  13
ENDBRANCH   1   9
BRANCH   1  18
ATOM     18  C   UNL     1      -4.290  -1.107   0.108  0.00  0.00    -0.059 C 
BRANCH  18  19
ATOM     19  N   UNL     1      -4.401  -0.242  -1.075  0.00  0.00    +0.379 N 
ATOM     20  H   UNL     1      -5.258  -0.450  -1.565  0.00  0.00    -0.090 HD
ATOM     21  H   UNL     1      -4.404   0.724  -0.786  0.00  0.00    -0.090 HD
ATOM     22  H   UNL     1      -3.615  -0.408  -1.687  0.00  0.00    -0.090 HD
ENDBRANCH  18  19
ENDBRANCH   1  18
TORSDOF 7
