REMARK  Name = ZINC16450002
REMARK  10 active torsions:
REMARK  status: ('A' for Active; 'I' for Inactive)
REMARK    1  A    between atoms: C_5  and  C_7
REMARK    2  A    between atoms: C_7  and  O_8
REMARK    3  A    between atoms: O_8  and  C_9
REMARK    4  A    between atoms: C_14  and  C_15
REMARK    5  A    between atoms: C_15  and  N_16
REMARK    6  A    between atoms: N_16  and  C_17
REMARK    7  A    between atoms: C_17  and  C_18
REMARK    8  A    between atoms: C_18  and  C_19
REMARK    9  A    between atoms: C_22  and  S_25
REMARK   10  A    between atoms: S_25  and  N_28
REMARK                            x       y       z     vdW  Elec       q    Type
REMARK                         _______ _______ _______ _____ _____    ______ ____
ROOT
ATOM      1  C   UNL     1      -2.553   3.879   0.046  0.00  0.00    +0.120 C 
ENDROOT
BRANCH   1   7
ATOM      2  C   UNL     1      -1.223   1.754   0.017  0.00  0.00    +0.125 A 
ATOM      3  C   UNL     1      -0.013   1.076   0.008  0.00  0.00    +0.047 A 
ATOM      4  C   UNL     1       1.174   1.783   0.000  0.00  0.00    +0.023 A 
ATOM      5  C   UNL     1       1.156   3.167   0.008  0.00  0.00    +0.041 A 
ATOM      6  C   UNL     1      -0.051   3.844   0.023  0.00  0.00    +0.028 A 
ATOM      7  C   UNL     1      -1.239   3.140   0.030  0.00  0.00    +0.009 A 
ATOM      8 CL   UNL     1       2.648   4.053  -0.002  0.00  0.00    -0.084 Cl
BRANCH   2   9
ATOM      9  O   UNL     1      -2.392   1.059   0.019  0.00  0.00    -0.487 OA
BRANCH   9  10
ATOM     10  C   UNL     1      -2.299  -0.367   0.011  0.00  0.00    +0.267 C 
BRANCH  10  15
ATOM     11  C   UNL     1      -6.062  -0.676   0.027  0.00  0.00    +0.001 A 
ATOM     12  C   UNL     1      -6.228  -2.049   0.020  0.00  0.00    +0.003 A 
ATOM     13  C   UNL     1      -5.123  -2.878   0.011  0.00  0.00    +0.039 A 
ATOM     14  C   UNL     1      -3.849  -2.334   0.007  0.00  0.00    +0.130 A 
ATOM     15  C   UNL     1      -3.684  -0.960   0.014  0.00  0.00    +0.025 A 
ATOM     16  C   UNL     1      -4.791  -0.132   0.030  0.00  0.00    +0.010 A 
ATOM     17  F   UNL     1      -2.768  -3.145  -0.002  0.00  0.00    -0.205 F 
ENDBRANCH  10  15
ENDBRANCH   9  10
ENDBRANCH   2   9
ENDBRANCH   1   7
BRANCH   1  18
ATOM     18  N   UNL     1      -3.085   3.903   1.415  0.00  0.00    -0.312 NA
ATOM     19  H   UNL     1      -3.240   2.872   1.766  0.00  0.00    +0.122 HD
BRANCH  18  20
ATOM     20  C   UNL     1      -4.368   4.616   1.470  0.00  0.00    +0.086 C 
BRANCH  20  21
ATOM     21  C   UNL     1      -4.889   4.620   2.908  0.00  0.00    +0.050 C 
BRANCH  21  22
ATOM     22  C   UNL     1      -6.205   5.352   2.963  0.00  0.00    -0.046 A 
ATOM     23  C   UNL     1      -6.229   6.713   3.202  0.00  0.00    +0.005 A 
ATOM     24  C   UNL     1      -7.436   7.385   3.249  0.00  0.00    +0.029 A 
ATOM     25  C   UNL     1      -8.620   6.695   3.066  0.00  0.00    +0.105 A 
ATOM     26  C   UNL     1      -8.596   5.332   2.832  0.00  0.00    +0.029 A 
ATOM     27  C   UNL     1      -7.388   4.661   2.781  0.00  0.00    +0.005 A 
BRANCH  25  28
ATOM     28  S   UNL     1     -10.158   7.551   3.130  0.00  0.00    +0.056 S 
ATOM     29  O   UNL     1      -9.880   8.909   2.819  0.00  0.00    -0.153 OA
ATOM     30  O   UNL     1     -11.086   6.774   2.385  0.00  0.00    -0.153 OA
BRANCH  28  31
ATOM     31  N   UNL     1     -10.671   7.520   4.704  0.00  0.00    -0.204 NA
ATOM     32  H   UNL     1     -11.633   8.047   4.787  0.00  0.00    +0.144 HD
ATOM     33  H   UNL     1      -9.925   8.017   5.342  0.00  0.00    +0.144 HD
ENDBRANCH  28  31
ENDBRANCH  25  28
ENDBRANCH  21  22
ENDBRANCH  20  21
ENDBRANCH  18  20
ENDBRANCH   1  18
TORSDOF 10
