REMARK  Name = ZINC40661729
REMARK  10 active torsions:
REMARK  status: ('A' for Active; 'I' for Inactive)
REMARK    1  A    between atoms: C_1  and  C_2
REMARK    2  A    between atoms: C_2  and  N_3
REMARK    3  A    between atoms: N_3  and  C_4
REMARK    4  A    between atoms: C_8  and  C_10
REMARK    5  A    between atoms: C_12  and  N_32
REMARK    6  A    between atoms: C_13  and  N_17
REMARK    7  A    between atoms: N_17  and  C_18
REMARK    8  A    between atoms: N_17  and  C_25
REMARK    9  A    between atoms: C_18  and  C_19
REMARK   10  A    between atoms: C_25  and  C_26
REMARK                            x       y       z     vdW  Elec       q    Type
REMARK                         _______ _______ _______ _____ _____    ______ ____
ROOT
ATOM      1  N   UNL     1      -1.645   0.490   0.159  0.00  0.00    -0.285 N 
ATOM      2  C   UNL     1      -2.084  -0.074   1.352  0.00  0.00    +0.129 A 
ATOM      3  C   UNL     1      -1.362   0.111   2.532  0.00  0.00    +0.104 A 
ATOM      4  C   UNL     1      -1.848  -0.477   3.701  0.00  0.00    +0.148 A 
ATOM      5  N   UNL     1      -2.972  -1.187   3.647  0.00  0.00    -0.221 NA
ATOM      6  C   UNL     1      -3.624  -1.337   2.511  0.00  0.00    +0.200 A 
ATOM      7  N   UNL     1      -3.203  -0.795   1.387  0.00  0.00    -0.332 N 
ATOM      8  H   UNL     1      -3.713  -0.925   0.572  0.00  0.00    +0.168 HD
ENDROOT
BRANCH   1   9
ATOM      9  C   UNL     1      -0.867  -0.263  -0.725  0.00  0.00    +0.035 A 
ATOM     10  C   UNL     1      -0.622  -1.606  -0.467  0.00  0.00    +0.023 A 
ATOM     11  C   UNL     1       0.146  -2.347  -1.343  0.00  0.00    +0.002 A 
ATOM     12  C   UNL     1       0.671  -1.754  -2.476  0.00  0.00    +0.003 A 
ATOM     13  C   UNL     1       0.429  -0.417  -2.736  0.00  0.00    -0.049 A 
ATOM     14  C   UNL     1      -0.343   0.328  -1.867  0.00  0.00    +0.026 A 
ATOM     15  C   UNL     1       1.004   0.225  -3.973  0.00  0.00    +0.044 C 
ENDBRANCH   1   9
BRANCH   3  16
ATOM     16  N   UNL     1      -0.179   0.868   2.543  0.00  0.00    -0.353 N 
ATOM     17  H   UNL     1       0.199   1.189   1.710  0.00  0.00    +0.143 HD
ATOM     18  H   UNL     1       0.260   1.069   3.384  0.00  0.00    +0.143 HD
ENDBRANCH   3  16
BRANCH   1  20
ATOM     19  C   UNL     1      -3.244   1.885  -1.055  0.00  0.00    +0.025 C 
ATOM     20  C   UNL     1      -1.996   1.873  -0.170  0.00  0.00    +0.109 C 
ENDBRANCH   1  20
BRANCH   4  21
ATOM     21  N   UNL     1      -1.167  -0.325   4.904  0.00  0.00    -0.305 N 
BRANCH  21  22
ATOM     22  C   UNL     1      -1.387   0.869   5.723  0.00  0.00    +0.142 C 
BRANCH  22  23
ATOM     23  C   UNL     1      -2.518   0.617   6.686  0.00  0.00    -0.030 A 
ATOM     24  C   UNL     1      -3.818   0.908   6.316  0.00  0.00    +0.005 A 
ATOM     25  C   UNL     1      -4.856   0.676   7.199  0.00  0.00    +0.000 A 
ATOM     26  C   UNL     1      -4.594   0.153   8.452  0.00  0.00    +0.000 A 
ATOM     27  C   UNL     1      -3.294  -0.138   8.821  0.00  0.00    +0.000 A 
ATOM     28  C   UNL     1      -2.257   0.089   7.936  0.00  0.00    +0.005 A 
ENDBRANCH  22  23
ENDBRANCH  21  22
BRANCH  21  29
ATOM     29  C   UNL     1      -0.231  -1.358   5.351  0.00  0.00    +0.142 C 
BRANCH  29  30
ATOM     30  C   UNL     1       1.168  -0.986   4.930  0.00  0.00    -0.030 A 
ATOM     31  C   UNL     1       1.655  -1.404   3.705  0.00  0.00    +0.005 A 
ATOM     32  C   UNL     1       2.937  -1.062   3.319  0.00  0.00    +0.000 A 
ATOM     33  C   UNL     1       3.732  -0.302   4.156  0.00  0.00    +0.000 A 
ATOM     34  C   UNL     1       3.245   0.117   5.380  0.00  0.00    +0.000 A 
ATOM     35  C   UNL     1       1.961  -0.221   5.765  0.00  0.00    +0.005 A 
ENDBRANCH  29  30
ENDBRANCH  21  29
ENDBRANCH   4  21
TORSDOF 8
