REMARK  Name = ZINC01896122
REMARK  15 active torsions:
REMARK  status: ('A' for Active; 'I' for Inactive)
REMARK    1  A    between atoms: C_1  and  C_2
REMARK    2  A    between atoms: C_3  and  C_34
REMARK    3  A    between atoms: N_9  and  C_31
REMARK    4  A    between atoms: C_10  and  S_12
REMARK    5  A    between atoms: S_12  and  C_13
REMARK    6  A    between atoms: C_13  and  C_14
REMARK    7  A    between atoms: N_16  and  C_17
REMARK    8  A    between atoms: C_18  and  C_27
REMARK    9  A    between atoms: C_19  and  C_26
REMARK   10  A    between atoms: C_20  and  C_22
REMARK   11  A    between atoms: C_22  and  O_24
REMARK   12  A    between atoms: O_24  and  C_25
REMARK   13  A    between atoms: C_27  and  O_29
REMARK   14  A    between atoms: O_29  and  C_30
REMARK   15  A    between atoms: C_31  and  C_32
REMARK                            x       y       z     vdW  Elec       q    Type
REMARK                         _______ _______ _______ _____ _____    ______ ____
ROOT
ATOM      1  C   UNL     1       1.240   4.665  -3.515  0.00  0.00    +0.228 C 
ATOM      2  O   UNL     1       1.288   5.858  -3.305  0.00  0.00    -0.275 OA
ATOM      3  N   UNL     1       1.217   3.800  -2.482  0.00  0.00    -0.279 N 
ATOM      4  H   UNL     1       1.178   2.845  -2.650  0.00  0.00    +0.155 HD
ENDROOT
BRANCH   3   5
ATOM      5  C   UNL     1       1.248   4.272  -1.185  0.00  0.00    +0.087 A 
ATOM      6  C   UNL     1       1.232   3.542   0.009  0.00  0.00    +0.091 A 
ATOM      7  C   UNL     1       1.266   4.253   1.199  0.00  0.00    -0.014 A 
ATOM      8  C   UNL     1       1.323   5.618   1.123  0.00  0.00    +0.102 A 
ATOM      9  S   UNL     1       1.317   5.914  -0.635  0.00  0.00    -0.066 S 
ATOM     10  C   UNL     1       1.246   3.546   2.530  0.00  0.00    +0.046 C 
BRANCH   8  11
ATOM     11  C   UNL     1       1.371   6.593   2.213  0.00  0.00    +0.346 C 
ATOM     12  O   UNL     1       1.368   6.213   3.369  0.00  0.00    -0.244 OA
BRANCH  11  13
ATOM     13  O   UNL     1       1.420   7.912   1.937  0.00  0.00    -0.464 OA
ATOM     14  C   UNL     1       1.465   8.807   3.050  0.00  0.00    +0.280 C 
ENDBRANCH  11  13
ENDBRANCH   8  11
BRANCH   6  15
ATOM     15  C   UNL     1       1.175   2.076   0.002  0.00  0.00    +0.342 C 
ATOM     16  O   UNL     1       2.204   1.428  -0.011  0.00  0.00    -0.245 OA
BRANCH  15  17
ATOM     17  O   UNL     1      -0.018   1.448   0.010  0.00  0.00    -0.464 OA
ATOM     18  C   UNL     1       0.002  -0.004   0.002  0.00  0.00    +0.280 C 
ENDBRANCH  15  17
ENDBRANCH   6  15
ENDBRANCH   3   5
BRANCH   1  19
ATOM     19  C   UNL     1       1.206   4.150  -4.931  0.00  0.00    +0.173 C 
BRANCH  19  20
ATOM     20  S   UNL     1       1.248   5.545  -6.082  0.00  0.00    -0.078 S 
BRANCH  20  30
ATOM     21  C   UNL     1       1.083   2.989 -12.555  0.00  0.00    +0.045 C 
ATOM     22  C   UNL     1       1.076   2.432 -11.155  0.00  0.00    -0.026 A 
ATOM     23  C   UNL     1       1.027   1.107 -10.952  0.00  0.00    -0.008 A 
ATOM     24  S   UNL     1       1.040   0.960  -9.175  0.00  0.00    -0.073 S 
ATOM     25  C   UNL     1       1.111   2.683  -8.756  0.00  0.00    +0.117 A 
ATOM     26  C   UNL     1       1.122   3.324 -10.009  0.00  0.00    +0.075 A 
ATOM     27  C   UNL     1       1.178   4.753  -9.976  0.00  0.00    +0.263 A 
ATOM     28  O   UNL     1       1.191   5.395 -11.013  0.00  0.00    -0.267 OA
ATOM     29  N   UNL     1       1.214   5.380  -8.786  0.00  0.00    -0.283 N 
ATOM     30  C   UNL     1       1.199   4.679  -7.615  0.00  0.00    +0.173 A 
ATOM     31  N   UNL     1       1.153   3.362  -7.617  0.00  0.00    -0.216 NA
ATOM     32  C   UNL     1       0.973   0.006 -11.980  0.00  0.00    +0.052 C 
BRANCH  29  33
ATOM     33  C   UNL     1       1.271   6.844  -8.746  0.00  0.00    +0.154 C 
BRANCH  33  34
ATOM     34  C   UNL     1       2.710   7.291  -8.747  0.00  0.00    -0.013 C 
ATOM     35  C   UNL     1       3.134   8.132  -9.657  0.00  0.00    +0.005 C 
ENDBRANCH  33  34
ENDBRANCH  29  33
ENDBRANCH  20  30
ENDBRANCH  19  20
ENDBRANCH   1  19
TORSDOF 10
