REMARK  Name = ZINC37615099
REMARK  7 active torsions:
REMARK  status: ('A' for Active; 'I' for Inactive)
REMARK    1  A    between atoms: C_1  and  C_2
REMARK    2  A    between atoms: C_2  and  C_3
REMARK    3  A    between atoms: C_2  and  C_6
REMARK    4  A    between atoms: C_2  and  N_21
REMARK    5  A    between atoms: N_8  and  C_9
REMARK    6  A    between atoms: C_14  and  O_15
REMARK    7  A    between atoms: O_15  and  C_16
REMARK                            x       y       z     vdW  Elec       q    Type
REMARK                         _______ _______ _______ _____ _____    ______ ____
ROOT
ATOM      1  C   UNL     1      -1.415  -0.518   0.014  0.00  0.00    +0.206 C 
ATOM      2  O   UNL     1      -1.942  -0.823   1.063  0.00  0.00    -0.277 OA
ATOM      3  N   UNL     1      -2.090  -0.657  -1.144  0.00  0.00    -0.284 N 
ATOM      4  H   UNL     1      -1.694  -0.354  -1.976  0.00  0.00    +0.155 HD
ENDROOT
BRANCH   3   5
ATOM      5  C   UNL     1      -3.365  -1.240  -1.147  0.00  0.00    +0.078 A 
ATOM      6  C   UNL     1      -4.226  -1.033  -0.078  0.00  0.00    +0.047 A 
ATOM      7  C   UNL     1      -5.483  -1.609  -0.083  0.00  0.00    +0.044 A 
ATOM      8  C   UNL     1      -5.886  -2.391  -1.151  0.00  0.00    +0.039 A 
ATOM      9  C   UNL     1      -5.032  -2.600  -2.219  0.00  0.00    +0.063 A 
ATOM     10  C   UNL     1      -3.773  -2.022  -2.224  0.00  0.00    +0.162 A 
ATOM     11 BR   UNL     1      -5.587  -3.670  -3.677  0.00  0.00    -0.046 Br
ATOM     12 CL   UNL     1      -6.559  -1.350   1.255  0.00  0.00    -0.083 Cl
BRANCH  10  13
ATOM     13  O   UNL     1      -2.935  -2.222  -3.277  0.00  0.00    -0.431 OA
BRANCH  13  14
ATOM     14  C   UNL     1      -2.063  -3.353  -3.206  0.00  0.00    +0.541 C 
ATOM     15  F   UNL     1      -1.236  -3.234  -2.084  0.00  0.00    -0.166 F 
ATOM     16  F   UNL     1      -2.824  -4.522  -3.103  0.00  0.00    -0.166 F 
ENDBRANCH  13  14
ENDBRANCH  10  13
ENDBRANCH   3   5
BRANCH   1  18
ATOM     17  C   UNL     1      -0.039   1.544   0.011  0.00  0.00    -0.001 C 
ATOM     18  C   UNL     1      -0.005   0.015   0.005  0.00  0.00    +0.007 C 
BRANCH  18  19
ATOM     19  N   UNL     1       0.688  -0.455  -1.202  0.00  0.00    +0.388 N 
ATOM     20  H   UNL     1       1.632  -0.098  -1.208  0.00  0.00    -0.089 HD
ATOM     21  H   UNL     1       0.710  -1.464  -1.206  0.00  0.00    -0.089 HD
ATOM     22  H   UNL     1       0.199  -0.126  -2.021  0.00  0.00    -0.089 HD
ENDBRANCH  18  19
BRANCH  18  23
ATOM     23  C   UNL     1       0.736  -0.484   1.247  0.00  0.00    -0.014 C 
ATOM     24  C   UNL     1       0.999   0.525   2.366  0.00  0.00    +0.003 C 
ATOM     25  C   UNL     1       2.152   0.044   1.484  0.00  0.00    +0.003 C 
ENDBRANCH  18  23
ENDBRANCH   1  18
TORSDOF 6
