REMARK  Name = ZINC50170642
REMARK  6 active torsions:
REMARK  status: ('A' for Active; 'I' for Inactive)
REMARK    1  A    between atoms: C_1  and  C_2
REMARK    2  A    between atoms: C_3  and  C_12
REMARK    3  A    between atoms: C_12  and  C_14
REMARK    4  A    between atoms: N_16  and  N_17
REMARK    5  A    between atoms: C_18  and  C_20
REMARK    6  A    between atoms: C_29  and  O_30
REMARK                            x       y       z     vdW  Elec       q    Type
REMARK                         _______ _______ _______ _____ _____    ______ ____
ROOT
ATOM      1  C   UNL     1       0.120   0.873  -3.009  0.00  0.00    +0.301 C 
ATOM      2  O   UNL     1       0.324   1.739  -2.184  0.00  0.00    -0.265 OA
ATOM      3  N   UNL     1       0.007   1.196  -4.313  0.00  0.00    -0.227 N 
ATOM      4  H   UNL     1      -0.155   0.504  -4.972  0.00  0.00    +0.173 HD
ENDROOT
BRANCH   3   5
ATOM      5  N   UNL     1       0.125   2.533  -4.715  0.00  0.00    -0.230 N 
ATOM      6  C   UNL     1       0.012   2.857  -6.019  0.00  0.00    +0.264 C 
ATOM      7  O   UNL     1      -0.192   1.989  -6.845  0.00  0.00    -0.269 OA
ATOM      8  H   UNL     1       0.288   3.226  -4.056  0.00  0.00    +0.173 HD
BRANCH   6   9
ATOM      9  C   UNL     1       0.136   4.265  -6.443  0.00  0.00    +0.080 A 
ATOM     10  C   UNL     1       0.374   5.250  -5.498  0.00  0.00    +0.025 A 
ATOM     11  C   UNL     1       0.491   6.586  -5.907  0.00  0.00    -0.017 A 
ATOM     12  C   UNL     1       0.733   7.612  -4.974  0.00  0.00    +0.008 A 
ATOM     13  C   UNL     1       0.842   8.899  -5.402  0.00  0.00    +0.001 A 
ATOM     14  C   UNL     1       0.717   9.219  -6.753  0.00  0.00    +0.001 A 
ATOM     15  C   UNL     1       0.483   8.254  -7.684  0.00  0.00    +0.008 A 
ATOM     16  C   UNL     1       0.364   6.912  -7.282  0.00  0.00    -0.014 A 
ATOM     17  C   UNL     1       0.123   5.895  -8.220  0.00  0.00    +0.054 A 
ATOM     18  C   UNL     1       0.018   4.599  -7.808  0.00  0.00    +0.130 A 
BRANCH  18  19
ATOM     19  O   UNL     1      -0.210   3.621  -8.721  0.00  0.00    -0.506 OA
ATOM     20  H   UNL     1      -1.146   3.444  -8.884  0.00  0.00    +0.292 HD
ENDBRANCH  18  19
ENDBRANCH   6   9
ENDBRANCH   3   5
BRANCH   1  21
ATOM     21  C   UNL     1      -0.005  -0.551  -2.581  0.00  0.00    +0.251 C 
ATOM     22  O   UNL     1      -0.113  -1.429  -3.414  0.00  0.00    -0.282 OA
BRANCH  21  25
ATOM     23  C   UNL     1      -2.536  -0.926  -0.777  0.00  0.00    +0.064 C 
ATOM     24  C   UNL     1      -1.100  -1.060  -0.340  0.00  0.00    +0.025 A 
ATOM     25  C   UNL     1       0.001  -0.889  -1.158  0.00  0.00    +0.055 A 
ATOM     26  C   UNL     1       1.184  -1.117  -0.306  0.00  0.00    +0.011 A 
ATOM     27  C   UNL     1       2.558  -1.092  -0.533  0.00  0.00    +0.011 A 
ATOM     28  C   UNL     1       3.425  -1.357   0.505  0.00  0.00    +0.001 A 
ATOM     29  C   UNL     1       2.934  -1.648   1.769  0.00  0.00    +0.002 A 
ATOM     30  C   UNL     1       1.577  -1.676   2.006  0.00  0.00    +0.026 A 
ATOM     31  C   UNL     1       0.685  -1.410   0.972  0.00  0.00    +0.047 A 
ATOM     32  N   UNL     1      -0.693  -1.359   0.906  0.00  0.00    -0.358 N 
ATOM     33  H   UNL     1      -1.287  -1.520   1.656  0.00  0.00    +0.166 HD
ENDBRANCH  21  25
ENDBRANCH   1  21
TORSDOF 5
