REMARK  Name = ZINC08893036
REMARK  6 active torsions:
REMARK  status: ('A' for Active; 'I' for Inactive)
REMARK    1  A    between atoms: C_5  and  C_6
REMARK    2  A    between atoms: C_6  and  C_8
REMARK    3  A    between atoms: C_6  and  N_57
REMARK    4  A    between atoms: C_8  and  N_9
REMARK    5  A    between atoms: C_10  and  C_12
REMARK    6  A    between atoms: N_14  and  C_15
REMARK                            x       y       z     vdW  Elec       q    Type
REMARK                         _______ _______ _______ _____ _____    ______ ____
ROOT
ATOM      1  C   UNL     1      -1.945   1.971   1.430  0.00  0.00    +0.094 C 
ENDROOT
BRANCH   1   2
ATOM      2  N   UNL     1      -3.317   2.485   1.417  0.00  0.00    -0.309 N 
ATOM      3  C   UNL     1      -4.087   2.381   2.518  0.00  0.00    +0.299 C 
ATOM      4  O   UNL     1      -3.643   1.860   3.521  0.00  0.00    -0.265 OA
ATOM      5  H   UNL     1      -3.671   2.901   0.615  0.00  0.00    +0.149 HD
BRANCH   3   6
ATOM      6  C   UNL     1      -5.486   2.906   2.505  0.00  0.00    +0.299 C 
ATOM      7  O   UNL     1      -5.929   3.426   1.502  0.00  0.00    -0.265 OA
ATOM      8  N   UNL     1      -6.255   2.801   3.606  0.00  0.00    -0.305 N 
ATOM      9  H   UNL     1      -5.901   2.385   4.408  0.00  0.00    +0.149 HD
BRANCH   8  10
ATOM     10  C   UNL     1      -7.627   3.316   3.593  0.00  0.00    +0.073 C 
ATOM     11  C   UNL     1      -7.614   4.810   3.923  0.00  0.00    +0.022 C 
ATOM     12  C   UNL     1      -9.047   5.347   3.909  0.00  0.00    +0.002 C 
ATOM     13  C   UNL     1      -9.881   4.602   4.953  0.00  0.00    +0.000 C 
ATOM     14  C   UNL     1      -9.894   3.108   4.623  0.00  0.00    +0.002 C 
ATOM     15  C   UNL     1      -8.461   2.570   4.637  0.00  0.00    +0.022 C 
ENDBRANCH   8  10
ENDBRANCH   3   6
ENDBRANCH   1   2
BRANCH   1  16
ATOM     16  C   UNL     1      -1.352   2.066   0.023  0.00  0.00    -0.020 C 
BRANCH  16  23
ATOM     17  C   UNL     1      -1.403   0.500  -1.835  0.00  0.00    -0.078 C 
ATOM     18  C   UNL     1      -2.204  -0.048  -2.985  0.00  0.00    -0.019 C 
ATOM     19  C   UNL     1      -2.057   0.911  -4.185  0.00  0.00    -0.002 C 
ATOM     20  C   UNL     1      -2.904   2.091  -4.053  0.00  0.00    -0.002 C 
ATOM     21  C   UNL     1      -2.550   2.926  -2.804  0.00  0.00    -0.019 C 
ATOM     22  C   UNL     1      -3.152   2.258  -1.598  0.00  0.00    -0.078 C 
ATOM     23  N   UNL     1      -2.234   1.310  -0.880  0.00  0.00    +0.385 N 
ATOM     24  H   UNL     1      -2.806   0.665  -0.322  0.00  0.00    -0.081 HD
ENDBRANCH  16  23
BRANCH  16  29
ATOM     25  C   UNL     1       1.135   2.235  -0.268  0.00  0.00    +0.009 A 
ATOM     26  C   UNL     1       2.361   1.656  -0.270  0.00  0.00    +0.045 A 
ATOM     27  S   UNL     1       1.970  -0.037   0.141  0.00  0.00    -0.105 S 
ATOM     28  C   UNL     1       0.200   0.141   0.288  0.00  0.00    +0.047 A 
ATOM     29  C   UNL     1       0.028   1.458   0.018  0.00  0.00    -0.052 A 
ENDBRANCH  16  29
ENDBRANCH   1  16
TORSDOF 6
