REMARK  Name = ZINC20875467
REMARK  5 active torsions:
REMARK  status: ('A' for Active; 'I' for Inactive)
REMARK    1  A    between atoms: C_3  and  C_24
REMARK    2  A    between atoms: C_6  and  C_7
REMARK    3  A    between atoms: C_10  and  C_12
REMARK    4  A    between atoms: C_12  and  N_13
REMARK    5  A    between atoms: N_13  and  C_14
REMARK                            x       y       z     vdW  Elec       q    Type
REMARK                         _______ _______ _______ _____ _____    ______ ____
ROOT
ATOM      1  C   UNL     1       2.972   0.774   3.179  0.00  0.00    +0.135 A 
ATOM      2  C   UNL     1       3.407  -0.286   2.443  0.00  0.00    +0.050 A 
ATOM      3  C   UNL     1       2.854  -0.141   1.157  0.00  0.00    +0.043 A 
ATOM      4  C   UNL     1       2.125   0.993   1.166  0.00  0.00    +0.089 A 
ATOM      5  O   UNL     1       2.195   1.541   2.389  0.00  0.00    -0.462 OA
ENDROOT
BRANCH   1  11
ATOM      6  C   UNL     1       4.113   0.149   5.301  0.00  0.00    +0.012 A 
ATOM      7  C   UNL     1       4.417   0.396   6.609  0.00  0.00    +0.016 A 
ATOM      8  C   UNL     1       3.900   1.529   7.246  0.00  0.00    +0.063 A 
ATOM      9  C   UNL     1       3.077   2.413   6.540  0.00  0.00    +0.016 A 
ATOM     10  C   UNL     1       2.778   2.169   5.230  0.00  0.00    +0.012 A 
ATOM     11  C   UNL     1       3.295   1.036   4.594  0.00  0.00    +0.017 A 
BRANCH   8  12
ATOM     12  C   UNL     1       4.222   1.791   8.661  0.00  0.00    +0.387 C 
ATOM     13  O   UNL     1       3.772   2.775   9.214  0.00  0.00    -0.241 OA
ATOM     14  O   UNL     1       5.015   0.939   9.340  0.00  0.00    -0.241 OA
ENDBRANCH   8  12
ENDBRANCH   1  11
BRANCH   4  15
ATOM     15  C   UNL     1       1.353   1.550  -0.003  0.00  0.00    -0.006 C 
BRANCH  15  16
ATOM     16  N   UNL     1      -0.012   1.005   0.008  0.00  0.00    +0.386 N 
ATOM     17  H   UNL     1       0.031  -0.092  -0.070  0.00  0.00    -0.085 HD
ATOM     18  H   UNL     1      -0.512   1.287   0.946  0.00  0.00    -0.085 HD
BRANCH  16  19
ATOM     19  C   UNL     1      -0.795   1.527  -1.120  0.00  0.00    -0.065 C 
ATOM     20  C   UNL     1      -1.403   2.878  -0.736  0.00  0.00    -0.024 C 
ATOM     21  C   UNL     1      -2.219   3.422  -1.911  0.00  0.00    +0.005 C 
ATOM     22  C   UNL     1      -3.340   2.437  -2.252  0.00  0.00    -0.010 C 
ATOM     23  C   UNL     1      -4.251   2.260  -1.036  0.00  0.00    +0.007 C 
ATOM     24  C   UNL     1      -3.435   1.716   0.138  0.00  0.00    -0.010 C 
ATOM     25  C   UNL     1      -2.314   2.701   0.480  0.00  0.00    +0.005 C 
ATOM     26  C   UNL     1      -2.827   0.365  -0.245  0.00  0.00    +0.005 C 
ATOM     27  C   UNL     1      -1.916   0.542  -1.461  0.00  0.00    -0.024 C 
ATOM     28  C   UNL     1      -2.732   1.086  -2.635  0.00  0.00    +0.005 C 
ENDBRANCH  16  19
ENDBRANCH  15  16
ENDBRANCH   4  15
TORSDOF 5
