REMARK  Name = ZINC43337095
REMARK  7 active torsions:
REMARK  status: ('A' for Active; 'I' for Inactive)
REMARK    1  A    between atoms: C_1  and  C_2
REMARK    2  A    between atoms: C_2  and  C_3
REMARK    3  A    between atoms: C_3  and  C_5
REMARK    4  A    between atoms: C_3  and  N_22
REMARK    5  A    between atoms: C_5  and  C_7
REMARK    6  A    between atoms: C_5  and  O_12
REMARK    7  A    between atoms: O_12  and  C_13
REMARK                            x       y       z     vdW  Elec       q    Type
REMARK                         _______ _______ _______ _____ _____    ______ ____
ROOT
ATOM      1  C   UNL     1      -1.214  -1.956  -0.177  0.00  0.00    +0.225 C 
ENDROOT
BRANCH   1   2
ATOM      2  C   UNL     1      -2.617  -2.439  -0.444  0.00  0.00    +0.143 A 
ATOM      3  C   UNL     1      -3.144  -2.696  -1.654  0.00  0.00    +0.048 A 
ATOM      4  C   UNL     1      -4.474  -3.123  -1.440  0.00  0.00    +0.041 A 
ATOM      5  C   UNL     1      -4.681  -3.102  -0.111  0.00  0.00    +0.195 A 
ATOM      6  O   UNL     1      -3.551  -2.692   0.488  0.00  0.00    -0.464 OA
ENDBRANCH   1   2
BRANCH   1   7
ATOM      7  C   UNL     1      -1.234  -0.447   0.074  0.00  0.00    -0.026 C 
BRANCH   7   8
ATOM      8  N   UNL     1      -2.082  -0.156   1.238  0.00  0.00    +0.383 N 
ATOM      9  H   UNL     1      -1.712  -0.627   2.050  0.00  0.00    -0.089 HD
ATOM     10  H   UNL     1      -2.095   0.840   1.404  0.00  0.00    -0.089 HD
ATOM     11  H   UNL     1      -3.021  -0.479   1.060  0.00  0.00    -0.089 HD
ENDBRANCH   7   8
BRANCH   7  13
ATOM     12  C   UNL     1       0.187   1.569   0.473  0.00  0.00    +0.002 C 
ATOM     13  C   UNL     1       0.189   0.044   0.345  0.00  0.00    -0.016 C 
ENDBRANCH   7  13
ENDBRANCH   1   7
BRANCH   1  14
ATOM     14  O   UNL     1      -0.691  -2.624   0.973  0.00  0.00    -0.481 OA
BRANCH  14  15
ATOM     15  C   UNL     1      -0.128  -3.845   0.774  0.00  0.00    +0.141 A 
ATOM     16  C   UNL     1      -0.182  -4.439  -0.478  0.00  0.00    +0.068 A 
ATOM     17  C   UNL     1       0.391  -5.681  -0.678  0.00  0.00    +0.063 A 
ATOM     18  C   UNL     1       1.018  -6.333   0.371  0.00  0.00    +0.061 A 
ATOM     19  C   UNL     1       1.072  -5.742   1.620  0.00  0.00    +0.045 A 
ATOM     20  C   UNL     1       0.506  -4.497   1.823  0.00  0.00    +0.084 A 
ATOM     21 CL   UNL     1       0.580  -3.753   3.389  0.00  0.00    -0.080 Cl
ATOM     22 CL   UNL     1       1.735  -7.893   0.117  0.00  0.00    -0.082 Cl
ATOM     23 CL   UNL     1       0.323  -6.425  -2.245  0.00  0.00    -0.082 Cl
ENDBRANCH  14  15
ENDBRANCH   1  14
TORSDOF 6
