REMARK  Name = ZINC51090827
REMARK  3 active torsions:
REMARK  status: ('A' for Active; 'I' for Inactive)
REMARK    1  A    between atoms: C_3  and  N_22
REMARK    2  A    between atoms: C_5  and  C_8
REMARK    3  A    between atoms: N_22  and  N_23
REMARK                            x       y       z     vdW  Elec       q    Type
REMARK                         _______ _______ _______ _____ _____    ______ ____
ROOT
ATOM      1  C   UNL     1       0.005   1.389   0.147  0.00  0.00    +0.026 A 
ATOM      2  C   UNL     1       1.168   2.059  -0.184  0.00  0.00    +0.046 A 
ATOM      3  C   UNL     1       2.325   1.328  -0.451  0.00  0.00    +0.133 A 
ATOM      4  N   UNL     1       2.319   0.009  -0.391  0.00  0.00    -0.225 NA
ATOM      5  C   UNL     1       1.220  -0.668  -0.076  0.00  0.00    +0.146 A 
ATOM      6  C   UNL     1       0.031   0.001   0.202  0.00  0.00    +0.072 A 
ATOM      7 CL   UNL     1      -1.402  -0.889   0.613  0.00  0.00    -0.081 Cl
ENDROOT
BRANCH   5   8
ATOM      8  C   UNL     1       1.260  -2.147  -0.021  0.00  0.00    +0.266 C 
ATOM      9  O   UNL     1       0.232  -2.777   0.129  0.00  0.00    -0.268 OA
ATOM     10  N   UNL     1       2.437  -2.794  -0.138  0.00  0.00    -0.296 N 
ATOM     11  C   UNL     1       3.704  -2.050  -0.142  0.00  0.00    +0.108 C 
ATOM     12  C   UNL     1       4.620  -2.636   0.937  0.00  0.00    +0.023 C 
ATOM     13  C   UNL     1       4.777  -4.141   0.709  0.00  0.00    -0.005 C 
ATOM     14  C   UNL     1       5.717  -4.716   1.770  0.00  0.00    +0.004 C 
ATOM     15  C   UNL     1       5.876  -6.222   1.552  0.00  0.00    +0.000 C 
ATOM     16  C   UNL     1       4.508  -6.899   1.666  0.00  0.00    +0.000 C 
ATOM     17  C   UNL     1       3.569  -6.327   0.602  0.00  0.00    +0.005 C 
ATOM     18  C   UNL     1       3.409  -4.820   0.813  0.00  0.00    +0.010 C 
ATOM     19  C   UNL     1       2.478  -4.258  -0.258  0.00  0.00    +0.112 C 
ENDBRANCH   5   8
BRANCH   3  20
ATOM     20  N   UNL     1       3.498   1.996  -0.785  0.00  0.00    -0.268 N 
ATOM     21  H   UNL     1       3.508   2.965  -0.831  0.00  0.00    +0.167 HD
BRANCH  20  22
ATOM     22  N   UNL     1       4.636   1.287  -1.048  0.00  0.00    -0.255 NA
ATOM     23  H   UNL     1       4.482   0.617  -1.786  0.00  0.00    +0.140 HD
ATOM     24  H   UNL     1       5.402   1.904  -1.274  0.00  0.00    +0.140 HD
ENDBRANCH  20  22
ENDBRANCH   3  20
TORSDOF 3
