REMARK  Name = ZINC44695582
REMARK  7 active torsions:
REMARK  status: ('A' for Active; 'I' for Inactive)
REMARK    1  A    between atoms: C_1  and  O_2
REMARK    2  A    between atoms: O_2  and  C_3
REMARK    3  A    between atoms: C_9  and  C_13
REMARK    4  A    between atoms: C_13  and  C_14
REMARK    5  A    between atoms: C_14  and  N_15
REMARK    6  A    between atoms: C_16  and  C_18
REMARK    7  A    between atoms: C_29  and  C_31
REMARK                            x       y       z     vdW  Elec       q    Type
REMARK                         _______ _______ _______ _____ _____    ______ ____
ROOT
ATOM      1  C   UNL     1       0.716  -8.461   2.573  0.00  0.00    +0.100 C 
ATOM      2  C   UNL     1       1.959  -8.190   1.696  0.00  0.00    +0.121 C 
ATOM      3  N   UNL     1       2.993  -7.718   2.647  0.00  0.00    -0.296 N 
ATOM      4  C   UNL     1       2.804  -8.566   3.848  0.00  0.00    +0.115 C 
ATOM      5  C   UNL     1       1.275  -8.711   3.984  0.00  0.00    -0.004 C 
ATOM      6  C   UNL     1       0.917 -10.118   4.452  0.00  0.00    -0.010 C 
ATOM      7  C   UNL     1       1.433 -10.323   5.879  0.00  0.00    -0.082 C 
ATOM      8  N   UNL     1       0.831  -9.322   6.768  0.00  0.00    +0.379 N 
ATOM      9  C   UNL     1       1.256  -7.976   6.366  0.00  0.00    -0.082 C 
ATOM     10  C   UNL     1       0.732  -7.671   4.960  0.00  0.00    -0.010 C 
ATOM     11  C   UNL     1       3.900  -6.738   2.462  0.00  0.00    +0.248 C 
ATOM     12  O   UNL     1       3.868  -6.062   1.451  0.00  0.00    -0.270 OA
ATOM     13  H   UNL     1      -0.175  -9.386   6.712  0.00  0.00    -0.086 HD
ATOM     14  H   UNL     1       1.124  -9.496   7.717  0.00  0.00    -0.086 HD
ENDROOT
BRANCH  11  15
ATOM     15  C   UNL     1       4.928  -6.487   3.480  0.00  0.00    +0.052 A 
ATOM     16  C   UNL     1       5.466  -7.507   4.198  0.00  0.00    +0.059 A 
ATOM     17  S   UNL     1       6.578  -6.789   5.228  0.00  0.00    -0.096 S 
ATOM     18  C   UNL     1       6.387  -5.091   4.761  0.00  0.00    +0.020 A 
ATOM     19  C   UNL     1       5.408  -5.130   3.750  0.00  0.00    +0.001 A 
ATOM     20  C   UNL     1       5.037  -3.905   3.163  0.00  0.00    +0.010 A 
ATOM     21  C   UNL     1       5.623  -2.733   3.572  0.00  0.00    +0.001 A 
ATOM     22  C   UNL     1       6.590  -2.722   4.567  0.00  0.00    +0.001 A 
ATOM     23  C   UNL     1       6.966  -3.908   5.168  0.00  0.00    +0.015 A 
ENDBRANCH  11  15
BRANCH   1  25
ATOM     24  N   UNL     1      -1.526  -7.426   2.715  0.00  0.00    -0.315 N 
ATOM     25  C   UNL     1      -0.196  -7.261   2.575  0.00  0.00    +0.218 C 
ATOM     26  O   UNL     1       0.267  -6.147   2.451  0.00  0.00    -0.275 OA
ATOM     27  H   UNL     1      -1.896  -8.317   2.815  0.00  0.00    +0.149 HD
BRANCH  24  28
ATOM     28  C   UNL     1      -2.413  -6.260   2.718  0.00  0.00    +0.109 C 
BRANCH  28  29
ATOM     29  C   UNL     1      -3.861  -6.721   2.890  0.00  0.00    +0.056 C 
BRANCH  29  36
ATOM     30  C   UNL     1      -5.898  -4.223  -0.530  0.00  0.00    +0.121 A 
ATOM     31  C   UNL     1      -6.675  -3.176  -0.040  0.00  0.00    +0.047 A 
ATOM     32  C   UNL     1      -6.785  -2.961   1.316  0.00  0.00    +0.030 A 
ATOM     33  C   UNL     1      -6.117  -3.792   2.209  0.00  0.00    +0.047 A 
ATOM     34  C   UNL     1      -5.332  -4.849   1.716  0.00  0.00    +0.006 A 
ATOM     35  C   UNL     1      -5.231  -5.062   0.340  0.00  0.00    +0.056 A 
ATOM     36  C   UNL     1      -4.774  -5.521   2.892  0.00  0.00    -0.021 A 
ATOM     37  C   UNL     1      -5.229  -4.867   3.972  0.00  0.00    +0.087 A 
ATOM     38  N   UNL     1      -6.033  -3.830   3.585  0.00  0.00    -0.360 N 
ATOM     39  H   UNL     1      -6.478  -3.214   4.188  0.00  0.00    +0.165 HD
BRANCH  30  41
ATOM     40  C   UNL     1      -6.515  -3.518  -2.716  0.00  0.00    +0.277 C 
ATOM     41  O   UNL     1      -5.800  -4.422  -1.872  0.00  0.00    -0.495 OA
ENDBRANCH  30  41
ENDBRANCH  29  36
ENDBRANCH  28  29
ENDBRANCH  24  28
ENDBRANCH   1  25
TORSDOF 6
