REMARK  Name = ZINC13879153
REMARK  9 active torsions:
REMARK  status: ('A' for Active; 'I' for Inactive)
REMARK    1  A    between atoms: C_1  and  C_2
REMARK    2  A    between atoms: C_2  and  C_3
REMARK    3  A    between atoms: C_2  and  C_4
REMARK    4  A    between atoms: C_4  and  C_5
REMARK    5  A    between atoms: C_12  and  O_24
REMARK    6  A    between atoms: C_13  and  O_22
REMARK    7  A    between atoms: N_20  and  O_21
REMARK    8  A    between atoms: O_22  and  C_23
REMARK    9  A    between atoms: O_24  and  C_25
REMARK                            x       y       z     vdW  Elec       q    Type
REMARK                         _______ _______ _______ _____ _____    ______ ____
ROOT
ATOM      1  C   UNL     1      -5.009   4.922  -1.175  0.00  0.00    +0.020 C 
ATOM      2  C   UNL     1      -4.952   3.755  -0.182  0.00  0.00    -0.069 C 
ATOM      3  C   UNL     1      -3.669   1.804   0.449  0.00  0.00    -0.073 C 
ATOM      4  C   UNL     1      -2.497   0.939  -0.011  0.00  0.00    +0.017 C 
ATOM      5  C   UNL     1      -1.225   1.749   0.017  0.00  0.00    -0.044 A 
ATOM      6  C   UNL     1      -0.013   1.076   0.008  0.00  0.00    +0.053 A 
ATOM      7  C   UNL     1       1.178   1.780   0.000  0.00  0.00    +0.162 A 
ATOM      8  C   UNL     1       1.155   3.172   0.009  0.00  0.00    +0.162 A 
ATOM      9  C   UNL     1      -0.057   3.837   0.026  0.00  0.00    +0.051 A 
ATOM     10  C   UNL     1      -1.250   3.127   0.033  0.00  0.00    -0.054 A 
ATOM     11  C   UNL     1      -2.540   3.902   0.054  0.00  0.00    -0.032 C 
ATOM     12  C   UNL     1      -2.441   5.072  -0.933  0.00  0.00    +0.044 C 
ATOM     13  C   UNL     1      -3.778   5.779  -0.969  0.00  0.00    +0.058 C 
ATOM     14  N   UNL     1      -3.870   7.049  -0.841  0.00  0.00    -0.096 NA
ATOM     15  N   UNL     1      -3.668   3.039  -0.356  0.00  0.00    +0.385 N 
ATOM     16  H   UNL     1      -3.555   2.792  -1.346  0.00  0.00    -0.081 HD
ENDROOT
BRANCH  14  17
ATOM     17  O   UNL     1      -2.703   7.828  -0.649  0.00  0.00    -0.409 OA
ATOM     18  H   UNL     1      -2.873   8.776  -0.563  0.00  0.00    +0.328 HD
ENDBRANCH  14  17
BRANCH   8  19
ATOM     19  O   UNL     1       2.320   3.874   0.001  0.00  0.00    -0.491 OA
ATOM     20  C   UNL     1       2.218   5.299   0.010  0.00  0.00    +0.277 C 
ENDBRANCH   8  19
BRANCH   7  21
ATOM     21  O   UNL     1       2.365   1.116  -0.015  0.00  0.00    -0.491 OA
ATOM     22  C   UNL     1       2.309  -0.312  -0.022  0.00  0.00    +0.277 C 
ENDBRANCH   7  21
BRANCH   1  23
ATOM     23  C   UNL     1      -5.027   4.381  -2.606  0.00  0.00    +0.010 C 
BRANCH  23  25
ATOM     24  C   UNL     1      -5.104   5.018  -5.021  0.00  0.00    +0.007 C 
ATOM     25  C   UNL     1      -5.210   5.541  -3.587  0.00  0.00    -0.017 C 
ATOM     26  C   UNL     1      -6.586   6.175  -3.376  0.00  0.00    +0.007 C 
ENDBRANCH  23  25
ENDBRANCH   1  23
TORSDOF 5
