REMARK  Name = ZINC35443027
REMARK  13 active torsions:
REMARK  status: ('A' for Active; 'I' for Inactive)
REMARK    1  A    between atoms: C_1  and  N_2
REMARK    2  A    between atoms: N_2  and  C_3
REMARK    3  A    between atoms: N_2  and  C_4
REMARK    4  A    between atoms: C_4  and  C_5
REMARK    5  A    between atoms: C_5  and  C_6
REMARK    6  A    between atoms: C_6  and  N_7
REMARK    7  A    between atoms: C_8  and  C_25
REMARK    8  A    between atoms: C_10  and  C_15
REMARK    9  A    between atoms: C_15  and  C_17
REMARK   10  A    between atoms: C_18  and  C_19
REMARK   11  A    between atoms: C_27  and  O_33
REMARK   12  A    between atoms: C_28  and  O_32
REMARK   13  A    between atoms: O_33  and  C_34
REMARK                            x       y       z     vdW  Elec       q    Type
REMARK                         _______ _______ _______ _____ _____    ______ ____
ROOT
ATOM      1  N   UNL     1      -3.821  -0.656  -2.196  0.00  0.00    -0.284 N 
ATOM      2  C   UNL     1      -4.813   0.425  -2.151  0.00  0.00    +0.145 C 
ATOM      3  C   UNL     1      -5.383   0.531  -3.546  0.00  0.00    +0.076 C 
ATOM      4  C   UNL     1      -4.761  -0.409  -4.295  0.00  0.00    +0.249 C 
ATOM      5  C   UNL     1      -3.791  -1.137  -3.452  0.00  0.00    +0.288 C 
ATOM      6  O   UNL     1      -3.073  -2.038  -3.836  0.00  0.00    -0.266 OA
ATOM      7  O   UNL     1      -4.989  -0.642  -5.608  0.00  0.00    -0.282 OA
ENDROOT
BRANCH   2   8
ATOM      8  C   UNL     1      -5.904   0.088  -1.168  0.00  0.00    -0.018 A 
ATOM      9  C   UNL     1      -6.485  -1.167  -1.187  0.00  0.00    +0.055 A 
ATOM     10  C   UNL     1      -7.489  -1.479  -0.284  0.00  0.00    +0.163 A 
ATOM     11  C   UNL     1      -7.909  -0.529   0.642  0.00  0.00    +0.173 A 
ATOM     12  C   UNL     1      -7.321   0.727   0.656  0.00  0.00    +0.063 A 
ATOM     13  C   UNL     1      -6.317   1.030  -0.246  0.00  0.00    +0.025 A 
ATOM     14 BR   UNL     1      -7.888   2.022   1.912  0.00  0.00    -0.046 Br
BRANCH  11  15
ATOM     15  O   UNL     1      -8.893  -0.831   1.530  0.00  0.00    -0.503 OA
ATOM     16  H   UNL     1      -8.572  -1.208   2.360  0.00  0.00    +0.292 HD
ENDBRANCH  11  15
BRANCH  10  17
ATOM     17  O   UNL     1      -8.062  -2.712  -0.302  0.00  0.00    -0.491 OA
ATOM     18  C   UNL     1      -7.508  -3.672  -1.204  0.00  0.00    +0.277 C 
ENDBRANCH  10  17
ENDBRANCH   2   8
BRANCH   3  19
ATOM     19  C   UNL     1      -6.414   1.472  -4.002  0.00  0.00    +0.188 C 
ATOM     20  O   UNL     1      -6.862   1.384  -5.131  0.00  0.00    -0.287 OA
BRANCH  19  21
ATOM     21  C   UNL     1      -6.903   2.515  -3.099  0.00  0.00    +0.052 C 
ATOM     22  C   UNL     1      -7.927   3.310  -3.478  0.00  0.00    +0.011 C 
BRANCH  22  23
ATOM     23  C   UNL     1      -8.486   4.289  -2.533  0.00  0.00    -0.025 A 
ATOM     24  C   UNL     1      -7.884   4.486  -1.285  0.00  0.00    +0.008 A 
ATOM     25  C   UNL     1      -8.414   5.406  -0.406  0.00  0.00    +0.001 A 
ATOM     26  C   UNL     1      -9.540   6.133  -0.753  0.00  0.00    +0.000 A 
ATOM     27  C   UNL     1     -10.142   5.944  -1.985  0.00  0.00    +0.001 A 
ATOM     28  C   UNL     1      -9.620   5.032  -2.879  0.00  0.00    +0.008 A 
ENDBRANCH  22  23
ENDBRANCH  19  21
ENDBRANCH   3  19
BRANCH   1  29
ATOM     29  C   UNL     1      -3.005  -1.124  -1.073  0.00  0.00    +0.107 C 
BRANCH  29  30
ATOM     30  C   UNL     1      -1.699  -0.328  -1.026  0.00  0.00    +0.000 C 
BRANCH  30  31
ATOM     31  C   UNL     1      -0.846  -0.817   0.147  0.00  0.00    -0.078 C 
BRANCH  31  33
ATOM     32  C   UNL     1       0.112   1.355   0.488  0.00  0.00    -0.097 C 
ATOM     33  N   UNL     1       0.407  -0.053   0.193  0.00  0.00    +0.376 N 
ATOM     34  C   UNL     1       1.277  -0.601   1.242  0.00  0.00    -0.097 C 
ATOM     35  H   UNL     1       0.874  -0.119  -0.699  0.00  0.00    -0.083 HD
ENDBRANCH  31  33
ENDBRANCH  30  31
ENDBRANCH  29  30
ENDBRANCH   1  29
TORSDOF 10
