REMARK  Name = ZINC36360679
REMARK  4 active torsions:
REMARK  status: ('A' for Active; 'I' for Inactive)
REMARK    1  A    between atoms: C_1  and  O_2
REMARK    2  A    between atoms: O_2  and  C_3
REMARK    3  A    between atoms: C_8  and  C_9
REMARK    4  A    between atoms: C_12  and  O_25
REMARK                            x       y       z     vdW  Elec       q    Type
REMARK                         _______ _______ _______ _____ _____    ______ ____
ROOT
ATOM      1  C   UNL     1       0.052  -2.828   0.005  0.00  0.00    +0.072 C 
ATOM      2  C   UNL     1       1.116  -3.719  -0.657  0.00  0.00    +0.109 C 
ATOM      3  C   UNL     1       0.471  -4.871  -1.370  0.00  0.00    +0.190 C 
ATOM      4  N   UNL     1      -0.621  -5.448  -0.996  0.00  0.00    -0.197 NA
ATOM      5  C   UNL     1      -1.313  -4.977   0.115  0.00  0.00    +0.169 A 
ATOM      6  C   UNL     1      -0.986  -3.726   0.584  0.00  0.00    +0.045 A 
ATOM      7  S   UNL     1      -2.076  -3.523   1.961  0.00  0.00    -0.054 S 
ATOM      8  C   UNL     1      -2.910  -5.099   1.804  0.00  0.00    +0.163 A 
ATOM      9  N   UNL     1      -2.292  -5.624   0.757  0.00  0.00    -0.206 NA
ATOM     10  N   UNL     1      -3.930  -5.631   2.576  0.00  0.00    -0.310 N 
ATOM     11  C   UNL     1      -4.484  -4.876   3.708  0.00  0.00    +0.107 C 
ATOM     12  C   UNL     1      -6.004  -4.785   3.543  0.00  0.00    +0.019 C 
ATOM     13  C   UNL     1      -6.582  -6.193   3.384  0.00  0.00    +0.003 C 
ATOM     14  C   UNL     1      -5.998  -6.847   2.129  0.00  0.00    +0.019 C 
ATOM     15  C   UNL     1      -4.482  -6.959   2.275  0.00  0.00    +0.107 C 
ENDROOT
BRANCH   1  21
ATOM     16  C   UNL     1       0.626  -0.618   1.042  0.00  0.00    +0.124 A 
ATOM     17  C   UNL     1       1.202   0.139   2.051  0.00  0.00    +0.046 A 
ATOM     18  C   UNL     1       1.835  -0.488   3.107  0.00  0.00    +0.004 A 
ATOM     19  C   UNL     1       1.895  -1.869   3.158  0.00  0.00    +0.001 A 
ATOM     20  C   UNL     1       1.321  -2.625   2.153  0.00  0.00    +0.008 A 
ATOM     21  C   UNL     1       0.682  -2.003   1.097  0.00  0.00    +0.003 A 
BRANCH  16  23
ATOM     22  C   UNL     1      -0.017   1.425   0.010  0.00  0.00    +0.277 C 
ATOM     23  O   UNL     1       0.002  -0.004   0.002  0.00  0.00    -0.495 OA
ENDBRANCH  16  23
ENDBRANCH   1  21
BRANCH   3  24
ATOM     24  O   UNL     1       1.076  -5.337  -2.484  0.00  0.00    -0.495 OA
ATOM     25  H   UNL     1       0.616  -6.079  -2.900  0.00  0.00    +0.293 HD
ENDBRANCH   3  24
TORSDOF 3
