REMARK  Name = ZINC43604589
REMARK  10 active torsions:
REMARK  status: ('A' for Active; 'I' for Inactive)
REMARK    1  A    between atoms: C_1  and  C_2
REMARK    2  A    between atoms: C_19  and  C_21
REMARK    3  A    between atoms: C_21  and  N_22
REMARK    4  A    between atoms: N_22  and  C_23
REMARK    5  A    between atoms: N_22  and  C_24
REMARK    6  A    between atoms: C_24  and  C_25
REMARK    7  A    between atoms: C_25  and  C_27
REMARK    8  A    between atoms: C_25  and  O_39
REMARK    9  A    between atoms: C_27  and  O_28
REMARK   10  A    between atoms: O_28  and  C_29
REMARK                            x       y       z     vdW  Elec       q    Type
REMARK                         _______ _______ _______ _____ _____    ______ ____
ROOT
ATOM      1  N   UNL     1      -1.903  -3.523   4.437  0.00  0.00    +0.380 N 
ATOM      2  C   UNL     1      -0.618  -4.143   4.089  0.00  0.00    -0.096 C 
ATOM      3  H   UNL     1      -2.627  -3.890   3.837  0.00  0.00    -0.082 HD
ENDROOT
BRANCH   1   4
ATOM      4  C   UNL     1      -1.810  -2.068   4.257  0.00  0.00    -0.064 C 
BRANCH   4  20
ATOM      5  C   UNL     1      -0.019   1.526   0.010  0.00  0.00    +0.012 C 
ATOM      6  C   UNL     1       0.002  -0.004   0.002  0.00  0.00    -0.022 C 
ATOM      7  C   UNL     1       0.719  -0.500  -1.252  0.00  0.00    +0.007 C 
ATOM      8  C   UNL     1       2.124   0.103  -1.315  0.00  0.00    +0.005 C 
ATOM      9  C   UNL     1       2.947  -0.385  -0.119  0.00  0.00    +0.030 C 
ATOM     10  C   UNL     1       2.187  -0.074   1.153  0.00  0.00    -0.073 C 
ATOM     11  C   UNL     1       2.762   0.560   2.144  0.00  0.00    +0.008 C 
ATOM     12  C   UNL     1       0.744  -0.516   1.245  0.00  0.00    +0.021 C 
ATOM     13  C   UNL     1       0.093   0.123   2.471  0.00  0.00    +0.016 C 
ATOM     14  C   UNL     1      -1.368  -0.240   2.570  0.00  0.00    +0.042 C 
ATOM     15  C   UNL     1      -2.163   0.002   1.272  0.00  0.00    +0.181 C 
ATOM     16  C   UNL     1      -1.427  -0.535   0.053  0.00  0.00    +0.052 C 
ATOM     17  O   UNL     1      -3.312  -0.866   1.477  0.00  0.00    -0.461 OA
ATOM     18  C   UNL     1      -2.858  -2.029   1.992  0.00  0.00    +0.309 C 
ATOM     19  O   UNL     1      -3.372  -3.112   1.845  0.00  0.00    -0.251 OA
ATOM     20  C   UNL     1      -1.595  -1.750   2.775  0.00  0.00    +0.088 C 
ENDBRANCH   4  20
ENDBRANCH   1   4
BRANCH   1  21
ATOM     21  C   UNL     1      -2.228  -3.822   5.838  0.00  0.00    -0.044 C 
BRANCH  21  22
ATOM     22  C   UNL     1      -2.448  -5.328   5.999  0.00  0.00    +0.135 C 
BRANCH  22  23
ATOM     23  O   UNL     1      -3.527  -5.744   5.160  0.00  0.00    -0.390 OA
ATOM     24  H   UNL     1      -4.369  -5.310   5.357  0.00  0.00    +0.210 HD
ENDBRANCH  22  23
BRANCH  22  25
ATOM     25  C   UNL     1      -2.787  -5.640   7.458  0.00  0.00    +0.258 C 
BRANCH  25  26
ATOM     26  O   UNL     1      -2.878  -7.056   7.633  0.00  0.00    -0.489 OA
BRANCH  26  27
ATOM     27  C   UNL     1      -3.174  -7.505   8.880  0.00  0.00    +0.128 A 
ATOM     28  C   UNL     1      -3.377  -6.618   9.901  0.00  0.00    +0.046 A 
ATOM     29  C   UNL     1      -3.681  -7.062  11.184  0.00  0.00    +0.004 A 
ATOM     30  C   UNL     1      -3.787  -8.392  11.461  0.00  0.00    +0.009 A 
ATOM     31  C   UNL     1      -3.586  -9.335  10.439  0.00  0.00    -0.014 A 
ATOM     32  C   UNL     1      -3.281  -8.888   9.130  0.00  0.00    +0.024 A 
ATOM     33  C   UNL     1      -3.085  -9.831   8.108  0.00  0.00    +0.012 A 
ATOM     34  C   UNL     1      -3.195 -11.159   8.386  0.00  0.00    +0.001 A 
ATOM     35  C   UNL     1      -3.500 -11.599   9.673  0.00  0.00    +0.001 A 
ATOM     36  C   UNL     1      -3.687 -10.714  10.690  0.00  0.00    +0.008 A 
ENDBRANCH  26  27
ENDBRANCH  25  26
ENDBRANCH  22  25
ENDBRANCH  21  22
ENDBRANCH   1  21
TORSDOF 8
