REMARK  Name = ZINC11814285
REMARK  11 active torsions:
REMARK  status: ('A' for Active; 'I' for Inactive)
REMARK    1  A    between atoms: C_1  and  N_72
REMARK    2  A    between atoms: C_2  and  C_3
REMARK    3  A    between atoms: C_2  and  N_72
REMARK    4  A    between atoms: C_6  and  O_9
REMARK    5  A    between atoms: O_9  and  C_10
REMARK    6  A    between atoms: C_16  and  C_18
REMARK    7  A    between atoms: C_19  and  C_20
REMARK    8  A    between atoms: C_23  and  O_26
REMARK    9  A    between atoms: O_26  and  C_27
REMARK   10  A    between atoms: C_28  and  C_29
REMARK   11  A    between atoms: C_28  and  N_72
REMARK                            x       y       z     vdW  Elec       q    Type
REMARK                         _______ _______ _______ _____ _____    ______ ____
ROOT
ATOM      1  C   UNL     1      -7.634   3.269  -2.758  0.00  0.00    -0.064 A 
ATOM      2  C   UNL     1      -7.894   2.023  -3.298  0.00  0.00    +0.005 A 
ATOM      3  C   UNL     1      -8.319   1.911  -4.608  0.00  0.00    +0.046 A 
ATOM      4  C   UNL     1      -8.473   3.050  -5.385  0.00  0.00    +0.121 A 
ATOM      5  C   UNL     1      -8.206   4.299  -4.843  0.00  0.00    +0.046 A 
ATOM      6  C   UNL     1      -7.788   4.406  -3.531  0.00  0.00    +0.005 A 
ENDROOT
BRANCH   1   7
ATOM      7  C   UNL     1      -7.177   3.389  -1.327  0.00  0.00    -0.043 C 
BRANCH   7   9
ATOM      8  C   UNL     1      -9.161   2.307  -0.456  0.00  0.00    -0.095 C 
ATOM      9  N   UNL     1      -8.363   3.552  -0.460  0.00  0.00    +0.384 N 
ATOM     10  H   UNL     1      -8.941   4.317  -0.826  0.00  0.00    -0.081 HD
BRANCH   9  11
ATOM     11  C   UNL     1      -7.940   3.885   0.917  0.00  0.00    -0.036 C 
BRANCH  11  12
ATOM     12  C   UNL     1      -9.158   4.261   1.722  0.00  0.00    -0.026 A 
ATOM     13  C   UNL     1      -9.943   3.463   2.460  0.00  0.00    +0.017 A 
ATOM     14  C   UNL     1     -11.080   4.036   3.165  0.00  0.00    -0.011 A 
ATOM     15  C   UNL     1     -12.028   3.388   3.991  0.00  0.00    +0.009 A 
ATOM     16  C   UNL     1     -13.036   4.090   4.575  0.00  0.00    +0.001 A 
ATOM     17  C   UNL     1     -13.172   5.459   4.386  0.00  0.00    +0.001 A 
ATOM     18  C   UNL     1     -12.266   6.128   3.587  0.00  0.00    +0.015 A 
ATOM     19  C   UNL     1     -11.244   5.427   2.985  0.00  0.00    +0.020 A 
ATOM     20  S   UNL     1      -9.897   5.871   1.919  0.00  0.00    -0.095 S 
ENDBRANCH  11  12
ENDBRANCH   9  11
ENDBRANCH   7   9
ENDBRANCH   1   7
BRANCH   4  21
ATOM     21  O   UNL     1      -8.886   2.942  -6.675  0.00  0.00    -0.489 OA
BRANCH  21  22
ATOM     22  C   UNL     1      -9.119   4.160  -7.386  0.00  0.00    +0.176 C 
ATOM     23  C   UNL     1     -10.531   4.666  -7.082  0.00  0.00    +0.063 C 
ATOM     24  C   UNL     1     -10.764   5.989  -7.817  0.00  0.00    +0.111 C 
ATOM     25  N   UNL     1     -10.489   5.790  -9.247  0.00  0.00    -0.298 N 
ATOM     26  C   UNL     1      -9.194   5.223  -9.645  0.00  0.00    +0.111 C 
ATOM     27  C   UNL     1      -8.978   3.909  -8.889  0.00  0.00    +0.063 C 
ATOM     28  C   UNL     1     -11.409   6.121 -10.175  0.00  0.00    +0.239 C 
ATOM     29  O   UNL     1     -11.212   5.859 -11.348  0.00  0.00    -0.271 OA
BRANCH  28  30
ATOM     30  C   UNL     1     -12.643   6.796  -9.775  0.00  0.00    +0.068 C 
ATOM     31  C   UNL     1     -13.517   7.218 -10.713  0.00  0.00    +0.013 C 
BRANCH  31  32
ATOM     32  C   UNL     1     -14.757   7.896 -10.310  0.00  0.00    -0.025 A 
ATOM     33  C   UNL     1     -15.037   8.102  -8.954  0.00  0.00    +0.011 A 
ATOM     34  C   UNL     1     -16.197   8.742  -8.582  0.00  0.00    +0.046 A 
ATOM     35  C   UNL     1     -17.096   9.175  -9.551  0.00  0.00    +0.120 A 
ATOM     36  C   UNL     1     -16.826   8.968 -10.899  0.00  0.00    +0.046 A 
ATOM     37  C   UNL     1     -15.665   8.334 -11.281  0.00  0.00    +0.011 A 
BRANCH  35  38
ATOM     38  O   UNL     1     -18.241   9.802  -9.179  0.00  0.00    -0.495 OA
ATOM     39  C   UNL     1     -18.456   9.982  -7.778  0.00  0.00    +0.277 C 
ENDBRANCH  35  38
ENDBRANCH  31  32
ENDBRANCH  28  30
ENDBRANCH  21  22
ENDBRANCH   4  21
TORSDOF 9
