REMARK  Name = ZINC59795184
REMARK  8 active torsions:
REMARK  status: ('A' for Active; 'I' for Inactive)
REMARK    1  A    between atoms: C_1  and  C_2
REMARK    2  A    between atoms: C_2  and  C_3
REMARK    3  A    between atoms: N_5  and  N_6
REMARK    4  A    between atoms: C_7  and  C_9
REMARK    5  A    between atoms: C_9  and  S_10
REMARK    6  A    between atoms: S_10  and  C_11
REMARK    7  A    between atoms: C_14  and  C_17
REMARK    8  A    between atoms: N_15  and  N_16
REMARK                            x       y       z     vdW  Elec       q    Type
REMARK                         _______ _______ _______ _____ _____    ______ ____
ROOT
ATOM      1  C   UNL     1       3.323  -6.352   5.449  0.00  0.00    +0.209 A 
ATOM      2  N   UNL     1       3.821  -5.512   6.328  0.00  0.00    -0.121 NA
ATOM      3  N   UNL     1       4.395  -6.157   7.279  0.00  0.00    -0.127 NA
ATOM      4  C   UNL     1       4.298  -7.449   7.066  0.00  0.00    +0.182 A 
ATOM      5  N   UNL     1       3.604  -7.613   5.889  0.00  0.00    -0.224 N 
ENDROOT
BRANCH   4   6
ATOM      6  C   UNL     1       4.830  -8.524   7.930  0.00  0.00    +0.021 A 
ATOM      7  C   UNL     1       4.941  -9.827   7.440  0.00  0.00    +0.013 A 
ATOM      8  C   UNL     1       5.438 -10.826   8.251  0.00  0.00    +0.021 A 
ATOM      9  C   UNL     1       5.827 -10.539   9.548  0.00  0.00    +0.041 A 
ATOM     10  C   UNL     1       5.719  -9.249  10.040  0.00  0.00    +0.021 A 
ATOM     11  C   UNL     1       5.229  -8.241   9.237  0.00  0.00    +0.013 A 
ATOM     12 CL   UNL     1       6.451 -11.802  10.563  0.00  0.00    -0.084 Cl
ENDBRANCH   4   6
BRANCH   5  13
ATOM     13  N   UNL     1       3.269  -8.792   5.287  0.00  0.00    -0.295 N 
ATOM     14  H   UNL     1       3.991  -9.091   4.649  0.00  0.00    +0.163 HD
ATOM     15  H   UNL     1       3.074  -9.507   5.973  0.00  0.00    +0.163 HD
ENDBRANCH   5  13
BRANCH   1  16
ATOM     16  S   UNL     1       2.448  -5.929   3.978  0.00  0.00    -0.075 S 
BRANCH  16  17
ATOM     17  C   UNL     1       2.424  -4.115   3.989  0.00  0.00    +0.174 C 
BRANCH  17  19
ATOM     18  N   UNL     1       1.552  -2.292   2.563  0.00  0.00    -0.234 N 
ATOM     19  C   UNL     1       1.695  -3.616   2.768  0.00  0.00    +0.239 C 
ATOM     20  O   UNL     1       1.237  -4.406   1.969  0.00  0.00    -0.273 OA
ATOM     21  H   UNL     1       1.918  -1.660   3.201  0.00  0.00    +0.173 HD
BRANCH  18  24
ATOM     22  C   UNL     1       0.731  -0.503   1.223  0.00  0.00    +0.229 C 
ATOM     23  O   UNL     1       1.189   0.287   2.021  0.00  0.00    -0.274 OA
ATOM     24  N   UNL     1       0.874  -1.828   1.428  0.00  0.00    -0.234 N 
ATOM     25  H   UNL     1       0.508  -2.459   0.789  0.00  0.00    +0.173 HD
BRANCH  22  27
ATOM     26  C   UNL     1      -0.019   1.526   0.010  0.00  0.00    +0.013 C 
ATOM     27  C   UNL     1       0.002  -0.004   0.002  0.00  0.00    +0.094 C 
ENDBRANCH  22  27
ENDBRANCH  18  24
ENDBRANCH  17  19
ENDBRANCH  16  17
ENDBRANCH   1  16
TORSDOF 7
