REMARK  Name = ZINC03655881
REMARK  3 active torsions:
REMARK  status: ('A' for Active; 'I' for Inactive)
REMARK    1  A    between atoms: C_2  and  C_3
REMARK    2  A    between atoms: C_3  and  N_4
REMARK    3  A    between atoms: C_11  and  C_15
REMARK                            x       y       z     vdW  Elec       q    Type
REMARK                         _______ _______ _______ _____ _____    ______ ____
ROOT
ATOM      1  N   UNL     1       9.210   5.149   1.972  0.00  0.00    -0.325 N 
ATOM      2  C   UNL     1       8.312   5.801   1.141  0.00  0.00    +0.137 A 
ATOM      3  C   UNL     1       7.028   5.308   0.954  0.00  0.00    +0.080 A 
ATOM      4  C   UNL     1       6.120   5.965   0.115  0.00  0.00    +0.093 A 
ATOM      5  C   UNL     1       4.787   5.346  -0.005  0.00  0.00    +0.037 A 
ATOM      6  C   UNL     1       3.694   5.804  -0.784  0.00  0.00    -0.030 A 
ATOM      7  C   UNL     1       2.534   5.097  -0.784  0.00  0.00    -0.018 A 
ATOM      8  C   UNL     1       2.425   3.938  -0.000  0.00  0.00    +0.076 A 
ATOM      9  N   UNL     1       3.448   3.515   0.727  0.00  0.00    -0.239 NA
ATOM     10  C   UNL     1       4.588   4.170   0.739  0.00  0.00    +0.112 A 
ATOM     11  S   UNL     1       6.136   3.906   1.568  0.00  0.00    -0.064 S 
ATOM     12  C   UNL     1       1.336   5.505  -1.602  0.00  0.00    +0.037 C 
ATOM     13  C   UNL     1       1.451   6.968  -2.028  0.00  0.00    +0.005 C 
ATOM     14  C   UNL     1       2.826   7.178  -2.674  0.00  0.00    +0.005 C 
ATOM     15  C   UNL     1       3.888   7.068  -1.576  0.00  0.00    +0.036 C 
ATOM     16  N   UNL     1       6.574   7.089  -0.486  0.00  0.00    -0.234 NA
ATOM     17  C   UNL     1       7.792   7.525  -0.286  0.00  0.00    +0.224 A 
ATOM     18  N   UNL     1       8.660   6.917   0.501  0.00  0.00    -0.220 NA
ATOM     19  H   UNL     1       8.944   4.337   2.432  0.00  0.00    +0.148 HD
ENDROOT
BRANCH   8  20
ATOM     20  C   UNL     1       1.153   3.175   0.008  0.00  0.00    +0.001 A 
ATOM     21  C   UNL     1       0.493   2.901  -1.189  0.00  0.00    +0.010 A 
ATOM     22  C   UNL     1      -0.690   2.191  -1.175  0.00  0.00    +0.001 A 
ATOM     23  C   UNL     1      -1.224   1.756   0.025  0.00  0.00    +0.000 A 
ATOM     24  C   UNL     1      -0.571   2.019   1.215  0.00  0.00    +0.001 A 
ATOM     25  C   UNL     1       0.613   2.728   1.213  0.00  0.00    +0.010 A 
ENDBRANCH   8  20
BRANCH   1  26
ATOM     26  C   UNL     1      10.560   5.686   2.157  0.00  0.00    +0.130 C 
BRANCH  26  28
ATOM     27  C   UNL     1      12.482   4.295   2.734  0.00  0.00    +0.005 C 
ATOM     28  C   UNL     1      11.329   4.798   3.101  0.00  0.00    -0.016 C 
ENDBRANCH  26  28
ENDBRANCH   1  26
TORSDOF 3
