REMARK  Name = ZINC32624551
REMARK  10 active torsions:
REMARK  status: ('A' for Active; 'I' for Inactive)
REMARK    1  A    between atoms: C_4  and  C_7
REMARK    2  A    between atoms: C_7  and  C_9
REMARK    3  A    between atoms: C_7  and  N_33
REMARK    4  A    between atoms: C_9  and  N_10
REMARK    5  A    between atoms: N_10  and  C_11
REMARK    6  A    between atoms: C_12  and  C_31
REMARK    7  A    between atoms: C_14  and  C_16
REMARK    8  A    between atoms: C_19  and  O_22
REMARK    9  A    between atoms: O_22  and  C_23
REMARK   10  A    between atoms: C_23  and  C_24
REMARK                            x       y       z     vdW  Elec       q    Type
REMARK                         _______ _______ _______ _____ _____    ______ ____
ROOT
ATOM      1  C   UNL     1       0.794  -6.312   0.190  0.00  0.00    +0.225 A 
ATOM      2  C   UNL     1      -0.592  -6.323   0.157  0.00  0.00    +0.201 A 
ATOM      3  N   UNL     1      -1.002  -5.042   0.357  0.00  0.00    -0.196 NA
ATOM      4  C   UNL     1       0.053  -4.282   0.495  0.00  0.00    +0.231 A 
ATOM      5  O   UNL     1       1.166  -5.035   0.400  0.00  0.00    -0.421 OA
ENDROOT
BRANCH   4   6
ATOM      6  C   UNL     1       0.029  -2.823   0.726  0.00  0.00    +0.037 A 
ATOM      7  C   UNL     1      -1.190  -2.147   0.806  0.00  0.00    +0.017 A 
ATOM      8  C   UNL     1      -1.208  -0.786   1.021  0.00  0.00    +0.046 A 
ATOM      9  C   UNL     1      -0.016  -0.086   1.158  0.00  0.00    +0.121 A 
ATOM     10  C   UNL     1       1.199  -0.754   1.073  0.00  0.00    +0.046 A 
ATOM     11  C   UNL     1       1.226  -2.116   0.864  0.00  0.00    +0.017 A 
BRANCH   9  12
ATOM     12  O   UNL     1      -0.038   1.255   1.369  0.00  0.00    -0.487 OA
BRANCH  12  13
ATOM     13  C   UNL     1       1.224   1.912   1.501  0.00  0.00    +0.266 C 
BRANCH  13  14
ATOM     14  C   UNL     1       1.003   3.385   1.728  0.00  0.00    +0.008 A 
ATOM     15  C   UNL     1      -0.282   3.892   1.774  0.00  0.00    +0.008 A 
ATOM     16  C   UNL     1      -0.486   5.242   1.987  0.00  0.00    +0.000 A 
ATOM     17  C   UNL     1       0.596   6.089   2.145  0.00  0.00    +0.001 A 
ATOM     18  C   UNL     1       1.881   5.584   2.094  0.00  0.00    +0.020 A 
ATOM     19  C   UNL     1       2.086   4.231   1.886  0.00  0.00    +0.047 A 
ATOM     20 CL   UNL     1       3.700   3.597   1.821  0.00  0.00    -0.083 Cl
ENDBRANCH  13  14
ENDBRANCH  12  13
ENDBRANCH   9  12
ENDBRANCH   4   6
BRANCH   1  21
ATOM     21  N   UNL     1       1.629  -7.397   0.036  0.00  0.00    -0.314 N 
ATOM     22  H   UNL     1       1.205  -8.398  -0.132  0.00  0.00    +0.149 HD
BRANCH  21  23
ATOM     23  C   UNL     1       3.082  -7.218   0.096  0.00  0.00    +0.094 C 
BRANCH  23  24
ATOM     24  C   UNL     1       3.767  -8.585   0.041  0.00  0.00    -0.020 C 
BRANCH  24  25
ATOM     25  N   UNL     1       5.224  -8.401   0.027  0.00  0.00    +0.385 N 
ATOM     26  C   UNL     1       5.639  -7.564  -1.106  0.00  0.00    -0.078 C 
ATOM     27  C   UNL     1       7.139  -7.276  -1.006  0.00  0.00    -0.019 C 
ATOM     28  C   UNL     1       7.910  -8.598  -1.015  0.00  0.00    -0.004 C 
ATOM     29  C   UNL     1       7.425  -9.471   0.146  0.00  0.00    -0.019 C 
ATOM     30  C   UNL     1       5.917  -9.696   0.013  0.00  0.00    -0.078 C 
ATOM     31  H   UNL     1       5.510  -7.879   0.952  0.00  0.00    -0.081 HD
ENDBRANCH  24  25
BRANCH  24  35
ATOM     32  C   UNL     1       2.651 -10.877   3.468  0.00  0.00    +0.000 A 
ATOM     33  C   UNL     1       2.029 -11.101   2.254  0.00  0.00    +0.000 A 
ATOM     34  C   UNL     1       2.390 -10.359   1.145  0.00  0.00    +0.002 A 
ATOM     35  C   UNL     1       3.373  -9.393   1.250  0.00  0.00    -0.059 A 
ATOM     36  C   UNL     1       3.999  -9.173   2.462  0.00  0.00    +0.002 A 
ATOM     37  C   UNL     1       3.635  -9.912   3.572  0.00  0.00    +0.000 A 
ENDBRANCH  24  35
ENDBRANCH  23  24
ENDBRANCH  21  23
ENDBRANCH   1  21
BRANCH   2  38
ATOM     38  C   UNL     1      -1.431  -7.466  -0.043  0.00  0.00    +0.124 C 
ATOM     39  N   UNL     1      -2.097  -8.373  -0.201  0.00  0.00    -0.189 NA
ENDBRANCH   2  38
TORSDOF 10
