REMARK  Name = ZINC02267304
REMARK  9 active torsions:
REMARK  status: ('A' for Active; 'I' for Inactive)
REMARK    1  A    between atoms: C_1  and  C_2
REMARK    2  A    between atoms: C_2  and  O_3
REMARK    3  A    between atoms: O_3  and  C_4
REMARK    4  A    between atoms: C_4  and  C_6
REMARK    5  A    between atoms: C_10  and  N_11
REMARK    6  A    between atoms: C_12  and  C_13
REMARK    7  A    between atoms: C_15  and  C_20
REMARK    8  A    between atoms: C_18  and  O_19
REMARK    9  A    between atoms: N_22  and  C_25
REMARK                            x       y       z     vdW  Elec       q    Type
REMARK                         _______ _______ _______ _____ _____    ______ ____
ROOT
ATOM      1  C   UNL     1       1.449  -2.344  -2.517  0.00  0.00    +0.095 A 
ATOM      2  C   UNL     1       2.829  -2.606  -2.502  0.00  0.00    -0.025 A 
ATOM      3  C   UNL     1       3.374  -3.107  -3.639  0.00  0.00    -0.021 A 
ATOM      4  S   UNL     1       2.014  -3.242  -4.765  0.00  0.00    -0.075 S 
ATOM      5  C   UNL     1       0.731  -2.623  -3.688  0.00  0.00    +0.115 A 
ATOM      6  C   UNL     1       4.811  -3.456  -3.861  0.00  0.00    -0.036 C 
ATOM      7  N   UNL     1       5.613  -2.829  -2.794  0.00  0.00    +0.381 N 
ATOM      8  C   UNL     1       5.021  -3.148  -1.489  0.00  0.00    -0.074 C 
ATOM      9  C   UNL     1       3.724  -2.359  -1.289  0.00  0.00    +0.018 C 
ATOM     10  C   UNL     1       6.988  -3.344  -2.848  0.00  0.00    -0.096 C 
ATOM     11  H   UNL     1       5.623  -1.829  -2.924  0.00  0.00    -0.082 HD
ENDROOT
BRANCH   1  12
ATOM     12  C   UNL     1       0.776  -1.800  -1.335  0.00  0.00    +0.342 C 
ATOM     13  O   UNL     1       0.312  -2.552  -0.499  0.00  0.00    -0.245 OA
BRANCH  12  14
ATOM     14  O   UNL     1       0.671  -0.465  -1.174  0.00  0.00    -0.461 OA
BRANCH  14  16
ATOM     15  C   UNL     1      -0.019   1.526   0.010  0.00  0.00    +0.048 C 
ATOM     16  C   UNL     1       0.002  -0.004   0.002  0.00  0.00    +0.229 C 
ENDBRANCH  14  16
ENDBRANCH  12  14
ENDBRANCH   1  12
BRANCH   5  17
ATOM     17  N   UNL     1      -0.587  -2.462  -3.937  0.00  0.00    -0.247 NA
ATOM     18  C   UNL     1      -1.075  -2.784  -5.107  0.00  0.00    +0.123 C 
BRANCH  18  19
ATOM     19  C   UNL     1      -2.507  -2.610  -5.378  0.00  0.00    +0.035 A 
ATOM     20  C   UNL     1      -3.035  -2.957  -6.627  0.00  0.00    +0.016 A 
ATOM     21  C   UNL     1      -4.380  -2.792  -6.873  0.00  0.00    -0.050 A 
ATOM     22  C   UNL     1      -5.214  -2.282  -5.891  0.00  0.00    +0.007 A 
ATOM     23  C   UNL     1      -4.707  -1.934  -4.654  0.00  0.00    +0.046 A 
ATOM     24  C   UNL     1      -3.357  -2.098  -4.384  0.00  0.00    +0.125 A 
ATOM     25  C   UNL     1      -4.948  -3.166  -8.218  0.00  0.00    +0.044 C 
BRANCH  24  26
ATOM     26  O   UNL     1      -2.859  -1.762  -3.167  0.00  0.00    -0.506 OA
ATOM     27  H   UNL     1      -2.560  -0.845  -3.104  0.00  0.00    +0.292 HD
ENDBRANCH  24  26
ENDBRANCH  18  19
ENDBRANCH   5  17
TORSDOF 6
