REMARK  Name = ZINC45632295
REMARK  8 active torsions:
REMARK  status: ('A' for Active; 'I' for Inactive)
REMARK    1  A    between atoms: C_1  and  C_2
REMARK    2  A    between atoms: C_4  and  C_14
REMARK    3  A    between atoms: N_16  and  C_17
REMARK    4  A    between atoms: N_16  and  C_24
REMARK    5  A    between atoms: C_17  and  C_18
REMARK    6  A    between atoms: C_25  and  N_40
REMARK    7  A    between atoms: N_26  and  C_33
REMARK    8  A    between atoms: C_33  and  C_34
REMARK                            x       y       z     vdW  Elec       q    Type
REMARK                         _______ _______ _______ _____ _____    ______ ____
ROOT
ATOM      1  C   UNL     1      -2.255  -0.059  -1.236  0.00  0.00    +0.265 C 
ATOM      2  O   UNL     1      -1.511  -0.408  -0.342  0.00  0.00    -0.271 OA
ATOM      3  N   UNL     1      -2.380   1.250  -1.536  0.00  0.00    -0.257 N 
ENDROOT
BRANCH   1   6
ATOM      4  C   UNL     1      -5.179   0.107  -1.496  0.00  0.00    +0.056 C 
ATOM      5  C   UNL     1      -4.441  -1.231  -1.408  0.00  0.00    +0.220 C 
ATOM      6  C   UNL     1      -3.037  -1.088  -2.010  0.00  0.00    +0.299 C 
ATOM      7  O   UNL     1      -2.381  -2.358  -1.925  0.00  0.00    -0.472 OA
ATOM      8  C   UNL     1      -3.102  -3.445  -2.316  0.00  0.00    +0.163 A 
ATOM      9  C   UNL     1      -2.442  -4.631  -2.605  0.00  0.00    +0.049 A 
ATOM     10  C   UNL     1      -3.160  -5.744  -3.000  0.00  0.00    +0.004 A 
ATOM     11  C   UNL     1      -4.537  -5.679  -3.107  0.00  0.00    +0.004 A 
ATOM     12  C   UNL     1      -5.200  -4.501  -2.821  0.00  0.00    +0.049 A 
ATOM     13  C   UNL     1      -4.485  -3.380  -2.427  0.00  0.00    +0.163 A 
ATOM     14  O   UNL     1      -5.152  -2.224  -2.156  0.00  0.00    -0.481 OA
ENDBRANCH   1   6
BRANCH   3  15
ATOM     15  C   UNL     1      -3.317   1.665  -2.507  0.00  0.00    +0.140 A 
ATOM     16  C   UNL     1      -4.362   2.498  -2.163  0.00  0.00    +0.128 A 
ATOM     17  N   UNL     1      -5.258   2.885  -3.131  0.00  0.00    -0.276 N 
ATOM     18  C   UNL     1      -5.119   2.456  -4.399  0.00  0.00    +0.331 A 
ATOM     19  O   UNL     1      -5.923   2.810  -5.240  0.00  0.00    -0.246 OA
ATOM     20  N   UNL     1      -4.107   1.644  -4.752  0.00  0.00    -0.273 N 
ATOM     21  H   UNL     1      -4.028   1.349  -5.673  0.00  0.00    +0.173 HD
ATOM     22  C   UNL     1      -3.199   1.240  -3.843  0.00  0.00    +0.277 A 
ATOM     23  O   UNL     1      -2.283   0.507  -4.175  0.00  0.00    -0.266 OA
BRANCH  16  24
ATOM     24  N   UNL     1      -4.504   2.936  -0.868  0.00  0.00    -0.343 N 
ATOM     25  H   UNL     1      -3.833   2.714  -0.204  0.00  0.00    +0.144 HD
ATOM     26  H   UNL     1      -5.277   3.468  -0.618  0.00  0.00    +0.144 HD
ENDBRANCH  16  24
BRANCH  17  27
ATOM     27  C   UNL     1      -6.372   3.770  -2.780  0.00  0.00    +0.163 C 
BRANCH  27  28
ATOM     28  C   UNL     1      -5.948   5.205  -2.954  0.00  0.00    -0.028 A 
ATOM     29  C   UNL     1      -5.370   5.888  -1.900  0.00  0.00    +0.005 A 
ATOM     30  C   UNL     1      -4.981   7.205  -2.059  0.00  0.00    +0.000 A 
ATOM     31  C   UNL     1      -5.170   7.839  -3.273  0.00  0.00    +0.000 A 
ATOM     32  C   UNL     1      -5.747   7.156  -4.327  0.00  0.00    +0.000 A 
ATOM     33  C   UNL     1      -6.132   5.838  -4.170  0.00  0.00    +0.005 A 
ENDBRANCH  27  28
ENDBRANCH  17  27
ENDBRANCH   3  15
BRANCH   3  34
ATOM     34  C   UNL     1      -1.544   2.242  -0.855  0.00  0.00    +0.149 C 
BRANCH  34  35
ATOM     35  C   UNL     1      -0.223   2.361  -1.570  0.00  0.00    -0.030 A 
ATOM     36  C   UNL     1       0.808   1.492  -1.266  0.00  0.00    +0.005 A 
ATOM     37  C   UNL     1       2.020   1.602  -1.922  0.00  0.00    +0.000 A 
ATOM     38  C   UNL     1       2.201   2.580  -2.881  0.00  0.00    +0.000 A 
ATOM     39  C   UNL     1       1.169   3.449  -3.185  0.00  0.00    +0.000 A 
ATOM     40  C   UNL     1      -0.044   3.337  -2.533  0.00  0.00    +0.005 A 
ENDBRANCH  34  35
ENDBRANCH   3  34
TORSDOF 7
