REMARK  Name = ZINC10059377
REMARK  11 active torsions:
REMARK  status: ('A' for Active; 'I' for Inactive)
REMARK    1  A    between atoms: C_1  and  C_2
REMARK    2  A    between atoms: C_2  and  C_3
REMARK    3  A    between atoms: C_2  and  C_4
REMARK    4  A    between atoms: C_2  and  C_5
REMARK    5  A    between atoms: C_14  and  O_35
REMARK    6  A    between atoms: C_16  and  C_19
REMARK    7  A    between atoms: C_22  and  O_27
REMARK    8  A    between atoms: C_23  and  O_25
REMARK    9  A    between atoms: O_25  and  C_26
REMARK   10  A    between atoms: O_27  and  C_28
REMARK   11  A    between atoms: C_28  and  C_30
REMARK                            x       y       z     vdW  Elec       q    Type
REMARK                         _______ _______ _______ _____ _____    ______ ____
ROOT
ATOM      1  C   UNL     1      -8.743  -1.567  -6.875  0.00  0.00    -0.000 C 
ATOM      2  C   UNL     1     -10.078  -0.974  -6.414  0.00  0.00    +0.009 C 
ATOM      3  C   UNL     1      -9.887  -0.227  -5.093  0.00  0.00    +0.037 C 
ATOM      4  C   UNL     1      -9.198  -1.154  -4.098  0.00  0.00    -0.023 A 
ATOM      5  C   UNL     1      -8.533  -2.253  -4.522  0.00  0.00    -0.004 A 
ATOM      6  S   UNL     1      -7.911  -3.008  -3.043  0.00  0.00    -0.078 S 
ATOM      7  C   UNL     1      -8.521  -1.892  -1.898  0.00  0.00    +0.080 A 
ATOM      8  C   UNL     1      -9.202  -0.937  -2.662  0.00  0.00    +0.068 A 
ATOM      9  C   UNL     1      -9.847   0.185  -1.932  0.00  0.00    +0.220 C 
ATOM     10  N   UNL     1      -9.573   0.322  -0.664  0.00  0.00    -0.223 NA
ATOM     11  C   UNL     1      -8.604  -0.483   0.069  0.00  0.00    +0.224 C 
ATOM     12  N   UNL     1      -8.446  -1.823  -0.528  0.00  0.00    -0.313 N 
ATOM     13  C   UNL     1      -8.365  -2.720  -5.934  0.00  0.00    +0.046 C 
ATOM     14  H   UNL     1      -8.297  -2.611   0.017  0.00  0.00    +0.149 HD
ENDROOT
BRANCH  11  15
ATOM     15  C   UNL     1      -7.272   0.220   0.058  0.00  0.00    -0.002 A 
ATOM     16  C   UNL     1      -6.103  -0.516   0.102  0.00  0.00    +0.011 A 
ATOM     17  C   UNL     1      -4.878   0.124   0.087  0.00  0.00    +0.050 A 
ATOM     18  C   UNL     1      -4.820   1.508   0.040  0.00  0.00    +0.173 A 
ATOM     19  C   UNL     1      -5.997   2.249  -0.005  0.00  0.00    +0.163 A 
ATOM     20  C   UNL     1      -7.221   1.601   0.005  0.00  0.00    +0.056 A 
BRANCH  19  21
ATOM     21  O   UNL     1      -5.946   3.607  -0.057  0.00  0.00    -0.491 OA
ATOM     22  C   UNL     1      -7.193   4.302  -0.100  0.00  0.00    +0.277 C 
ENDBRANCH  19  21
BRANCH  18  23
ATOM     23  O   UNL     1      -3.616   2.140   0.030  0.00  0.00    -0.418 OA
BRANCH  23  24
ATOM     24  C   UNL     1      -3.128   2.545   1.221  0.00  0.00    +0.351 C 
ATOM     25  O   UNL     1      -3.800   2.423   2.227  0.00  0.00    -0.244 OA
BRANCH  24  26
ATOM     26  C   UNL     1      -1.789   3.131   1.302  0.00  0.00    +0.097 A 
ATOM     27  C   UNL     1      -1.108   3.606   2.413  0.00  0.00    +0.022 A 
ATOM     28  C   UNL     1       0.153   4.106   2.207  0.00  0.00    +0.008 A 
ATOM     29  C   UNL     1       0.664   4.117   0.948  0.00  0.00    +0.046 A 
ATOM     30  S   UNL     1      -0.609   3.424  -0.003  0.00  0.00    -0.090 S 
ENDBRANCH  24  26
ENDBRANCH  23  24
ENDBRANCH  18  23
ENDBRANCH  11  15
BRANCH   1  32
ATOM     31  C   UNL     1      -9.276  -0.946  -9.235  0.00  0.00    +0.011 C 
ATOM     32  C   UNL     1      -8.882  -2.094  -8.304  0.00  0.00    -0.035 C 
ATOM     33  C   UNL     1      -7.547  -2.686  -8.761  0.00  0.00    +0.011 C 
ATOM     34  C   UNL     1      -9.960  -3.178  -8.345  0.00  0.00    +0.011 C 
ENDBRANCH   1  32
BRANCH   9  35
ATOM     35  O   UNL     1     -10.689   1.036  -2.562  0.00  0.00    -0.492 OA
ATOM     36  H   UNL     1     -11.050   1.727  -1.990  0.00  0.00    +0.294 HD
ENDBRANCH   9  35
TORSDOF 7
