REMARK  Name = ZINC56127492
REMARK  5 active torsions:
REMARK  status: ('A' for Active; 'I' for Inactive)
REMARK    1  A    between atoms: C_1  and  C_2
REMARK    2  A    between atoms: C_3  and  S_8
REMARK    3  A    between atoms: C_4  and  C_7
REMARK    4  A    between atoms: S_8  and  N_11
REMARK    5  A    between atoms: C_15  and  C_17
REMARK                            x       y       z     vdW  Elec       q    Type
REMARK                         _______ _______ _______ _____ _____    ______ ____
ROOT
ATOM      1  N   UNL     1       1.570  -0.091  -3.285  0.00  0.00    -0.169 NA
ATOM      2  C   UNL     1       2.376   1.135  -3.145  0.00  0.00    +0.110 C 
ATOM      3  C   UNL     1       3.845   0.644  -3.126  0.00  0.00    +0.019 C 
ATOM      4  C   UNL     1       3.797  -0.523  -4.148  0.00  0.00    +0.027 C 
ATOM      5  C   UNL     1       2.400  -1.133  -3.906  0.00  0.00    +0.110 C 
ENDROOT
BRANCH   5   6
ATOM      6  C   UNL     1       1.794  -1.555  -5.220  0.00  0.00    -0.029 A 
ATOM      7  C   UNL     1       1.246  -0.607  -6.064  0.00  0.00    +0.006 A 
ATOM      8  C   UNL     1       0.691  -0.994  -7.270  0.00  0.00    +0.015 A 
ATOM      9  C   UNL     1       0.683  -2.329  -7.631  0.00  0.00    +0.018 A 
ATOM     10  C   UNL     1       1.232  -3.277  -6.786  0.00  0.00    +0.015 A 
ATOM     11  C   UNL     1       1.792  -2.889  -5.583  0.00  0.00    +0.006 A 
ATOM     12 BR   UNL     1      -0.077  -2.859  -9.279  0.00  0.00    -0.050 Br
ENDBRANCH   5   6
BRANCH   1  13
ATOM     13  S   UNL     1      -0.008  -0.267  -2.813  0.00  0.00    +0.066 S 
ATOM     14  O   UNL     1      -0.547  -1.328  -3.589  0.00  0.00    -0.153 OA
ATOM     15  O   UNL     1      -0.577   1.035  -2.802  0.00  0.00    -0.153 OA
BRANCH  13  18
ATOM     16  C   UNL     1      -0.018   1.503   0.010  0.00  0.00    +0.071 C 
ATOM     17  C   UNL     1       0.002  -0.004   0.002  0.00  0.00    +0.107 A 
ATOM     18  C   UNL     1       0.008  -0.824  -1.141  0.00  0.00    +0.170 A 
ATOM     19  C   UNL     1       0.027  -2.108  -0.735  0.00  0.00    +0.161 A 
ATOM     20  O   UNL     1       0.034  -2.119   0.606  0.00  0.00    -0.358 OA
ATOM     21  N   UNL     1       0.023  -0.775   1.052  0.00  0.00    -0.081 NA
ATOM     22  C   UNL     1       0.039  -3.320  -1.631  0.00  0.00    +0.091 C 
ENDBRANCH  13  18
ENDBRANCH   1  13
TORSDOF 3
