REMARK  Name = ZINC28923140
REMARK  5 active torsions:
REMARK  status: ('A' for Active; 'I' for Inactive)
REMARK    1  A    between atoms: C_1  and  C_2
REMARK    2  A    between atoms: C_4  and  C_32
REMARK    3  A    between atoms: C_14  and  C_17
REMARK    4  A    between atoms: N_22  and  C_23
REMARK    5  A    between atoms: C_29  and  C_31
REMARK                            x       y       z     vdW  Elec       q    Type
REMARK                         _______ _______ _______ _____ _____    ______ ____
ROOT
ATOM      1  C   UNL     1      -4.026   4.923   0.733  0.00  0.00    +0.044 C 
ATOM      2  C   UNL     1      -3.861   4.024   1.931  0.00  0.00    -0.037 A 
ATOM      3  C   UNL     1      -4.026   4.486   3.223  0.00  0.00    +0.025 A 
ATOM      4  C   UNL     1      -3.876   3.660   4.323  0.00  0.00    +0.014 A 
ATOM      5  N   UNL     1      -3.564   2.376   4.207  0.00  0.00    -0.353 N 
ATOM      6  C   UNL     1      -3.396   1.891   2.997  0.00  0.00    +0.088 A 
ATOM      7  C   UNL     1      -3.529   2.650   1.801  0.00  0.00    +0.030 A 
ATOM      8  C   UNL     1      -3.309   1.929   0.563  0.00  0.00    +0.058 A 
ATOM      9  C   UNL     1      -2.979   0.582   0.691  0.00  0.00    +0.097 A 
ATOM     10  S   UNL     1      -2.978   0.269   2.430  0.00  0.00    -0.064 S 
ATOM     11  C   UNL     1      -2.708  -0.267  -0.397  0.00  0.00    +0.254 C 
ATOM     12  O   UNL     1      -2.606  -1.474  -0.274  0.00  0.00    -0.270 OA
ATOM     13  N   UNL     1      -2.568   0.358  -1.598  0.00  0.00    -0.287 N 
ATOM     14  C   UNL     1      -2.485   1.816  -1.653  0.00  0.00    +0.209 C 
ATOM     15  N   UNL     1      -3.404   2.477  -0.727  0.00  0.00    -0.319 N 
ATOM     16  C   UNL     1      -4.074   4.240   5.700  0.00  0.00    +0.063 C 
ATOM     17  H   UNL     1      -2.518  -0.231  -2.525  0.00  0.00    +0.151 HD
ATOM     18  H   UNL     1      -4.052   3.292  -1.082  0.00  0.00    +0.148 HD
ATOM     19  H   UNL     1      -3.454   1.753   5.107  0.00  0.00    +0.166 HD
ENDROOT
BRANCH  14  20
ATOM     20  C   UNL     1      -1.076   2.234  -1.320  0.00  0.00    +0.089 A 
ATOM     21  C   UNL     1      -0.032   1.400  -1.550  0.00  0.00    +0.075 A 
ATOM     22  S   UNL     1       1.330   2.409  -0.984  0.00  0.00    -0.060 S 
ATOM     23  C   UNL     1       0.400   3.795  -0.505  0.00  0.00    +0.172 A 
ATOM     24  N   UNL     1      -0.830   3.418  -0.794  0.00  0.00    -0.226 NA
ATOM     25  N   UNL     1       0.840   4.996   0.043  0.00  0.00    -0.219 N 
ATOM     26  C   UNL     1      -0.054   5.915   0.458  0.00  0.00    +0.223 C 
ATOM     27  O   UNL     1      -1.240   5.660   0.439  0.00  0.00    -0.275 OA
ATOM     28  C   UNL     1       0.419   7.261   0.945  0.00  0.00    +0.110 C 
BRANCH  25  29
ATOM     29  C   UNL     1       2.212   5.250   0.163  0.00  0.00    +0.043 A 
ATOM     30  C   UNL     1       2.865   6.018  -0.792  0.00  0.00    +0.024 A 
ATOM     31  C   UNL     1       4.217   6.269  -0.668  0.00  0.00    +0.002 A 
ATOM     32  C   UNL     1       4.923   5.750   0.401  0.00  0.00    +0.000 A 
ATOM     33  C   UNL     1       4.277   4.981   1.352  0.00  0.00    +0.002 A 
ATOM     34  C   UNL     1       2.924   4.730   1.236  0.00  0.00    +0.024 A 
ENDBRANCH  25  29
ENDBRANCH  14  20
TORSDOF 2
