REMARK  Name = ZINC32978287
REMARK  6 active torsions:
REMARK  status: ('A' for Active; 'I' for Inactive)
REMARK    1  A    between atoms: C_1  and  N_2
REMARK    2  A    between atoms: N_11  and  N_12
REMARK    3  A    between atoms: C_13  and  C_15
REMARK    4  A    between atoms: C_15  and  N_16
REMARK    5  A    between atoms: N_16  and  S_17
REMARK    6  A    between atoms: S_17  and  C_20
REMARK                            x       y       z     vdW  Elec       q    Type
REMARK                         _______ _______ _______ _____ _____    ______ ____
ROOT
ATOM      1  N   UNL     1      -0.011   0.966   0.007  0.00  0.00    -0.203 N 
ATOM      2  C   UNL     1       1.145   1.654   0.000  0.00  0.00    +0.248 C 
ATOM      3  O   UNL     1       1.128   2.868   0.007  0.00  0.00    -0.273 OA
ATOM      4  H   UNL     1       0.004  -0.134   0.006  0.00  0.00    +0.177 HD
ENDROOT
BRANCH   1  15
ATOM      5  C   UNL     1      -3.897   2.907   0.036  0.00  0.00    +0.151 C 
ATOM      6  N   UNL     1      -3.650   1.463   0.027  0.00  0.00    -0.321 N 
ATOM      7  C   UNL     1      -4.714   0.574   0.027  0.00  0.00    +0.057 A 
ATOM      8  C   UNL     1      -6.084   0.886   0.035  0.00  0.00    +0.027 A 
ATOM      9  C   UNL     1      -7.035  -0.108   0.033  0.00  0.00    +0.002 A 
ATOM     10  C   UNL     1      -6.675  -1.444   0.023  0.00  0.00    +0.001 A 
ATOM     11  C   UNL     1      -5.332  -1.780   0.015  0.00  0.00    +0.017 A 
ATOM     12  C   UNL     1      -4.382  -0.787   0.018  0.00  0.00    +0.039 A 
ATOM     13  S   UNL     1      -2.605  -0.786   0.002  0.00  0.00    -0.048 S 
ATOM     14  C   UNL     1      -2.355   0.982   0.019  0.00  0.00    +0.191 A 
ATOM     15  N   UNL     1      -1.234   1.650   0.017  0.00  0.00    -0.154 NA
ENDBRANCH   1  15
BRANCH   2  16
ATOM     16  C   UNL     1       2.460   0.919  -0.017  0.00  0.00    +0.203 C 
BRANCH  16  17
ATOM     17  N   UNL     1       3.560   1.886  -0.022  0.00  0.00    -0.181 NA
ATOM     18  H   UNL     1       3.400   2.899  -0.417  0.00  0.00    +0.149 HD
BRANCH  17  19
ATOM     19  S   UNL     1       5.100   1.390   0.332  0.00  0.00    +0.065 S 
ATOM     20  O   UNL     1       5.932   2.536   0.219  0.00  0.00    -0.153 OA
ATOM     21  O   UNL     1       5.016   0.624   1.526  0.00  0.00    -0.153 OA
BRANCH  19  22
ATOM     22  C   UNL     1       5.596   0.280  -0.943  0.00  0.00    +0.142 A 
ATOM     23  C   UNL     1       6.223   0.550  -2.114  0.00  0.00    +0.036 A 
ATOM     24  C   UNL     1       6.519  -0.492  -2.973  0.00  0.00    +0.010 A 
ATOM     25  C   UNL     1       6.172  -1.754  -2.619  0.00  0.00    +0.047 A 
ATOM     26  S   UNL     1       5.409  -1.494  -1.026  0.00  0.00    -0.077 S 
ENDBRANCH  19  22
ENDBRANCH  17  19
ENDBRANCH  16  17
ENDBRANCH   2  16
TORSDOF 5
