REMARK  Name = ZINC39012718
REMARK  7 active torsions:
REMARK  status: ('A' for Active; 'I' for Inactive)
REMARK    1  A    between atoms: C_1  and  C_2
REMARK    2  A    between atoms: C_9  and  C_14
REMARK    3  A    between atoms: C_12  and  C_13
REMARK    4  A    between atoms: C_14  and  N_16
REMARK    5  A    between atoms: C_20  and  C_23
REMARK    6  A    between atoms: C_23  and  C_24
REMARK    7  A    between atoms: C_23  and  C_25
REMARK                            x       y       z     vdW  Elec       q    Type
REMARK                         _______ _______ _______ _____ _____    ______ ____
ROOT
ATOM      1  C   UNL     1      -0.018   1.503   0.010  0.00  0.00    +0.044 C 
ATOM      2  C   UNL     1       0.002  -0.004   0.002  0.00  0.00    -0.044 A 
ATOM      3  C   UNL     1       0.006  -0.683  -1.208  0.00  0.00    +0.004 A 
ATOM      4  C   UNL     1       0.021  -2.050  -1.234  0.00  0.00    +0.015 A 
ATOM      5  C   UNL     1       0.032  -2.761  -0.036  0.00  0.00    +0.064 A 
ATOM      6  C   UNL     1       0.034  -4.238  -0.014  0.00  0.00    +0.193 A 
ATOM      7  O   UNL     1       0.252  -4.899  -1.014  0.00  0.00    -0.287 OA
ATOM      8  C   UNL     1      -0.243  -4.864   1.289  0.00  0.00    +0.103 A 
ATOM      9  C   UNL     1      -0.217  -4.081   2.396  0.00  0.00    +0.196 A 
ATOM     10  O   UNL     1       0.063  -2.772   2.351  0.00  0.00    -0.450 OA
ATOM     11  C   UNL     1       0.036  -2.083   1.195  0.00  0.00    +0.143 A 
ATOM     12  C   UNL     1       0.023  -0.691   1.196  0.00  0.00    -0.005 A 
ATOM     13  C   UNL     1       0.025   0.063   2.501  0.00  0.00    +0.048 C 
ENDROOT
BRANCH   9  14
ATOM     14  C   UNL     1      -0.510  -4.700   3.711  0.00  0.00    +0.305 C 
ATOM     15  O   UNL     1      -0.768  -5.888   3.781  0.00  0.00    -0.265 OA
BRANCH  14  16
ATOM     16  N   UNL     1      -0.492  -3.951   4.824  0.00  0.00    -0.147 NA
ATOM     17  C   UNL     1      -0.754  -4.503   5.997  0.00  0.00    +0.204 C 
ATOM     18  N   UNL     1      -0.787  -3.901   7.228  0.00  0.00    -0.129 NA
ATOM     19  N   UNL     1      -1.037  -4.472   8.269  0.00  0.00    -0.170 NA
ATOM     20  C   UNL     1      -1.319  -5.922   8.152  0.00  0.00    +0.195 C 
ATOM     21  S   UNL     1      -1.133  -6.113   6.330  0.00  0.00    -0.058 S 
BRANCH  20  22
ATOM     22  C   UNL     1      -0.288  -6.755   8.916  0.00  0.00    +0.020 C 
ATOM     23  C   UNL     1      -0.344  -6.399  10.403  0.00  0.00    +0.010 C 
ATOM     24  C   UNL     1      -0.600  -8.242   8.736  0.00  0.00    +0.010 C 
ENDBRANCH  20  22
ENDBRANCH  14  16
ENDBRANCH   9  14
TORSDOF 3
