REMARK  Name = ZINC22923222
REMARK  7 active torsions:
REMARK  status: ('A' for Active; 'I' for Inactive)
REMARK    1  A    between atoms: C_10  and  C_11
REMARK    2  A    between atoms: C_11  and  N_12
REMARK    3  A    between atoms: N_15  and  C_18
REMARK    4  A    between atoms: C_18  and  C_19
REMARK    5  A    between atoms: N_21  and  C_22
REMARK    6  A    between atoms: C_22  and  C_23
REMARK    7  A    between atoms: C_23  and  C_24
REMARK                            x       y       z     vdW  Elec       q    Type
REMARK                         _______ _______ _______ _____ _____    ______ ____
ROOT
ATOM      1  N   UNL     1       5.209   0.714   1.292  0.00  0.00    -0.302 NA
ATOM      2  C   UNL     1       4.137   1.639   1.687  0.00  0.00    +0.066 C 
ATOM      3  C   UNL     1       4.403   2.145   3.107  0.00  0.00    -0.063 C 
ATOM      4  N   UNL     1       5.702   2.828   3.148  0.00  0.00    +0.387 N 
ATOM      5  C   UNL     1       6.765   1.885   2.775  0.00  0.00    -0.063 C 
ATOM      6  C   UNL     1       6.519   1.377   1.353  0.00  0.00    +0.066 C 
ATOM      7  H   UNL     1       5.696   3.602   2.500  0.00  0.00    -0.081 HD
ENDROOT
BRANCH   1   8
ATOM      8  C   UNL     1       4.960   0.161  -0.046  0.00  0.00    +0.120 C 
BRANCH   8  18
ATOM      9  C   UNL     1       4.367  -4.622   1.679  0.00  0.00    +0.001 A 
ATOM     10  C   UNL     1       5.432  -3.724   1.625  0.00  0.00    +0.001 A 
ATOM     11  C   UNL     1       5.275  -2.483   1.089  0.00  0.00    +0.009 A 
ATOM     12  C   UNL     1       4.022  -2.098   0.582  0.00  0.00    -0.013 A 
ATOM     13  C   UNL     1       2.940  -3.011   0.637  0.00  0.00    -0.018 A 
ATOM     14  C   UNL     1       3.140  -4.284   1.198  0.00  0.00    +0.008 A 
ATOM     15  C   UNL     1       1.687  -2.626   0.130  0.00  0.00    +0.008 A 
ATOM     16  C   UNL     1       1.531  -1.384  -0.406  0.00  0.00    +0.001 A 
ATOM     17  C   UNL     1       2.595  -0.487  -0.461  0.00  0.00    +0.005 A 
ATOM     18  C   UNL     1       3.822  -0.825   0.021  0.00  0.00    -0.026 A 
ENDBRANCH   8  18
ENDBRANCH   1   8
BRANCH   4  19
ATOM     19  C   UNL     1       5.948   3.330   4.507  0.00  0.00    +0.019 C 
BRANCH  19  20
ATOM     20  C   UNL     1       7.222   4.136   4.522  0.00  0.00    +0.196 C 
ATOM     21  O   UNL     1       7.862   4.278   3.501  0.00  0.00    -0.278 OA
ATOM     22  N   UNL     1       7.650   4.698   5.669  0.00  0.00    -0.317 N 
ATOM     23  H   UNL     1       7.138   4.585   6.485  0.00  0.00    +0.149 HD
BRANCH  22  24
ATOM     24  C   UNL     1       8.888   5.481   5.684  0.00  0.00    +0.108 C 
BRANCH  24  25
ATOM     25  C   UNL     1       9.144   6.004   7.099  0.00  0.00    +0.049 C 
BRANCH  25  26
ATOM     26  C   UNL     1      10.418   6.810   7.114  0.00  0.00    -0.072 C 
ATOM     27  C   UNL     1      10.325   8.094   6.981  0.00  0.00    -0.028 C 
ATOM     28  C   UNL     1      11.502   9.025   6.966  0.00  0.00    +0.027 C 
ATOM     29  C   UNL     1      12.735   8.325   7.542  0.00  0.00    +0.004 C 
ATOM     30  C   UNL     1      12.884   6.962   6.853  0.00  0.00    +0.005 C 
ATOM     31  C   UNL     1      11.714   6.074   7.286  0.00  0.00    +0.030 C 
ENDBRANCH  25  26
ENDBRANCH  24  25
ENDBRANCH  22  24
ENDBRANCH  19  20
ENDBRANCH   4  19
TORSDOF 7
