REMARK  Name = ZINC00648838
REMARK  6 active torsions:
REMARK  status: ('A' for Active; 'I' for Inactive)
REMARK    1  A    between atoms: C_1  and  C_2
REMARK    2  A    between atoms: C_2  and  C_3
REMARK    3  A    between atoms: C_6  and  N_9
REMARK    4  A    between atoms: C_13  and  N_17
REMARK    5  A    between atoms: N_26  and  C_27
REMARK    6  A    between atoms: C_27  and  C_28
REMARK                            x       y       z     vdW  Elec       q    Type
REMARK                         _______ _______ _______ _____ _____    ______ ____
ROOT
ATOM      1  N   UNL     1       2.659  -1.835  -4.668  0.00  0.00    -0.209 N 
ATOM      2  C   UNL     1       2.007  -2.162  -5.791  0.00  0.00    +0.228 C 
ATOM      3  O   UNL     1       0.806  -2.109  -5.946  0.00  0.00    -0.275 OA
ATOM      4  C   UNL     1       3.008  -2.607  -6.835  0.00  0.00    +0.128 C 
ATOM      5  C   UNL     1       4.365  -2.479  -6.113  0.00  0.00    +0.169 C 
ATOM      6  C   UNL     1       3.989  -1.970  -4.739  0.00  0.00    +0.247 C 
ATOM      7  O   UNL     1       4.768  -1.725  -3.843  0.00  0.00    -0.273 OA
ENDROOT
BRANCH   5   8
ATOM      8  N   UNL     1       5.226  -1.515  -6.801  0.00  0.00    -0.304 N 
ATOM      9  C   UNL     1       6.597  -1.604  -6.679  0.00  0.00    +0.175 A 
ATOM     10  N   UNL     1       7.232  -2.512  -5.980  0.00  0.00    -0.327 N 
ATOM     11  C   UNL     1       8.572  -2.307  -6.078  0.00  0.00    +0.065 A 
ATOM     12  C   UNL     1       9.684  -2.964  -5.545  0.00  0.00    +0.028 A 
ATOM     13  C   UNL     1      10.951  -2.506  -5.833  0.00  0.00    +0.002 A 
ATOM     14  C   UNL     1      11.131  -1.398  -6.647  0.00  0.00    +0.002 A 
ATOM     15  C   UNL     1      10.043  -0.738  -7.180  0.00  0.00    +0.028 A 
ATOM     16  C   UNL     1       8.760  -1.186  -6.902  0.00  0.00    +0.068 A 
ATOM     17  N   UNL     1       7.494  -0.763  -7.273  0.00  0.00    -0.314 N 
ATOM     18  H   UNL     1       4.832  -0.813  -7.343  0.00  0.00    +0.150 HD
ATOM     19  H   UNL     1       6.811  -3.221  -5.471  0.00  0.00    +0.169 HD
BRANCH  17  20
ATOM     20  C   UNL     1       7.176   0.375  -8.139  0.00  0.00    +0.122 C 
ATOM     21  C   UNL     1       7.019   1.636  -7.287  0.00  0.00    +0.027 C 
ENDBRANCH  17  20
ENDBRANCH   5   8
BRANCH   1  25
ATOM     22  C   UNL     1       0.707  -0.488  -1.239  0.00  0.00    -0.048 A 
ATOM     23  C   UNL     1       1.525   0.371  -1.950  0.00  0.00    +0.005 A 
ATOM     24  C   UNL     1       2.173  -0.072  -3.086  0.00  0.00    +0.024 A 
ATOM     25  C   UNL     1       2.002  -1.382  -3.514  0.00  0.00    +0.044 A 
ATOM     26  C   UNL     1       1.181  -2.242  -2.799  0.00  0.00    +0.024 A 
ATOM     27  C   UNL     1       0.539  -1.795  -1.660  0.00  0.00    +0.005 A 
BRANCH  22  29
ATOM     28  C   UNL     1       0.892  -0.240   1.221  0.00  0.00    +0.009 C 
ATOM     29  C   UNL     1       0.001  -0.002   0.000  0.00  0.00    +0.032 C 
ENDBRANCH  22  29
ENDBRANCH   1  25
TORSDOF 4
