REMARK  Name = ZINC35701101
REMARK  13 active torsions:
REMARK  status: ('A' for Active; 'I' for Inactive)
REMARK    1  A    between atoms: C_1  and  C_2
REMARK    2  A    between atoms: C_3  and  C_32
REMARK    3  A    between atoms: C_4  and  C_23
REMARK    4  A    between atoms: C_7  and  C_12
REMARK    5  A    between atoms: C_13  and  N_15
REMARK    6  A    between atoms: N_15  and  C_16
REMARK    7  A    between atoms: C_16  and  C_17
REMARK    8  A    between atoms: C_26  and  N_29
REMARK    9  A    between atoms: C_32  and  O_34
REMARK   10  A    between atoms: O_34  and  C_35
REMARK   11  A    between atoms: C_35  and  C_36
REMARK   12  A    between atoms: C_36  and  O_37
REMARK   13  A    between atoms: O_37  and  C_38
REMARK                            x       y       z     vdW  Elec       q    Type
REMARK                         _______ _______ _______ _____ _____    ______ ____
ROOT
ATOM      1  C   UNL     1      -0.026   1.556   0.215  0.00  0.00    +0.066 C 
ATOM      2  C   UNL     1      -0.021   0.050   0.160  0.00  0.00    +0.053 C 
ATOM      3  C   UNL     1      -1.217  -0.640   0.143  0.00  0.00    +0.082 C 
ATOM      4  C   UNL     1      -1.159  -2.151   0.087  0.00  0.00    +0.150 C 
ATOM      5  N   UNL     1       0.191  -2.775   0.054  0.00  0.00    -0.267 N 
ATOM      6  C   UNL     1       0.481  -4.124   0.001  0.00  0.00    +0.048 C 
ATOM      7  C   UNL     1       1.784  -4.484  -0.022  0.00  0.00    +0.072 C 
ATOM      8  S   UNL     1       2.604  -2.903   0.030  0.00  0.00    -0.060 S 
ATOM      9  C   UNL     1       1.251  -1.912   0.077  0.00  0.00    +0.166 C 
ATOM     10  N   UNL     1       1.130  -0.601   0.122  0.00  0.00    -0.230 NA
ENDROOT
BRANCH   4  11
ATOM     11  C   UNL     1      -1.907  -2.599  -1.142  0.00  0.00    -0.022 A 
ATOM     12  C   UNL     1      -1.343  -2.432  -2.393  0.00  0.00    +0.008 A 
ATOM     13  C   UNL     1      -2.029  -2.842  -3.521  0.00  0.00    +0.033 A 
ATOM     14  C   UNL     1      -3.279  -3.420  -3.397  0.00  0.00    +0.126 A 
ATOM     15  C   UNL     1      -3.842  -3.588  -2.146  0.00  0.00    +0.033 A 
ATOM     16  C   UNL     1      -3.154  -3.182  -1.018  0.00  0.00    +0.008 A 
BRANCH  14  17
ATOM     17  N   UNL     1      -4.014  -3.859  -4.605  0.00  0.00    +0.056 N 
ATOM     18  O   UNL     1      -3.522  -3.712  -5.699  0.00  0.00    -0.126 OA
ATOM     19  O   UNL     1      -5.107  -4.365  -4.497  0.00  0.00    -0.126 OA
ENDBRANCH  14  17
ENDBRANCH   4  11
BRANCH   6  20
ATOM     20  C   UNL     1      -0.588  -5.132  -0.027  0.00  0.00    +0.091 C 
ATOM     21  C   UNL     1      -0.282  -6.440   0.068  0.00  0.00    +0.239 C 
ATOM     22  O   UNL     1       0.993  -6.822   0.325  0.00  0.00    -0.271 OA
BRANCH  21  23
ATOM     23  N   UNL     1      -1.271  -7.396  -0.095  0.00  0.00    -0.309 N 
ATOM     24  H   UNL     1      -2.196  -7.123  -0.205  0.00  0.00    +0.149 HD
BRANCH  23  25
ATOM     25  C   UNL     1      -0.921  -8.818  -0.102  0.00  0.00    +0.136 C 
BRANCH  25  26
ATOM     26  C   UNL     1      -2.166  -9.649  -0.420  0.00  0.00    +0.135 C 
ATOM     27  C   UNL     1      -1.825 -11.160  -0.399  0.00  0.00    +0.035 C 
ATOM     28  C   UNL     1      -3.219 -11.772  -0.090  0.00  0.00    +0.031 C 
ATOM     29  C   UNL     1      -3.847 -10.707   0.835  0.00  0.00    +0.160 C 
ATOM     30  O   UNL     1      -3.159  -9.471   0.603  0.00  0.00    -0.375 OA
ENDBRANCH  25  26
ENDBRANCH  23  25
ENDBRANCH  21  23
ENDBRANCH   6  20
BRANCH   3  31
ATOM     31  C   UNL     1      -2.443   0.035   0.178  0.00  0.00    +0.339 C 
ATOM     32  O   UNL     1      -2.466   1.253   0.224  0.00  0.00    -0.245 OA
BRANCH  31  33
ATOM     33  O   UNL     1      -3.600  -0.663   0.161  0.00  0.00    -0.459 OA
BRANCH  33  34
ATOM     34  C   UNL     1      -4.813   0.091   0.199  0.00  0.00    +0.260 C 
BRANCH  34  35
ATOM     35  C   UNL     1      -6.008  -0.864   0.173  0.00  0.00    +0.200 C 
BRANCH  35  36
ATOM     36  O   UNL     1      -6.015  -1.651   1.365  0.00  0.00    -0.380 OA
ATOM     37  C   UNL     1      -7.097  -2.581   1.442  0.00  0.00    +0.194 C 
ENDBRANCH  35  36
ENDBRANCH  34  35
ENDBRANCH  33  34
ENDBRANCH  31  33
ENDBRANCH   3  31
TORSDOF 11
