REMARK  Name = ZINC64131488
REMARK  9 active torsions:
REMARK  status: ('A' for Active; 'I' for Inactive)
REMARK    1  A    between atoms: C_1  and  C_2
REMARK    2  A    between atoms: C_2  and  C_3
REMARK    3  A    between atoms: C_3  and  C_5
REMARK    4  A    between atoms: C_3  and  C_6
REMARK    5  A    between atoms: C_6  and  C_7
REMARK    6  A    between atoms: C_11  and  S_15
REMARK    7  A    between atoms: S_15  and  C_16
REMARK    8  A    between atoms: C_16  and  C_17
REMARK    9  A    between atoms: C_24  and  C_26
REMARK                            x       y       z     vdW  Elec       q    Type
REMARK                         _______ _______ _______ _____ _____    ______ ____
ROOT
ATOM      1  C   UNL     1       1.325  -2.870  -2.647  0.00  0.00    -0.042 C 
ATOM      2  C   UNL     1       2.571  -3.359  -2.653  0.00  0.00    +0.071 C 
ATOM      3  C   UNL     1       3.064  -3.969  -3.909  0.00  0.00    +0.112 C 
ATOM      4  N   UNL     1       4.272  -4.465  -3.980  0.00  0.00    -0.217 NA
ATOM      5  C   UNL     1       5.095  -4.438  -2.931  0.00  0.00    +0.182 C 
ATOM      6  N   UNL     1       4.760  -3.918  -1.762  0.00  0.00    -0.151 NA
ATOM      7  C   UNL     1       3.566  -3.375  -1.531  0.00  0.00    +0.272 C 
ATOM      8  O   UNL     1       3.290  -2.904  -0.440  0.00  0.00    -0.268 OA
ATOM      9  S   UNL     1       1.708  -3.817  -5.045  0.00  0.00    -0.098 S 
ATOM     10  C   UNL     1       0.516  -2.984  -3.919  0.00  0.00    +0.076 C 
ATOM     11  C   UNL     1       0.137  -1.601  -4.452  0.00  0.00    +0.024 C 
ENDROOT
BRANCH   1  12
ATOM     12  C   UNL     1       0.745  -2.232  -1.410  0.00  0.00    +0.036 C 
BRANCH  12  13
ATOM     13  C   UNL     1      -0.077  -3.268  -0.640  0.00  0.00    -0.010 C 
ATOM     14  C   UNL     1       0.850  -4.364  -0.112  0.00  0.00    +0.008 C 
BRANCH  13  16
ATOM     15  C   UNL     1      -1.702  -3.594   1.229  0.00  0.00    +0.004 C 
ATOM     16  C   UNL     1      -0.783  -2.588   0.534  0.00  0.00    +0.000 C 
ENDBRANCH  13  16
ENDBRANCH  12  13
ENDBRANCH   1  12
BRANCH   5  17
ATOM     17  S   UNL     1       6.706  -5.128  -3.112  0.00  0.00    -0.079 S 
BRANCH  17  18
ATOM     18  C   UNL     1       7.472  -4.886  -1.485  0.00  0.00    +0.173 C 
BRANCH  18  19
ATOM     19  C   UNL     1       8.873  -5.439  -1.502  0.00  0.00    +0.231 C 
ATOM     20  O   UNL     1       9.312  -5.947  -2.512  0.00  0.00    -0.274 OA
ATOM     21  N   UNL     1       9.639  -5.370  -0.395  0.00  0.00    -0.240 N 
ATOM     22  C   UNL     1      10.892  -5.866  -0.410  0.00  0.00    +0.303 C 
ATOM     23  O   UNL     1      11.332  -6.374  -1.423  0.00  0.00    -0.253 OA
ATOM     24  N   UNL     1      11.658  -5.797   0.697  0.00  0.00    -0.313 N 
ATOM     25  H   UNL     1       9.288  -4.965   0.413  0.00  0.00    +0.159 HD
ATOM     26  H   UNL     1      11.307  -5.391   1.505  0.00  0.00    +0.146 HD
ATOM     27  H   UNL     1      12.560  -6.153   0.686  0.00  0.00    +0.146 HD
ENDBRANCH  18  19
ENDBRANCH  17  18
ENDBRANCH   5  17
TORSDOF 6
