REMARK  Name = ZINC64155663
REMARK  3 active torsions:
REMARK  status: ('A' for Active; 'I' for Inactive)
REMARK    1  A    between atoms: C_10  and  S_11
REMARK    2  A    between atoms: S_11  and  N_14
REMARK    3  A    between atoms: C_20  and  C_22
REMARK                            x       y       z     vdW  Elec       q    Type
REMARK                         _______ _______ _______ _____ _____    ______ ____
ROOT
ATOM      1  N   UNL     1      -0.311   0.117  -2.144  0.00  0.00    -0.174 NA
ATOM      2  C   UNL     1      -1.133   1.065  -2.909  0.00  0.00    +0.128 C 
ATOM      3  C   UNL     1      -0.930   0.794  -4.405  0.00  0.00    +0.125 C 
ATOM      4  N   UNL     1      -1.097  -0.646  -4.648  0.00  0.00    -0.295 N 
ATOM      5  C   UNL     1      -0.275  -1.594  -3.883  0.00  0.00    +0.125 C 
ATOM      6  C   UNL     1      -0.474  -1.322  -2.391  0.00  0.00    +0.128 C 
ATOM      7  C   UNL     1      -1.989  -1.089  -5.556  0.00  0.00    +0.253 C 
ATOM      8  O   UNL     1      -2.038  -2.274  -5.832  0.00  0.00    -0.269 OA
ENDROOT
BRANCH   7   9
ATOM      9  C   UNL     1      -2.898  -0.145  -6.212  0.00  0.00    +0.075 A 
ATOM     10  C   UNL     1      -3.462  -0.210  -7.473  0.00  0.00    +0.024 A 
ATOM     11  C   UNL     1      -4.297   0.835  -7.840  0.00  0.00    -0.036 A 
ATOM     12  C   UNL     1      -4.481   1.825  -6.919  0.00  0.00    -0.006 A 
ATOM     13  S   UNL     1      -3.573   1.383  -5.588  0.00  0.00    -0.088 S 
ATOM     14  C   UNL     1      -5.329   3.052  -7.078  0.00  0.00    +0.043 C 
ATOM     15  C   UNL     1      -5.664   3.222  -8.566  0.00  0.00    +0.005 C 
ATOM     16  C   UNL     1      -6.155   1.880  -9.117  0.00  0.00    +0.005 C 
ATOM     17  C   UNL     1      -4.989   0.894  -9.199  0.00  0.00    +0.036 C 
ENDBRANCH   7   9
BRANCH   1  18
ATOM     18  S   UNL     1       0.784   0.662  -1.028  0.00  0.00    +0.061 S 
ATOM     19  O   UNL     1       0.993  -0.402  -0.110  0.00  0.00    -0.153 OA
ATOM     20  O   UNL     1       0.340   1.947  -0.616  0.00  0.00    -0.153 OA
BRANCH  18  30
ATOM     21  C   UNL     1       2.590   2.205  -2.471  0.00  0.00    +0.030 A 
ATOM     22  C   UNL     1       3.740   2.457  -3.132  0.00  0.00    +0.027 A 
ATOM     23  C   UNL     1       4.745   1.404  -3.259  0.00  0.00    +0.056 A 
ATOM     24  N   UNL     1       5.927   1.317  -3.815  0.00  0.00    -0.268 N 
ATOM     25  C   UNL     1       6.412   0.047  -3.608  0.00  0.00    +0.308 C 
ATOM     26  O   UNL     1       7.486  -0.361  -3.996  0.00  0.00    -0.252 OA
ATOM     27  N   UNL     1       5.498  -0.690  -2.893  0.00  0.00    -0.267 N 
ATOM     28  C   UNL     1       4.459   0.068  -2.645  0.00  0.00    +0.058 A 
ATOM     29  C   UNL     1       3.189  -0.120  -1.947  0.00  0.00    +0.053 A 
ATOM     30  C   UNL     1       2.312   0.905  -1.873  0.00  0.00    +0.107 A 
ATOM     31  H   UNL     1       5.604  -1.614  -2.619  0.00  0.00    +0.156 HD
ATOM     32  H   UNL     1       6.383   2.027  -4.294  0.00  0.00    +0.156 HD
ENDBRANCH  18  30
ENDBRANCH   1  18
TORSDOF 3
