REMARK  Name = ZINC49442738
REMARK  7 active torsions:
REMARK  status: ('A' for Active; 'I' for Inactive)
REMARK    1  A    between atoms: C_1  and  C_2
REMARK    2  A    between atoms: C_5  and  C_34
REMARK    3  A    between atoms: C_9  and  O_11
REMARK    4  A    between atoms: O_11  and  C_12
REMARK    5  A    between atoms: C_18  and  C_20
REMARK    6  A    between atoms: N_23  and  S_26
REMARK    7  A    between atoms: S_26  and  C_29
REMARK                            x       y       z     vdW  Elec       q    Type
REMARK                         _______ _______ _______ _____ _____    ______ ____
ROOT
ATOM      1  C   UNL     1      -0.953  -0.433   6.286  0.00  0.00    +0.179 C 
ATOM      2  C   UNL     1      -2.105  -1.397   6.578  0.00  0.00    +0.063 C 
ATOM      3  C   UNL     1      -1.546  -2.676   7.210  0.00  0.00    +0.111 C 
ATOM      4  N   UNL     1      -0.750  -2.312   8.390  0.00  0.00    -0.301 N 
ATOM      5  C   UNL     1       0.326  -1.323   8.239  0.00  0.00    +0.111 C 
ATOM      6  C   UNL     1      -0.254  -0.059   7.595  0.00  0.00    +0.063 C 
ATOM      7  C   UNL     1      -1.002  -2.874   9.589  0.00  0.00    +0.219 C 
ATOM      8  O   UNL     1      -1.943  -3.628   9.719  0.00  0.00    -0.275 OA
ENDROOT
BRANCH   7   9
ATOM      9  C   UNL     1      -0.115  -2.566  10.767  0.00  0.00    +0.078 C 
ATOM     10  C   UNL     1       1.135  -3.447  10.709  0.00  0.00    +0.030 C 
ATOM     11  C   UNL     1       2.051  -3.107  11.889  0.00  0.00    +0.110 C 
ATOM     12  N   UNL     1       1.282  -3.231  13.135  0.00  0.00    -0.176 NA
ATOM     13  C   UNL     1       0.017  -2.495  13.261  0.00  0.00    +0.110 C 
ATOM     14  C   UNL     1      -0.876  -2.843  12.065  0.00  0.00    +0.030 C 
BRANCH  12  15
ATOM     15  S   UNL     1       1.832  -4.182  14.374  0.00  0.00    +0.067 S 
ATOM     16  O   UNL     1       0.694  -4.545  15.143  0.00  0.00    -0.152 OA
ATOM     17  O   UNL     1       2.697  -5.147  13.792  0.00  0.00    -0.152 OA
BRANCH  15  18
ATOM     18  C   UNL     1       2.834  -3.165  15.406  0.00  0.00    +0.143 A 
ATOM     19  C   UNL     1       2.474  -2.422  16.481  0.00  0.00    +0.036 A 
ATOM     20  C   UNL     1       3.442  -1.694  17.148  0.00  0.00    +0.010 A 
ATOM     21  C   UNL     1       4.722  -1.745  16.707  0.00  0.00    +0.047 A 
ATOM     22  S   UNL     1       4.590  -2.852  15.313  0.00  0.00    -0.077 S 
ENDBRANCH  15  18
ENDBRANCH  12  15
ENDBRANCH   7   9
BRANCH   1  23
ATOM     23  O   UNL     1      -1.467   0.748   5.667  0.00  0.00    -0.468 OA
BRANCH  23  32
ATOM     24  C   UNL     1      -2.943   3.842   1.652  0.00  0.00    +0.046 C 
ATOM     25  C   UNL     1      -2.422   2.500   1.207  0.00  0.00    -0.024 A 
ATOM     26  C   UNL     1      -2.369   2.203  -0.130  0.00  0.00    +0.006 A 
ATOM     27  C   UNL     1      -1.897   0.979  -0.583  0.00  0.00    +0.005 A 
ATOM     28  C   UNL     1      -1.470   0.037   0.335  0.00  0.00    -0.035 A 
ATOM     29  C   UNL     1      -1.519   0.326   1.676  0.00  0.00    +0.046 A 
ATOM     30  C   UNL     1      -1.989   1.563   2.173  0.00  0.00    +0.085 A 
ATOM     31  N   UNL     1      -1.970   1.698   3.517  0.00  0.00    -0.206 NA
ATOM     32  C   UNL     1      -1.541   0.750   4.316  0.00  0.00    +0.258 A 
ATOM     33  S   UNL     1      -1.092  -0.542   3.166  0.00  0.00    -0.029 S 
ATOM     34  C   UNL     1      -0.953  -1.299  -0.134  0.00  0.00    +0.045 C 
ENDBRANCH  23  32
ENDBRANCH   1  23
TORSDOF 5
