REMARK  Name = ZINC20717234
REMARK  6 active torsions:
REMARK  status: ('A' for Active; 'I' for Inactive)
REMARK    1  A    between atoms: C_1  and  C_2
REMARK    2  A    between atoms: C_14  and  O_34
REMARK    3  A    between atoms: C_17  and  C_19
REMARK    4  A    between atoms: C_24  and  O_25
REMARK    5  A    between atoms: O_25  and  C_26
REMARK    6  A    between atoms: C_26  and  C_27
REMARK                            x       y       z     vdW  Elec       q    Type
REMARK                         _______ _______ _______ _____ _____    ______ ____
ROOT
ATOM      1  C   UNL     1      -0.163   1.565  -0.025  0.00  0.00    +0.068 C 
ATOM      2  C   UNL     1      -0.142   0.059   0.005  0.00  0.00    +0.067 A 
ATOM      3  C   UNL     1      -0.171  -0.782  -1.124  0.00  0.00    +0.037 A 
ATOM      4  C   UNL     1      -0.134  -2.076  -0.681  0.00  0.00    +0.167 A 
ATOM      5  N   UNL     1      -0.092  -2.018   0.701  0.00  0.00    -0.179 N 
ATOM      6  N   UNL     1      -0.089  -0.676   1.079  0.00  0.00    -0.167 NA
ATOM      7  C   UNL     1      -0.053  -3.111   1.564  0.00  0.00    +0.253 A 
ATOM      8  N   UNL     1      -0.050  -4.334   1.058  0.00  0.00    -0.219 NA
ATOM      9  C   UNL     1      -0.013  -5.394   1.849  0.00  0.00    +0.116 A 
ATOM     10  C   UNL     1       0.022  -5.211   3.222  0.00  0.00    +0.039 A 
ATOM     11  C   UNL     1       0.018  -3.917   3.718  0.00  0.00    +0.116 A 
ATOM     12  N   UNL     1      -0.014  -2.901   2.870  0.00  0.00    -0.219 NA
ATOM     13  N   UNL     1      -0.126  -3.249  -1.334  0.00  0.00    -0.197 NA
ATOM     14  C   UNL     1      -0.150  -3.625  -2.529  0.00  0.00    +0.199 C 
ATOM     15  C   UNL     1      -0.263  -2.830  -3.771  0.00  0.00    +0.165 C 
ATOM     16  S   UNL     1       0.645  -1.280  -3.702  0.00  0.00    -0.138 S 
ATOM     17  C   UNL     1      -0.235  -0.248  -2.523  0.00  0.00    +0.116 C 
ENDROOT
BRANCH  17  18
ATOM     18  C   UNL     1       0.365   1.134  -2.545  0.00  0.00    +0.012 A 
ATOM     19  C   UNL     1       1.720   1.303  -2.338  0.00  0.00    +0.008 A 
ATOM     20  C   UNL     1       2.271   2.571  -2.357  0.00  0.00    +0.001 A 
ATOM     21  C   UNL     1       1.467   3.673  -2.583  0.00  0.00    +0.004 A 
ATOM     22  C   UNL     1       0.112   3.510  -2.790  0.00  0.00    +0.046 A 
ATOM     23  C   UNL     1      -0.443   2.237  -2.777  0.00  0.00    +0.126 A 
BRANCH  23  24
ATOM     24  O   UNL     1      -1.775   2.074  -2.987  0.00  0.00    -0.487 OA
BRANCH  24  25
ATOM     25  C   UNL     1      -2.546   3.254  -3.220  0.00  0.00    +0.266 C 
BRANCH  25  26
ATOM     26  C   UNL     1      -3.990   2.879  -3.430  0.00  0.00    +0.008 A 
ATOM     27  C   UNL     1      -4.375   1.552  -3.372  0.00  0.00    +0.008 A 
ATOM     28  C   UNL     1      -5.699   1.208  -3.565  0.00  0.00    +0.000 A 
ATOM     29  C   UNL     1      -6.640   2.189  -3.815  0.00  0.00    +0.001 A 
ATOM     30  C   UNL     1      -6.257   3.516  -3.873  0.00  0.00    +0.020 A 
ATOM     31  C   UNL     1      -4.932   3.862  -3.675  0.00  0.00    +0.047 A 
ATOM     32 CL   UNL     1      -4.450   5.529  -3.741  0.00  0.00    -0.083 Cl
ENDBRANCH  25  26
ENDBRANCH  24  25
ENDBRANCH  23  24
ENDBRANCH  17  18
BRANCH  14  33
ATOM     33  O   UNL     1      -0.060  -4.958  -2.711  0.00  0.00    -0.495 OA
ATOM     34  H   UNL     1       0.013  -5.463  -1.889  0.00  0.00    +0.293 HD
ENDBRANCH  14  33
TORSDOF 5
