REMARK  Name = ZINC02667759
REMARK  9 active torsions:
REMARK  status: ('A' for Active; 'I' for Inactive)
REMARK    1  A    between atoms: C_1  and  C_2
REMARK    2  A    between atoms: C_2  and  O_3
REMARK    3  A    between atoms: O_3  and  C_4
REMARK    4  A    between atoms: C_4  and  C_6
REMARK    5  A    between atoms: C_7  and  C_33
REMARK    6  A    between atoms: C_11  and  C_20
REMARK    7  A    between atoms: C_12  and  O_19
REMARK    8  A    between atoms: C_20  and  C_22
REMARK    9  A    between atoms: C_20  and  N_62
REMARK                            x       y       z     vdW  Elec       q    Type
REMARK                         _______ _______ _______ _____ _____    ______ ____
ROOT
ATOM      1  C   UNL     1       5.336   3.310   3.603  0.00  0.00    +0.108 A 
ATOM      2  C   UNL     1       5.808   4.291   4.423  0.00  0.00    +0.117 A 
ATOM      3  O   UNL     1       5.258   5.462   4.085  0.00  0.00    -0.459 OA
ATOM      4  C   UNL     1       4.411   5.324   3.046  0.00  0.00    +0.144 A 
ATOM      5  C   UNL     1       4.401   3.981   2.676  0.00  0.00    +0.040 A 
ATOM      6  C   UNL     1       3.603   3.531   1.614  0.00  0.00    -0.003 A 
ATOM      7  C   UNL     1       2.823   4.401   0.915  0.00  0.00    +0.127 A 
ATOM      8  C   UNL     1       2.803   5.770   1.264  0.00  0.00    +0.027 A 
ATOM      9  C   UNL     1       3.603   6.237   2.335  0.00  0.00    +0.029 A 
ATOM     10  C   UNL     1       3.579   7.599   2.671  0.00  0.00    +0.012 A 
ATOM     11  C   UNL     1       2.788   8.455   1.965  0.00  0.00    +0.001 A 
ATOM     12  C   UNL     1       2.001   7.997   0.912  0.00  0.00    +0.001 A 
ATOM     13  C   UNL     1       2.001   6.681   0.559  0.00  0.00    +0.012 A 
ATOM     14  C   UNL     1       6.799   4.086   5.540  0.00  0.00    +0.087 C 
ENDROOT
BRANCH   1  15
ATOM     15  C   UNL     1       5.684   1.883   3.633  0.00  0.00    +0.343 C 
ATOM     16  O   UNL     1       6.621   1.472   2.976  0.00  0.00    -0.245 OA
BRANCH  15  17
ATOM     17  O   UNL     1       4.966   1.030   4.390  0.00  0.00    -0.461 OA
BRANCH  17  19
ATOM     18  C   UNL     1       4.442  -1.174   5.283  0.00  0.00    +0.048 C 
ATOM     19  C   UNL     1       5.367  -0.366   4.372  0.00  0.00    +0.229 C 
ENDBRANCH  17  19
ENDBRANCH  15  17
ENDBRANCH   1  15
BRANCH   7  20
ATOM     20  O   UNL     1       2.060   3.951  -0.115  0.00  0.00    -0.506 OA
ATOM     21  H   UNL     1       1.184   3.640   0.151  0.00  0.00    +0.292 HD
ENDBRANCH   7  20
BRANCH   6  22
ATOM     22  C   UNL     1       3.615   2.072   1.238  0.00  0.00    -0.002 C 
BRANCH  22  28
ATOM     23  C   UNL     1       2.206   0.172   0.724  0.00  0.00    -0.078 C 
ATOM     24  C   UNL     1       0.766  -0.252   0.426  0.00  0.00    -0.019 C 
ATOM     25  C   UNL     1      -0.102   0.001   1.663  0.00  0.00    -0.004 C 
ATOM     26  C   UNL     1      -0.016   1.482   2.041  0.00  0.00    -0.019 C 
ATOM     27  C   UNL     1       1.446   1.856   2.292  0.00  0.00    -0.078 C 
ATOM     28  N   UNL     1       2.223   1.612   1.058  0.00  0.00    +0.387 N 
ATOM     29  H   UNL     1       1.795   2.138   0.286  0.00  0.00    -0.080 HD
ENDBRANCH  22  28
BRANCH  22  30
ATOM     30  C   UNL     1       4.359   1.894  -0.060  0.00  0.00    -0.057 A 
ATOM     31  C   UNL     1       3.694   2.038  -1.264  0.00  0.00    +0.002 A 
ATOM     32  C   UNL     1       4.378   1.879  -2.454  0.00  0.00    +0.000 A 
ATOM     33  C   UNL     1       5.724   1.565  -2.442  0.00  0.00    +0.000 A 
ATOM     34  C   UNL     1       6.388   1.416  -1.239  0.00  0.00    +0.000 A 
ATOM     35  C   UNL     1       5.705   1.580  -0.048  0.00  0.00    +0.002 A 
ENDBRANCH  22  30
ENDBRANCH   6  22
TORSDOF 7
