REMARK  Name = ZINC67298644
REMARK  5 active torsions:
REMARK  status: ('A' for Active; 'I' for Inactive)
REMARK    1  A    between atoms: C_5  and  N_7
REMARK    2  A    between atoms: C_9  and  C_19
REMARK    3  A    between atoms: C_14  and  O_18
REMARK    4  A    between atoms: N_21  and  C_22
REMARK    5  A    between atoms: C_22  and  C_23
REMARK                            x       y       z     vdW  Elec       q    Type
REMARK                         _______ _______ _______ _____ _____    ______ ____
ROOT
ATOM      1  N   UNL     1       1.275  -2.057   0.037  0.00  0.00    -0.324 N 
ATOM      2  C   UNL     1       0.147  -2.728   0.124  0.00  0.00    +0.212 A 
ATOM      3  C   UNL     1       0.139  -4.202   0.205  0.00  0.00    +0.097 A 
ATOM      4  C   UNL     1      -0.954  -4.802   0.815  0.00  0.00    +0.030 A 
ATOM      5  C   UNL     1      -1.998  -3.967   1.288  0.00  0.00    +0.018 A 
ATOM      6  C   UNL     1      -3.023  -4.497   2.086  0.00  0.00    +0.015 A 
ATOM      7  C   UNL     1      -4.000  -3.678   2.570  0.00  0.00    +0.046 A 
ATOM      8  C   UNL     1      -3.992  -2.316   2.273  0.00  0.00    +0.120 A 
ATOM      9  C   UNL     1      -2.998  -1.778   1.470  0.00  0.00    +0.092 A 
ATOM     10  C   UNL     1      -2.003  -2.597   0.963  0.00  0.00    +0.141 A 
ATOM     11  O   UNL     1      -1.051  -2.089   0.147  0.00  0.00    -0.438 OA
ATOM     12  H   UNL     1       2.121  -2.532   0.008  0.00  0.00    +0.169 HD
ENDROOT
BRANCH   1  17
ATOM     13  C   UNL     1       0.422   1.345  -0.979  0.00  0.00    +0.002 A 
ATOM     14  C   UNL     1       1.217   2.078  -0.116  0.00  0.00    +0.002 A 
ATOM     15  C   UNL     1       2.032   1.434   0.799  0.00  0.00    +0.022 A 
ATOM     16  C   UNL     1       2.057   0.055   0.856  0.00  0.00    +0.064 A 
ATOM     17  C   UNL     1       1.256  -0.691  -0.013  0.00  0.00    +0.060 A 
ATOM     18  C   UNL     1       0.436  -0.034  -0.934  0.00  0.00    +0.027 A 
ATOM     19 CL   UNL     1       3.080  -0.750   2.003  0.00  0.00    -0.081 Cl
ENDBRANCH   1  17
BRANCH   3  20
ATOM     20  C   UNL     1       1.246  -5.004  -0.340  0.00  0.00    +0.249 C 
ATOM     21  O   UNL     1       2.222  -4.452  -0.812  0.00  0.00    -0.270 OA
ATOM     22  N   UNL     1       1.179  -6.350  -0.316  0.00  0.00    -0.309 N 
ATOM     23  H   UNL     1       0.432  -6.790   0.118  0.00  0.00    +0.149 HD
BRANCH  22  24
ATOM     24  C   UNL     1       2.234  -7.147  -0.947  0.00  0.00    +0.136 C 
BRANCH  24  25
ATOM     25  C   UNL     1       1.918  -8.635  -0.779  0.00  0.00    +0.135 C 
ATOM     26  C   UNL     1       3.083  -9.483  -1.333  0.00  0.00    +0.035 C 
ATOM     27  C   UNL     1       2.336 -10.657  -2.023  0.00  0.00    +0.031 C 
ATOM     28  C   UNL     1       1.067  -9.934  -2.542  0.00  0.00    +0.160 C 
ATOM     29  O   UNL     1       0.742  -8.970  -1.525  0.00  0.00    -0.375 OA
ENDBRANCH  24  25
ENDBRANCH  22  24
ENDBRANCH   3  20
BRANCH   8  30
ATOM     30  O   UNL     1      -4.965  -1.512   2.772  0.00  0.00    -0.507 OA
ATOM     31  H   UNL     1      -4.752  -1.125   3.632  0.00  0.00    +0.292 HD
ENDBRANCH   8  30
TORSDOF 5
