REMARK  Name = ZINC08959850
REMARK  5 active torsions:
REMARK  status: ('A' for Active; 'I' for Inactive)
REMARK    1  A    between atoms: C_1  and  C_2
REMARK    2  A    between atoms: C_2  and  C_27
REMARK    3  A    between atoms: C_8  and  N_14
REMARK    4  A    between atoms: C_15  and  C_17
REMARK    5  A    between atoms: C_22  and  N_23
REMARK                            x       y       z     vdW  Elec       q    Type
REMARK                         _______ _______ _______ _____ _____    ______ ____
ROOT
ATOM      1  C   UNL     1       4.179   0.715  -0.150  0.00  0.00    +0.024 C 
ATOM      2  C   UNL     1       3.834   2.084  -0.741  0.00  0.00    +0.076 C 
ATOM      3  C   UNL     1       3.070   2.905   0.297  0.00  0.00    +0.244 C 
ATOM      4  O   UNL     1       1.721   2.455   0.393  0.00  0.00    -0.489 OA
ATOM      5  C   UNL     1       1.514   1.112   0.418  0.00  0.00    +0.142 A 
ATOM      6  C   UNL     1       1.187   0.475   1.604  0.00  0.00    +0.049 A 
ATOM      7  C   UNL     1       0.984  -0.891   1.622  0.00  0.00    +0.027 A 
ATOM      8  C   UNL     1       1.107  -1.631   0.453  0.00  0.00    +0.036 A 
ATOM      9  C   UNL     1       1.432  -0.998  -0.739  0.00  0.00    +0.050 A 
ATOM     10  C   UNL     1       1.634   0.372  -0.757  0.00  0.00    +0.077 A 
ATOM     11  N   UNL     1       1.954   1.030  -1.953  0.00  0.00    -0.282 N 
ATOM     12  C   UNL     1       2.990   1.897  -1.975  0.00  0.00    +0.226 C 
ATOM     13  O   UNL     1       3.240   2.522  -2.984  0.00  0.00    -0.275 OA
ATOM     14  C   UNL     1       5.124   2.816  -1.114  0.00  0.00    +0.024 C 
ATOM     15  H   UNL     1       1.437   0.863  -2.757  0.00  0.00    +0.155 HD
ENDROOT
BRANCH   8  16
ATOM     16  N   UNL     1       0.902  -3.016   0.476  0.00  0.00    -0.281 N 
ATOM     17  C   UNL     1       0.323  -3.630  -0.575  0.00  0.00    +0.251 C 
ATOM     18  O   UNL     1       0.061  -2.997  -1.579  0.00  0.00    -0.270 OA
ATOM     19  H   UNL     1       1.176  -3.534   1.249  0.00  0.00    +0.155 HD
BRANCH  17  20
ATOM     20  C   UNL     1       0.007  -5.072  -0.507  0.00  0.00    +0.069 A 
ATOM     21  C   UNL     1       1.010  -5.996  -0.205  0.00  0.00    +0.035 A 
ATOM     22  C   UNL     1       0.708  -7.341  -0.143  0.00  0.00    +0.042 A 
ATOM     23  C   UNL     1      -0.586  -7.775  -0.379  0.00  0.00    +0.022 A 
ATOM     24  C   UNL     1      -1.583  -6.864  -0.679  0.00  0.00    +0.035 A 
ATOM     25  C   UNL     1      -1.296  -5.516  -0.739  0.00  0.00    +0.138 A 
ATOM     26 CL   UNL     1       1.952  -8.492   0.233  0.00  0.00    -0.084 Cl
BRANCH  25  27
ATOM     27  N   UNL     1      -2.365  -4.543  -1.054  0.00  0.00    +0.057 N 
ATOM     28  O   UNL     1      -3.467  -4.937  -1.390  0.00  0.00    -0.126 OA
ATOM     29  O   UNL     1      -2.143  -3.348  -0.977  0.00  0.00    -0.126 OA
ENDBRANCH  25  27
ENDBRANCH  17  20
ENDBRANCH   8  16
TORSDOF 3
