REMARK  Name = ZINC13251374
REMARK  6 active torsions:
REMARK  status: ('A' for Active; 'I' for Inactive)
REMARK    1  A    between atoms: C_3  and  N_18
REMARK    2  A    between atoms: C_5  and  S_7
REMARK    3  A    between atoms: S_7  and  N_10
REMARK    4  A    between atoms: C_19  and  C_21
REMARK    5  A    between atoms: C_21  and  C_22
REMARK    6  A    between atoms: C_22  and  C_29
REMARK                            x       y       z     vdW  Elec       q    Type
REMARK                         _______ _______ _______ _____ _____    ______ ____
ROOT
ATOM      1  C   UNL     1       0.059   1.222  -0.306  0.00  0.00    +0.004 A 
ATOM      2  C   UNL     1       1.218   1.969  -0.225  0.00  0.00    +0.023 A 
ATOM      3  C   UNL     1       2.452   1.333  -0.215  0.00  0.00    +0.035 A 
ATOM      4  C   UNL     1       2.517  -0.053  -0.285  0.00  0.00    +0.052 A 
ATOM      5  C   UNL     1       1.354  -0.793  -0.365  0.00  0.00    +0.114 A 
ATOM      6  C   UNL     1       0.126  -0.157  -0.376  0.00  0.00    +0.029 A 
ENDROOT
BRANCH   3   7
ATOM      7  N   UNL     1       3.629   2.086  -0.134  0.00  0.00    -0.285 N 
ATOM      8  C   UNL     1       4.687   1.612   0.553  0.00  0.00    +0.218 C 
ATOM      9  O   UNL     1       4.648   0.499   1.035  0.00  0.00    -0.275 OA
ATOM     10  H   UNL     1       3.683   2.950  -0.572  0.00  0.00    +0.155 HD
BRANCH   8  11
ATOM     11  C   UNL     1       5.919   2.463   0.722  0.00  0.00    +0.114 C 
BRANCH  11  12
ATOM     12  C   UNL     1       7.015   1.644   1.406  0.00  0.00    +0.080 C 
ATOM     13  C   UNL     1       8.346   2.414   1.308  0.00  0.00    +0.019 C 
ATOM     14  C   UNL     1       8.459   3.546   2.347  0.00  0.00    +0.001 C 
ATOM     15  C   UNL     1       7.176   4.317   2.499  0.00  0.00    +0.000 C 
ATOM     16  C   UNL     1       6.376   3.711   3.671  0.00  0.00    +0.000 C 
ATOM     17  C   UNL     1       5.659   2.504   3.287  0.00  0.00    +0.001 C 
ATOM     18  C   UNL     1       6.607   1.377   2.829  0.00  0.00    +0.019 C 
BRANCH  12  19
ATOM     19  C   UNL     1       7.161   0.329   0.685  0.00  0.00    +0.362 C 
ATOM     20  O   UNL     1       7.462   0.311  -0.496  0.00  0.00    -0.246 OA
ATOM     21  O   UNL     1       6.978  -0.718   1.284  0.00  0.00    -0.246 OA
ENDBRANCH  12  19
ENDBRANCH  11  12
ENDBRANCH   8  11
ENDBRANCH   3   7
BRANCH   5  22
ATOM     22  S   UNL     1       1.435  -2.551  -0.456  0.00  0.00    +0.100 S 
ATOM     23  O   UNL     1       0.230  -2.982  -1.073  0.00  0.00    -0.146 OA
ATOM     24  O   UNL     1       2.716  -2.873  -0.979  0.00  0.00    -0.146 OA
BRANCH  22  25
ATOM     25  N   UNL     1       1.401  -3.123   1.098  0.00  0.00    -0.118 NA
ATOM     26  C   UNL     1       1.449  -4.396   1.320  0.00  0.00    +0.117 C 
ATOM     27  N   UNL     1       1.535  -5.314   0.262  0.00  0.00    -0.331 N 
ATOM     28  C   UNL     1       2.761  -6.046   0.128  0.00  0.00    +0.102 C 
ATOM     29  C   UNL     1       2.844  -7.365   0.914  0.00  0.00    +0.019 C 
ATOM     30  C   UNL     1       2.233  -7.192   2.327  0.00  0.00    +0.002 C 
ATOM     31  C   UNL     1       2.585  -5.875   2.962  0.00  0.00    +0.008 C 
ATOM     32  C   UNL     1       1.421  -4.923   2.668  0.00  0.00    +0.073 C 
ATOM     33  H   UNL     1       0.796  -5.449  -0.352  0.00  0.00    +0.147 HD
ENDBRANCH  22  25
ENDBRANCH   5  22
TORSDOF 6
