REMARK  Name = ZINC65266359
REMARK  3 active torsions:
REMARK  status: ('A' for Active; 'I' for Inactive)
REMARK    1  A    between atoms: C_3  and  C_8
REMARK    2  A    between atoms: C_8  and  N_9
REMARK    3  A    between atoms: N_26  and  C_27
REMARK                            x       y       z     vdW  Elec       q    Type
REMARK                         _______ _______ _______ _____ _____    ______ ____
ROOT
ATOM      1  N   UNL     1       4.061   2.447   1.389  0.00  0.00    -0.295 N 
ATOM      2  C   UNL     1       5.205   3.121   1.618  0.00  0.00    +0.303 C 
ATOM      3  O   UNL     1       5.867   3.531   0.685  0.00  0.00    -0.253 OA
ATOM      4  N   UNL     1       5.614   3.342   2.883  0.00  0.00    -0.283 N 
ATOM      5  C   UNL     1       4.916   2.899   4.100  0.00  0.00    +0.112 C 
ATOM      6  C   UNL     1       5.763   3.354   5.309  0.00  0.00    +0.054 C 
ATOM      7  C   UNL     1       7.159   3.558   4.691  0.00  0.00    +0.103 C 
ATOM      8  C   UNL     1       6.841   4.063   3.276  0.00  0.00    +0.142 C 
ATOM      9  C   UNL     1       7.945   4.580   5.468  0.00  0.00    +0.099 C 
ATOM     10  N   UNL     1       8.466   4.167   6.683  0.00  0.00    -0.286 N 
ATOM     11  C   UNL     1       8.938   2.852   6.776  0.00  0.00    +0.145 A 
ATOM     12  C   UNL     1       8.648   1.925   5.773  0.00  0.00    +0.069 A 
ATOM     13  C   UNL     1       9.115   0.625   5.892  0.00  0.00    +0.028 A 
ATOM     14  C   UNL     1       9.866   0.294   7.012  0.00  0.00    +0.022 A 
ATOM     15  C   UNL     1      10.122   1.262   7.963  0.00  0.00    +0.113 A 
ATOM     16  N   UNL     1       9.662   2.492   7.825  0.00  0.00    -0.238 NA
ATOM     17  N   UNL     1       7.903   2.303   4.645  0.00  0.00    -0.328 N 
ATOM     18  N   UNL     1       8.124   5.782   5.024  0.00  0.00    -0.372 N 
ATOM     19  H   UNL     1       3.532   2.120   2.134  0.00  0.00    +0.151 HD
ATOM     20  H   UNL     1       7.883   1.743   3.853  0.00  0.00    +0.147 HD
ATOM     21  H   UNL     1       7.818   6.021   4.135  0.00  0.00    +0.161 HD
ATOM     22  H   UNL     1       8.502   4.767   7.444  0.00  0.00    +0.155 HD
ENDROOT
BRANCH  18  23
ATOM     23  C   UNL     1       8.790   6.781   5.864  0.00  0.00    +0.080 C 
ATOM     24  C   UNL     1       7.753   7.498   6.754  0.00  0.00    +0.024 C 
ATOM     25  C   UNL     1       8.248   8.965   6.806  0.00  0.00    +0.002 C 
ATOM     26  C   UNL     1       8.770   9.201   5.367  0.00  0.00    +0.002 C 
ATOM     27  C   UNL     1       9.436   7.864   4.982  0.00  0.00    +0.024 C 
ENDBRANCH  18  23
BRANCH   1  28
ATOM     28  C   UNL     1       3.615   2.207   0.014  0.00  0.00    +0.141 C 
BRANCH  28  31
ATOM     29  C   UNL     1      -0.075   1.411   0.076  0.00  0.00    +0.003 A 
ATOM     30  C   UNL     1       1.115   2.115   0.059  0.00  0.00    +0.005 A 
ATOM     31  C   UNL     1       2.320   1.438   0.032  0.00  0.00    -0.028 A 
ATOM     32  C   UNL     1       2.336   0.056   0.022  0.00  0.00    +0.043 A 
ATOM     33  C   UNL     1       1.146  -0.650   0.039  0.00  0.00    +0.124 A 
ATOM     34  C   UNL     1      -0.061   0.029   0.066  0.00  0.00    +0.038 A 
ATOM     35  F   UNL     1       1.161  -2.001   0.029  0.00  0.00    -0.205 F 
ENDBRANCH  28  31
ENDBRANCH   1  28
TORSDOF 3
