REMARK  Name = ZINC09088916
REMARK  10 active torsions:
REMARK  status: ('A' for Active; 'I' for Inactive)
REMARK    1  A    between atoms: C_1  and  C_2
REMARK    2  A    between atoms: C_2  and  C_36
REMARK    3  A    between atoms: C_6  and  C_26
REMARK    4  A    between atoms: C_8  and  C_24
REMARK    5  A    between atoms: C_9  and  S_11
REMARK    6  A    between atoms: S_11  and  C_12
REMARK    7  A    between atoms: C_12  and  C_13
REMARK    8  A    between atoms: N_15  and  C_16
REMARK    9  A    between atoms: C_19  and  O_22
REMARK   10  A    between atoms: O_22  and  C_23
REMARK                            x       y       z     vdW  Elec       q    Type
REMARK                         _______ _______ _______ _____ _____    ______ ____
ROOT
ATOM      1  C   UNL     1      -0.013   1.481   0.013  0.00  0.00    +0.011 C 
ATOM      2  C   UNL     1       0.018  -0.049  -0.001  0.00  0.00    -0.023 C 
ATOM      3  C   UNL     1       0.758  -0.537  -1.249  0.00  0.00    +0.058 C 
ATOM      4  C   UNL     1       2.182  -0.038  -1.220  0.00  0.00    +0.016 C 
ATOM      5  C   UNL     1       2.828   0.154  -0.051  0.00  0.00    +0.024 C 
ATOM      6  C   UNL     1       4.255   0.639  -0.025  0.00  0.00    +0.097 C 
ATOM      7  C   UNL     1       4.639   1.262  -1.335  0.00  0.00    +0.069 C 
ATOM      8  C   UNL     1       3.914   1.030  -2.461  0.00  0.00    +0.080 C 
ATOM      9  N   UNL     1       2.803   0.220  -2.412  0.00  0.00    -0.311 N 
ATOM     10  C   UNL     1       2.190  -0.090   1.178  0.00  0.00    +0.162 C 
ATOM     11  O   UNL     1       2.804   0.082   2.212  0.00  0.00    -0.292 OA
ATOM     12  C   UNL     1       0.762  -0.560   1.236  0.00  0.00    +0.086 C 
ATOM     13  C   UNL     1      -1.413  -0.592  -0.001  0.00  0.00    +0.011 C 
ATOM     14  H   UNL     1       2.458  -0.173  -3.229  0.00  0.00    +0.152 HD
ENDROOT
BRANCH   6  15
ATOM     15  C   UNL     1       5.169  -0.526   0.254  0.00  0.00    -0.035 A 
ATOM     16  C   UNL     1       5.198  -1.603  -0.612  0.00  0.00    +0.006 A 
ATOM     17  C   UNL     1       6.036  -2.673  -0.357  0.00  0.00    +0.020 A 
ATOM     18  C   UNL     1       6.845  -2.665   0.765  0.00  0.00    +0.041 A 
ATOM     19  C   UNL     1       6.816  -1.586   1.632  0.00  0.00    +0.020 A 
ATOM     20  C   UNL     1       5.981  -0.515   1.372  0.00  0.00    +0.006 A 
ATOM     21 CL   UNL     1       7.898  -4.008   1.087  0.00  0.00    -0.084 Cl
ENDBRANCH   6  15
BRANCH   7  22
ATOM     22  C   UNL     1       5.788   2.115  -1.400  0.00  0.00    +0.098 C 
ATOM     23  N   UNL     1       6.699   2.791  -1.451  0.00  0.00    -0.191 NA
ENDBRANCH   7  22
BRANCH   8  24
ATOM     24  S   UNL     1       4.396   1.769  -3.986  0.00  0.00    -0.100 S 
BRANCH  24  25
ATOM     25  C   UNL     1       3.155   1.182  -5.171  0.00  0.00    +0.171 C 
BRANCH  25  26
ATOM     26  C   UNL     1       3.455   1.748  -6.535  0.00  0.00    +0.227 C 
ATOM     27  O   UNL     1       4.412   2.476  -6.692  0.00  0.00    -0.275 OA
ATOM     28  N   UNL     1       2.659   1.445  -7.580  0.00  0.00    -0.285 N 
ATOM     29  H   UNL     1       1.934   0.810  -7.470  0.00  0.00    +0.155 HD
BRANCH  28  30
ATOM     30  C   UNL     1       2.880   2.047  -8.826  0.00  0.00    +0.034 A 
ATOM     31  C   UNL     1       1.804   2.367  -9.643  0.00  0.00    +0.027 A 
ATOM     32  C   UNL     1       2.022   2.961 -10.870  0.00  0.00    +0.047 A 
ATOM     33  C   UNL     1       3.316   3.236 -11.288  0.00  0.00    +0.120 A 
ATOM     34  C   UNL     1       4.391   2.916 -10.472  0.00  0.00    +0.047 A 
ATOM     35  C   UNL     1       4.174   2.328  -9.242  0.00  0.00    +0.027 A 
BRANCH  33  36
ATOM     36  O   UNL     1       3.530   3.821 -12.497  0.00  0.00    -0.495 OA
ATOM     37  C   UNL     1       4.888   4.076 -12.863  0.00  0.00    +0.277 C 
ENDBRANCH  33  36
ENDBRANCH  28  30
ENDBRANCH  25  26
ENDBRANCH  24  25
ENDBRANCH   8  24
TORSDOF 7
