REMARK  Name = ZINC39879244
REMARK  8 active torsions:
REMARK  status: ('A' for Active; 'I' for Inactive)
REMARK    1  A    between atoms: C_1  and  C_2
REMARK    2  A    between atoms: N_15  and  C_27
REMARK    3  A    between atoms: C_16  and  C_18
REMARK    4  A    between atoms: C_21  and  O_26
REMARK    5  A    between atoms: C_22  and  O_24
REMARK    6  A    between atoms: O_24  and  C_25
REMARK    7  A    between atoms: C_31  and  O_33
REMARK    8  A    between atoms: O_33  and  C_34
REMARK                            x       y       z     vdW  Elec       q    Type
REMARK                         _______ _______ _______ _____ _____    ______ ____
ROOT
ATOM      1  C   UNL     1      -0.018   1.503   0.010  0.00  0.00    +0.044 C 
ATOM      2  C   UNL     1       0.002  -0.004   0.002  0.00  0.00    -0.050 A 
ATOM      3  C   UNL     1       0.006  -0.689  -1.205  0.00  0.00    +0.007 A 
ATOM      4  C   UNL     1       0.021  -2.065  -1.235  0.00  0.00    +0.047 A 
ATOM      5  C   UNL     1       0.034  -2.790  -0.043  0.00  0.00    +0.139 A 
ATOM      6  C   UNL     1       0.036  -2.086   1.172  0.00  0.00    +0.065 A 
ATOM      7  C   UNL     1       0.023  -0.692   1.183  0.00  0.00    +0.018 A 
ATOM      8  C   UNL     1       0.067  -2.849   2.446  0.00  0.00    +0.199 A 
ATOM      9  O   UNL     1      -0.098  -2.332   3.537  0.00  0.00    -0.287 OA
ATOM     10  C   UNL     1       0.312  -4.283   2.265  0.00  0.00    +0.072 A 
ATOM     11  C   UNL     1       0.292  -4.850   1.023  0.00  0.00    +0.199 A 
ATOM     12  O   UNL     1       0.041  -4.142  -0.096  0.00  0.00    -0.450 OA
ATOM     13  C   UNL     1       0.580  -6.287   1.166  0.00  0.00    +0.287 C 
ATOM     14  O   UNL     1       0.640  -7.080   0.247  0.00  0.00    -0.266 OA
ATOM     15  N   UNL     1       0.768  -6.596   2.465  0.00  0.00    -0.253 N 
ATOM     16  C   UNL     1       0.612  -5.362   3.253  0.00  0.00    +0.150 C 
ENDROOT
BRANCH  16  17
ATOM     17  C   UNL     1       1.889  -5.052   3.991  0.00  0.00    -0.018 A 
ATOM     18  C   UNL     1       3.109  -5.282   3.384  0.00  0.00    +0.009 A 
ATOM     19  C   UNL     1       4.284  -4.999   4.056  0.00  0.00    +0.049 A 
ATOM     20  C   UNL     1       4.239  -4.483   5.342  0.00  0.00    +0.158 A 
ATOM     21  C   UNL     1       3.010  -4.251   5.953  0.00  0.00    +0.162 A 
ATOM     22  C   UNL     1       1.837  -4.532   5.271  0.00  0.00    +0.055 A 
BRANCH  21  23
ATOM     23  O   UNL     1       2.961  -3.745   7.214  0.00  0.00    -0.491 OA
ATOM     24  C   UNL     1       1.665  -3.533   7.778  0.00  0.00    +0.277 C 
ENDBRANCH  21  23
BRANCH  20  25
ATOM     25  O   UNL     1       5.393  -4.204   6.005  0.00  0.00    -0.503 OA
ATOM     26  H   UNL     1       5.718  -3.304   5.867  0.00  0.00    +0.292 HD
ENDBRANCH  20  25
ENDBRANCH  16  17
BRANCH  15  27
ATOM     27  C   UNL     1       1.058  -7.864   2.975  0.00  0.00    +0.041 A 
ATOM     28  C   UNL     1       1.222  -8.044   4.343  0.00  0.00    +0.024 A 
ATOM     29  C   UNL     1       1.510  -9.298   4.846  0.00  0.00    +0.005 A 
ATOM     30  C   UNL     1       1.636 -10.376   3.991  0.00  0.00    +0.046 A 
ATOM     31  C   UNL     1       1.473 -10.203   2.624  0.00  0.00    +0.122 A 
ATOM     32  C   UNL     1       1.179  -8.947   2.115  0.00  0.00    +0.069 A 
BRANCH  31  33
ATOM     33  O   UNL     1       1.598 -11.264   1.784  0.00  0.00    -0.495 OA
ATOM     34  C   UNL     1       1.897 -12.529   2.378  0.00  0.00    +0.277 C 
ENDBRANCH  31  33
ENDBRANCH  15  27
TORSDOF 5
