REMARK  Name = ZINC08618641
REMARK  10 active torsions:
REMARK  status: ('A' for Active; 'I' for Inactive)
REMARK    1  A    between atoms: C_1  and  C_2
REMARK    2  A    between atoms: C_3  and  C_10
REMARK    3  A    between atoms: C_10  and  C_11
REMARK    4  A    between atoms: C_11  and  C_12
REMARK    5  A    between atoms: C_12  and  N_13
REMARK    6  A    between atoms: N_13  and  C_14
REMARK    7  A    between atoms: C_17  and  C_20
REMARK    8  A    between atoms: C_20  and  C_21
REMARK    9  A    between atoms: C_21  and  C_22
REMARK   10  A    between atoms: C_22  and  C_27
REMARK                            x       y       z     vdW  Elec       q    Type
REMARK                         _______ _______ _______ _____ _____    ______ ____
ROOT
ATOM      1  N   UNL     1       2.980   5.795  -0.364  0.00  0.00    -0.344 N 
ATOM      2  H   UNL     1       3.352   5.436  -1.185  0.00  0.00    +0.146 HD
ENDROOT
BRANCH   1   3
ATOM      3  C   UNL     1       3.710   6.718   0.388  0.00  0.00    +0.027 A 
ATOM      4  C   UNL     1       3.181   7.229   1.567  0.00  0.00    +0.023 A 
ATOM      5  C   UNL     1       3.906   8.141   2.309  0.00  0.00    +0.005 A 
ATOM      6  C   UNL     1       5.156   8.546   1.879  0.00  0.00    -0.047 A 
ATOM      7  C   UNL     1       5.686   8.040   0.706  0.00  0.00    +0.005 A 
ATOM      8  C   UNL     1       4.969   7.123  -0.037  0.00  0.00    +0.023 A 
BRANCH   6   9
ATOM      9  C   UNL     1       5.944   9.542   2.691  0.00  0.00    +0.040 C 
BRANCH   9  10
ATOM     10  C   UNL     1       6.814   8.799   3.706  0.00  0.00    +0.071 C 
BRANCH  10  11
ATOM     11  C   UNL     1       7.614   9.810   4.530  0.00  0.00    +0.184 C 
ATOM     12  O   UNL     1       6.712  10.685   5.227  0.00  0.00    -0.345 OA
ATOM     13  C   UNL     1       7.370  11.975   5.222  0.00  0.00    +0.191 C 
ATOM     14  C   UNL     1       8.053  11.974   3.832  0.00  0.00    +0.191 C 
ATOM     15  O   UNL     1       8.439  10.596   3.659  0.00  0.00    -0.345 OA
BRANCH  11  16
ATOM     16  C   UNL     1       8.492   9.070   5.541  0.00  0.00    +0.173 C 
ATOM     17 CL   UNL     1       9.432  10.265   6.509  0.00  0.00    -0.120 Cl
ENDBRANCH  11  16
ENDBRANCH  10  11
ENDBRANCH   9  10
ENDBRANCH   6   9
ENDBRANCH   1   3
BRANCH   1  18
ATOM     18  C   UNL     1       1.653   5.369   0.086  0.00  0.00    +0.102 C 
BRANCH  18  19
ATOM     19  C   UNL     1       1.075   4.363  -0.911  0.00  0.00    +0.023 C 
BRANCH  19  20
ATOM     20  C   UNL     1      -0.312   3.918  -0.440  0.00  0.00    +0.044 C 
BRANCH  20  23
ATOM     21  C   UNL     1      -0.013   1.086   0.008  0.00  0.00    +0.066 C 
ATOM     22  C   UNL     1      -0.742   1.585  -1.213  0.00  0.00    +0.050 A 
ATOM     23  C   UNL     1      -0.881   2.926  -1.422  0.00  0.00    +0.038 A 
ATOM     24  C   UNL     1      -1.565   3.368  -2.568  0.00  0.00    +0.256 A 
ATOM     25  N   UNL     1      -2.061   2.447  -3.423  0.00  0.00    -0.295 N 
ATOM     26  C   UNL     1      -1.891   1.123  -3.163  0.00  0.00    +0.193 A 
ATOM     27  N   UNL     1      -1.244   0.717  -2.088  0.00  0.00    -0.221 NA
ATOM     28  N   UNL     1      -2.397   0.196  -4.034  0.00  0.00    -0.329 N 
ATOM     29  O   UNL     1      -1.709   4.560  -2.787  0.00  0.00    -0.267 OA
ATOM     30  H   UNL     1      -2.871   0.485  -4.829  0.00  0.00    +0.145 HD
ATOM     31  H   UNL     1      -2.280  -0.751  -3.856  0.00  0.00    +0.145 HD
ATOM     32  H   UNL     1      -2.536   2.729  -4.220  0.00  0.00    +0.172 HD
ENDBRANCH  20  23
ENDBRANCH  19  20
ENDBRANCH  18  19
ENDBRANCH   1  18
TORSDOF 9
