REMARK  Name = ZINC08497289
REMARK  10 active torsions:
REMARK  status: ('A' for Active; 'I' for Inactive)
REMARK    1  A    between atoms: C_1  and  C_2
REMARK    2  A    between atoms: C_2  and  C_4
REMARK    3  A    between atoms: C_2  and  N_58
REMARK    4  A    between atoms: C_14  and  C_15
REMARK    5  A    between atoms: C_14  and  N_58
REMARK    6  A    between atoms: C_17  and  O_26
REMARK    7  A    between atoms: C_18  and  O_22
REMARK    8  A    between atoms: O_22  and  C_23
REMARK    9  A    between atoms: C_23  and  C_24
REMARK   10  A    between atoms: O_26  and  C_27
REMARK                            x       y       z     vdW  Elec       q    Type
REMARK                         _______ _______ _______ _____ _____    ______ ____
ROOT
ATOM      1  N   UNL     1       0.705   0.596   7.232  0.00  0.00    +0.384 N 
ATOM      2  H   UNL     1       0.696   1.619   7.153  0.00  0.00    -0.085 HD
ATOM      3  H   UNL     1      -0.254   0.238   7.152  0.00  0.00    -0.085 HD
ENDROOT
BRANCH   1   5
ATOM      4  C   UNL     1       2.356   1.202   8.944  0.00  0.00    -0.013 C 
ATOM      5  C   UNL     1       1.259   0.213   8.544  0.00  0.00    -0.068 C 
BRANCH   5   6
ATOM      6  C   UNL     1       0.142   0.241   9.589  0.00  0.00    -0.041 C 
ATOM      7  C   UNL     1      -0.955  -0.748   9.190  0.00  0.00    +0.009 C 
ATOM      8  C   UNL     1      -2.072  -0.720  10.234  0.00  0.00    -0.010 C 
ATOM      9  C   UNL     1      -1.504  -1.113  11.600  0.00  0.00    +0.007 C 
ATOM     10  C   UNL     1      -0.407  -0.123  11.999  0.00  0.00    -0.010 C 
ATOM     11  C   UNL     1       0.710  -0.151  10.954  0.00  0.00    +0.009 C 
ATOM     12  C   UNL     1      -0.996   1.286  12.078  0.00  0.00    +0.007 C 
ATOM     13  C   UNL     1      -1.565   1.679  10.713  0.00  0.00    -0.010 C 
ATOM     14  C   UNL     1      -2.661   0.690  10.313  0.00  0.00    +0.007 C 
ATOM     15  C   UNL     1      -0.447   1.651   9.668  0.00  0.00    +0.009 C 
ENDBRANCH   5   6
ENDBRANCH   1   5
BRANCH   1  16
ATOM     16  C   UNL     1       1.526   0.031   6.144  0.00  0.00    -0.046 C 
BRANCH  16  17
ATOM     17  C   UNL     1       0.937   0.438   4.818  0.00  0.00    -0.059 A 
ATOM     18  C   UNL     1       1.347   1.611   4.212  0.00  0.00    +0.051 A 
ATOM     19  C   UNL     1       0.807   1.987   2.993  0.00  0.00    +0.163 A 
ATOM     20  C   UNL     1      -0.148   1.182   2.381  0.00  0.00    +0.181 A 
ATOM     21  C   UNL     1      -0.559   0.009   2.996  0.00  0.00    +0.086 A 
ATOM     22  C   UNL     1      -0.012  -0.362   4.211  0.00  0.00    +0.025 A 
ATOM     23 CL   UNL     1      -1.756  -0.995   2.239  0.00  0.00    -0.080 Cl
BRANCH  19  24
ATOM     24  O   UNL     1       1.209   3.141   2.396  0.00  0.00    -0.491 OA
ATOM     25  C   UNL     1       2.193   3.918   3.083  0.00  0.00    +0.277 C 
ENDBRANCH  19  24
BRANCH  20  26
ATOM     26  O   UNL     1      -0.682   1.547   1.184  0.00  0.00    -0.483 OA
BRANCH  26  27
ATOM     27  C   UNL     1      -0.013   1.086   0.008  0.00  0.00    +0.256 C 
BRANCH  27  28
ATOM     28  C   UNL     1      -0.742   1.585  -1.213  0.00  0.00    +0.006 C 
ATOM     29  C   UNL     1      -0.069   2.095  -2.215  0.00  0.00    +0.007 C 
ENDBRANCH  27  28
ENDBRANCH  26  27
ENDBRANCH  20  26
ENDBRANCH  16  17
ENDBRANCH   1  16
TORSDOF 8
