REMARK  Name = ZINC10673172
REMARK  9 active torsions:
REMARK  status: ('A' for Active; 'I' for Inactive)
REMARK    1  A    between atoms: C_1  and  C_2
REMARK    2  A    between atoms: C_4  and  C_31
REMARK    3  A    between atoms: C_5  and  S_9
REMARK    4  A    between atoms: C_6  and  C_8
REMARK    5  A    between atoms: S_9  and  N_12
REMARK    6  A    between atoms: N_12  and  C_13
REMARK    7  A    between atoms: N_12  and  C_14
REMARK    8  A    between atoms: C_14  and  C_15
REMARK    9  A    between atoms: C_28  and  C_30
REMARK                            x       y       z     vdW  Elec       q    Type
REMARK                         _______ _______ _______ _____ _____    ______ ____
ROOT
ATOM      1  C   UNL     1       2.036  -4.727  -1.605  0.00  0.00    +0.236 C 
ATOM      2  O   UNL     1       2.262  -3.684  -1.029  0.00  0.00    -0.274 OA
ATOM      3  N   UNL     1       2.749  -5.061  -2.699  0.00  0.00    -0.265 N 
ATOM      4  C   UNL     1       2.494  -6.261  -3.378  0.00  0.00    +0.058 A 
ATOM      5  C   UNL     1       2.856  -7.477  -2.823  0.00  0.00    +0.025 A 
ATOM      6  C   UNL     1       2.618  -8.649  -3.518  0.00  0.00    +0.002 A 
ATOM      7  C   UNL     1       2.021  -8.611  -4.765  0.00  0.00    +0.002 A 
ATOM      8  C   UNL     1       1.648  -7.401  -5.322  0.00  0.00    +0.025 A 
ATOM      9  C   UNL     1       1.874  -6.224  -4.627  0.00  0.00    +0.055 A 
ATOM     10  N   UNL     1       1.455  -4.993  -5.146  0.00  0.00    -0.284 N 
ATOM     11  C   UNL     1       2.296  -3.937  -5.165  0.00  0.00    +0.219 C 
ATOM     12  O   UNL     1       1.895  -2.854  -5.539  0.00  0.00    -0.275 OA
ATOM     13  C   UNL     1       3.728  -4.093  -4.725  0.00  0.00    +0.118 C 
ATOM     14  C   UNL     1       3.799  -4.175  -3.204  0.00  0.00    +0.087 C 
ATOM     15  C   UNL     1       5.167  -4.722  -2.792  0.00  0.00    +0.029 C 
ATOM     16  H   UNL     1       0.555  -4.899  -5.494  0.00  0.00    +0.155 HD
ENDROOT
BRANCH   1  17
ATOM     17  C   UNL     1       0.958  -5.650  -1.097  0.00  0.00    +0.205 C 
BRANCH  17  18
ATOM     18  N   UNL     1       0.336  -5.066   0.093  0.00  0.00    -0.171 NA
ATOM     19  C   UNL     1       0.939  -5.274   1.412  0.00  0.00    +0.132 C 
BRANCH  18  20
ATOM     20  S   UNL     1      -1.050  -4.170  -0.051  0.00  0.00    +0.062 S 
ATOM     21  O   UNL     1      -1.742  -4.290   1.184  0.00  0.00    -0.153 OA
ATOM     22  O   UNL     1      -1.639  -4.532  -1.293  0.00  0.00    -0.153 OA
BRANCH  20  27
ATOM     23  C   UNL     1       0.610   1.610  -0.545  0.00  0.00    +0.044 C 
ATOM     24  C   UNL     1       0.195   0.166  -0.422  0.00  0.00    -0.050 A 
ATOM     25  C   UNL     1      -0.111  -0.361   0.818  0.00  0.00    +0.008 A 
ATOM     26  C   UNL     1      -0.491  -1.686   0.931  0.00  0.00    -0.024 A 
ATOM     27  C   UNL     1      -0.566  -2.482  -0.196  0.00  0.00    +0.111 A 
ATOM     28  C   UNL     1      -0.261  -1.954  -1.436  0.00  0.00    -0.024 A 
ATOM     29  C   UNL     1       0.116  -0.629  -1.550  0.00  0.00    +0.008 A 
ATOM     30  C   UNL     1      -0.341  -2.823  -2.665  0.00  0.00    +0.046 C 
ATOM     31  C   UNL     1      -0.824  -2.261   2.284  0.00  0.00    +0.046 C 
ENDBRANCH  20  27
ENDBRANCH  18  20
ENDBRANCH  17  18
ENDBRANCH   1  17
TORSDOF 4
