REMARK  Name = ZINC36852788
REMARK  9 active torsions:
REMARK  status: ('A' for Active; 'I' for Inactive)
REMARK    1  A    between atoms: C_1  and  C_2
REMARK    2  A    between atoms: C_2  and  C_3
REMARK    3  A    between atoms: C_3  and  C_5
REMARK    4  A    between atoms: C_3  and  C_6
REMARK    5  A    between atoms: C_9  and  N_12
REMARK    6  A    between atoms: C_22  and  S_23
REMARK    7  A    between atoms: S_23  and  C_24
REMARK    8  A    between atoms: C_24  and  C_25
REMARK    9  A    between atoms: C_31  and  C_33
REMARK                            x       y       z     vdW  Elec       q    Type
REMARK                         _______ _______ _______ _____ _____    ______ ____
ROOT
ATOM      1  N   UNL     1       1.224  -6.159   0.979  0.00  0.00    -0.255 N 
ATOM      2  C   UNL     1       0.112  -6.930   1.015  0.00  0.00    +0.267 A 
ATOM      3  O   UNL     1      -0.997  -6.435   1.103  0.00  0.00    -0.267 OA
ATOM      4  C   UNL     1       0.292  -8.386   0.944  0.00  0.00    +0.065 A 
ATOM      5  C   UNL     1      -0.790  -9.264   0.973  0.00  0.00    +0.015 A 
ATOM      6  C   UNL     1      -0.566 -10.612   0.903  0.00  0.00    +0.001 A 
ATOM      7  C   UNL     1       0.725 -11.113   0.803  0.00  0.00    +0.002 A 
ATOM      8  C   UNL     1       1.804 -10.275   0.773  0.00  0.00    +0.028 A 
ATOM      9  C   UNL     1       1.608  -8.892   0.843  0.00  0.00    +0.079 A 
ATOM     10  N   UNL     1       2.648  -8.026   0.816  0.00  0.00    -0.223 NA
ATOM     11  C   UNL     1       2.462  -6.730   0.875  0.00  0.00    +0.177 A 
ENDROOT
BRANCH   1  15
ATOM     12  C   UNL     1       0.869  -2.011   1.171  0.00  0.00    -0.044 A 
ATOM     13  C   UNL     1       0.852  -2.649  -0.056  0.00  0.00    +0.006 A 
ATOM     14  C   UNL     1       0.969  -4.024  -0.123  0.00  0.00    +0.026 A 
ATOM     15  C   UNL     1       1.105  -4.765   1.044  0.00  0.00    +0.052 A 
ATOM     16  C   UNL     1       1.122  -4.121   2.274  0.00  0.00    +0.026 A 
ATOM     17  C   UNL     1       1.009  -2.746   2.334  0.00  0.00    +0.006 A 
BRANCH  12  18
ATOM     18  C   UNL     1       0.740  -0.511   1.240  0.00  0.00    +0.016 C 
ATOM     19  C   UNL     1      -0.594  -0.084   0.624  0.00  0.00    +0.012 C 
BRANCH  18  21
ATOM     20  C   UNL     1       1.831   1.655   0.637  0.00  0.00    +0.004 C 
ATOM     21  C   UNL     1       1.890   0.136   0.464  0.00  0.00    +0.004 C 
ENDBRANCH  18  21
ENDBRANCH  12  18
ENDBRANCH   1  15
BRANCH  11  22
ATOM     22  S   UNL     1       3.873  -5.676   0.826  0.00  0.00    -0.081 S 
BRANCH  22  23
ATOM     23  C   UNL     1       5.272  -6.821   0.688  0.00  0.00    +0.133 C 
BRANCH  23  24
ATOM     24  C   UNL     1       6.559  -6.038   0.635  0.00  0.00    +0.061 A 
ATOM     25  C   UNL     1       7.085  -5.619  -0.542  0.00  0.00    +0.072 A 
ATOM     26  S   UNL     1       8.553  -4.779   0.031  0.00  0.00    -0.060 S 
ATOM     27  C   UNL     1       8.346  -5.045   1.680  0.00  0.00    +0.165 A 
ATOM     28  N   UNL     1       7.221  -5.725   1.734  0.00  0.00    -0.229 NA
ATOM     29  N   UNL     1       9.162  -4.641   2.729  0.00  0.00    -0.265 N 
ATOM     30  C   UNL     1      10.285  -3.939   2.478  0.00  0.00    +0.216 C 
ATOM     31  O   UNL     1      10.583  -3.661   1.336  0.00  0.00    -0.276 OA
ATOM     32  C   UNL     1      11.170  -3.501   3.616  0.00  0.00    +0.109 C 
ATOM     33  H   UNL     1       8.924  -4.863   3.643  0.00  0.00    +0.157 HD
ENDBRANCH  23  24
ENDBRANCH  22  23
ENDBRANCH  11  22
TORSDOF 6
