REMARK  Name = ZINC03539076
REMARK  7 active torsions:
REMARK  status: ('A' for Active; 'I' for Inactive)
REMARK    1  A    between atoms: C_1  and  C_2
REMARK    2  A    between atoms: C_2  and  C_4
REMARK    3  A    between atoms: C_2  and  N_51
REMARK    4  A    between atoms: N_6  and  C_7
REMARK    5  A    between atoms: C_9  and  N_14
REMARK    6  A    between atoms: N_19  and  S_22
REMARK    7  A    between atoms: S_22  and  C_25
REMARK                            x       y       z     vdW  Elec       q    Type
REMARK                         _______ _______ _______ _____ _____    ______ ____
ROOT
ATOM      1  C   UNL     1       0.560   0.831   2.362  0.00  0.00    -0.060 C 
ATOM      2  C   UNL     1       0.151   1.251   3.777  0.00  0.00    +0.091 C 
ATOM      3  N   UNL     1      -1.205   0.747   4.042  0.00  0.00    -0.180 NA
ATOM      4  C   UNL     1      -2.259   1.035   3.057  0.00  0.00    +0.091 C 
ATOM      5  C   UNL     1      -1.756   0.623   1.670  0.00  0.00    -0.060 C 
ATOM      6  N   UNL     1      -0.469   1.304   1.410  0.00  0.00    +0.389 N 
ATOM      7  H   UNL     1      -0.596   2.316   1.534  0.00  0.00    -0.081 HD
ENDROOT
BRANCH   3   8
ATOM      8  S   UNL     1      -1.536  -0.123   5.412  0.00  0.00    +0.061 S 
ATOM      9  O   UNL     1      -0.550   0.236   6.369  0.00  0.00    -0.153 OA
ATOM     10  O   UNL     1      -2.928   0.024   5.659  0.00  0.00    -0.153 OA
BRANCH   8  11
ATOM     11  C   UNL     1      -1.270  -1.822   5.027  0.00  0.00    +0.106 A 
ATOM     12  C   UNL     1      -2.310  -2.592   4.541  0.00  0.00    +0.030 A 
ATOM     13  C   UNL     1      -2.100  -3.923   4.234  0.00  0.00    +0.022 A 
ATOM     14  C   UNL     1      -0.851  -4.488   4.425  0.00  0.00    +0.041 A 
ATOM     15  C   UNL     1       0.188  -3.718   4.917  0.00  0.00    +0.022 A 
ATOM     16  C   UNL     1      -0.022  -2.386   5.218  0.00  0.00    +0.030 A 
ATOM     17 CL   UNL     1      -0.588  -6.161   4.045  0.00  0.00    -0.084 Cl
ENDBRANCH   8  11
ENDBRANCH   3   8
BRANCH   6  19
ATOM     18  C   UNL     1      -0.140  -0.447  -0.303  0.00  0.00    -0.004 C 
ATOM     19  C   UNL     1      -0.031   1.043   0.023  0.00  0.00    +0.017 C 
BRANCH  19  20
ATOM     20  C   UNL     1      -0.908   1.829  -0.916  0.00  0.00    +0.203 C 
ATOM     21  O   UNL     1      -1.881   2.415  -0.490  0.00  0.00    -0.277 OA
ATOM     22  N   UNL     1      -0.613   1.881  -2.230  0.00  0.00    -0.286 N 
ATOM     23  H   UNL     1       0.124   1.357  -2.583  0.00  0.00    +0.155 HD
BRANCH  22  24
ATOM     24  C   UNL     1      -1.368   2.691  -3.086  0.00  0.00    +0.054 A 
ATOM     25  C   UNL     1      -2.725   2.872  -2.856  0.00  0.00    +0.057 A 
ATOM     26  C   UNL     1      -3.468   3.672  -3.702  0.00  0.00    +0.128 A 
ATOM     27  C   UNL     1      -2.861   4.293  -4.778  0.00  0.00    +0.034 A 
ATOM     28  C   UNL     1      -1.510   4.116  -5.012  0.00  0.00    +0.024 A 
ATOM     29  C   UNL     1      -0.760   3.321  -4.165  0.00  0.00    +0.062 A 
ATOM     30 CL   UNL     1       0.938   3.104  -4.455  0.00  0.00    -0.082 Cl
BRANCH  26  31
ATOM     31  N   UNL     1      -4.915   3.864  -3.457  0.00  0.00    +0.056 N 
ATOM     32  O   UNL     1      -5.449   3.317  -2.509  0.00  0.00    -0.126 OA
ATOM     33  O   UNL     1      -5.570   4.570  -4.202  0.00  0.00    -0.126 OA
ENDBRANCH  26  31
ENDBRANCH  22  24
ENDBRANCH  19  20
ENDBRANCH   6  19
TORSDOF 6
