REMARK  Name = ZINC40149030
REMARK  7 active torsions:
REMARK  status: ('A' for Active; 'I' for Inactive)
REMARK    1  A    between atoms: C_1  and  C_2
REMARK    2  A    between atoms: C_2  and  C_3
REMARK    3  A    between atoms: C_6  and  C_9
REMARK    4  A    between atoms: C_9  and  C_11
REMARK    5  A    between atoms: C_9  and  N_12
REMARK    6  A    between atoms: C_13  and  C_15
REMARK    7  A    between atoms: N_23  and  C_24
REMARK                            x       y       z     vdW  Elec       q    Type
REMARK                         _______ _______ _______ _____ _____    ______ ____
ROOT
ATOM      1  C   UNL     1       5.157  -4.806  -4.894  0.00  0.00    +0.163 C 
ATOM      2  C   UNL     1       4.638  -5.674  -3.728  0.00  0.00    +0.033 C 
ATOM      3  C   UNL     1       4.094  -6.936  -4.449  0.00  0.00    +0.021 C 
ATOM      4  C   UNL     1       5.104  -7.088  -5.614  0.00  0.00    +0.110 C 
ATOM      5  N   UNL     1       5.416  -5.705  -6.029  0.00  0.00    -0.274 N 
ATOM      6  C   UNL     1       5.862  -5.327  -7.243  0.00  0.00    +0.303 C 
ATOM      7  O   UNL     1       6.084  -4.154  -7.472  0.00  0.00    -0.253 OA
ATOM      8  N   UNL     1       6.062  -6.251  -8.205  0.00  0.00    -0.296 N 
ATOM      9  H   UNL     1       5.885  -7.187  -8.022  0.00  0.00    +0.151 HD
ENDROOT
BRANCH   8  10
ATOM     10  C   UNL     1       6.547  -5.840  -9.525  0.00  0.00    +0.074 C 
ATOM     11  C   UNL     1       5.362  -5.408 -10.391  0.00  0.00    +0.022 C 
ATOM     12  C   UNL     1       5.868  -4.980 -11.770  0.00  0.00    +0.002 C 
ATOM     13  C   UNL     1       6.586  -6.154 -12.438  0.00  0.00    +0.000 C 
ATOM     14  C   UNL     1       7.771  -6.587 -11.571  0.00  0.00    +0.002 C 
ATOM     15  C   UNL     1       7.265  -7.015 -10.192  0.00  0.00    +0.022 C 
ENDBRANCH   8  10
BRANCH   1  17
ATOM     16  N   UNL     1       3.718  -2.861  -4.381  0.00  0.00    -0.307 N 
ATOM     17  C   UNL     1       4.116  -3.785  -5.277  0.00  0.00    +0.234 C 
ATOM     18  O   UNL     1       3.636  -3.796  -6.391  0.00  0.00    -0.274 OA
ATOM     19  H   UNL     1       4.102  -2.852  -3.490  0.00  0.00    +0.149 HD
BRANCH  16  20
ATOM     20  C   UNL     1       2.707  -1.868  -4.752  0.00  0.00    +0.100 C 
ATOM     21  C   UNL     1       3.383  -0.687  -5.451  0.00  0.00    +0.033 C 
BRANCH  20  25
ATOM     22  C   UNL     1       0.707  -0.490  -1.238  0.00  0.00    -0.048 A 
ATOM     23  C   UNL     1      -0.011  -0.719  -2.397  0.00  0.00    +0.004 A 
ATOM     24  C   UNL     1       0.636  -1.164  -3.534  0.00  0.00    +0.006 A 
ATOM     25  C   UNL     1       2.002  -1.381  -3.513  0.00  0.00    -0.027 A 
ATOM     26  C   UNL     1       2.720  -1.152  -2.354  0.00  0.00    +0.006 A 
ATOM     27  C   UNL     1       2.073  -0.702  -1.218  0.00  0.00    +0.004 A 
BRANCH  22  29
ATOM     28  C   UNL     1      -0.019   1.526   0.010  0.00  0.00    +0.009 C 
ATOM     29  C   UNL     1       0.002  -0.004   0.002  0.00  0.00    +0.032 C 
ENDBRANCH  22  29
ENDBRANCH  20  25
ENDBRANCH  16  20
ENDBRANCH   1  17
TORSDOF 5
