REMARK  Name = ZINC25372177
REMARK  3 active torsions:
REMARK  status: ('A' for Active; 'I' for Inactive)
REMARK    1  A    between atoms: C_1  and  C_2
REMARK    2  A    between atoms: C_5  and  S_9
REMARK    3  A    between atoms: S_9  and  N_12
REMARK                            x       y       z     vdW  Elec       q    Type
REMARK                         _______ _______ _______ _____ _____    ______ ____
ROOT
ATOM      1  S   UNL     1      -2.840   3.034   4.971  0.00  0.00    +0.063 S 
ATOM      2  O   UNL     1      -1.974   4.037   5.484  0.00  0.00    -0.153 OA
ATOM      3  O   UNL     1      -4.204   3.288   4.665  0.00  0.00    -0.153 OA
ENDROOT
BRANCH   1   4
ATOM      4  N   UNL     1      -2.823   1.790   6.064  0.00  0.00    -0.172 NA
ATOM      5  C   UNL     1      -3.863   0.751   6.027  0.00  0.00    +0.115 C 
ATOM      6  C   UNL     1      -3.186  -0.588   5.675  0.00  0.00    +0.060 C 
ATOM      7  C   UNL     1      -1.920  -0.706   6.460  0.00  0.00    -0.004 A 
ATOM      8  C   UNL     1      -1.243   0.281   7.108  0.00  0.00    -0.021 A 
ATOM      9  C   UNL     1      -0.074  -0.092   7.768  0.00  0.00    +0.013 A 
ATOM     10  C   UNL     1       0.334  -1.382   7.746  0.00  0.00    +0.046 A 
ATOM     11  S   UNL     1      -0.944  -2.155   6.766  0.00  0.00    -0.101 S 
ATOM     12  C   UNL     1      -1.773   1.713   7.089  0.00  0.00    +0.145 C 
ENDBRANCH   1   4
BRANCH   1  17
ATOM     13  C   UNL     1      -0.288   0.987  -0.100  0.00  0.00    +0.044 C 
ATOM     14  C   UNL     1      -0.925   1.498   1.167  0.00  0.00    -0.049 A 
ATOM     15  C   UNL     1      -2.269   1.820   1.183  0.00  0.00    +0.005 A 
ATOM     16  C   UNL     1      -2.855   2.284   2.346  0.00  0.00    +0.030 A 
ATOM     17  C   UNL     1      -2.094   2.436   3.490  0.00  0.00    +0.124 A 
ATOM     18  C   UNL     1      -0.748   2.119   3.473  0.00  0.00    +0.068 A 
ATOM     19  C   UNL     1      -0.163   1.649   2.310  0.00  0.00    +0.025 A 
ATOM     20 CL   UNL     1       0.208   2.310   4.909  0.00  0.00    -0.082 Cl
ENDBRANCH   1  17
TORSDOF 2
