REMARK  Name = ZINC40036230
REMARK  12 active torsions:
REMARK  status: ('A' for Active; 'I' for Inactive)
REMARK    1  A    between atoms: C_1  and  C_2
REMARK    2  A    between atoms: C_2  and  C_3
REMARK    3  A    between atoms: C_3  and  C_4
REMARK    4  A    between atoms: C_4  and  C_39
REMARK    5  A    between atoms: N_16  and  C_32
REMARK    6  A    between atoms: N_19  and  N_20
REMARK    7  A    between atoms: C_21  and  C_22
REMARK    8  A    between atoms: C_25  and  O_30
REMARK    9  A    between atoms: C_26  and  O_28
REMARK   10  A    between atoms: O_28  and  C_29
REMARK   11  A    between atoms: O_30  and  C_31
REMARK   12  A    between atoms: C_35  and  C_38
REMARK                            x       y       z     vdW  Elec       q    Type
REMARK                         _______ _______ _______ _____ _____    ______ ____
ROOT
ATOM      1  C   UNL     1       1.027  -1.244  -0.580  0.00  0.00    +0.004 C 
ATOM      2  C   UNL     1       1.207  -1.243  -2.096  0.00  0.00    +0.047 C 
ATOM      3  C   UNL     1       2.663  -1.370  -2.456  0.00  0.00    -0.037 A 
ATOM      4  C   UNL     1       3.172  -0.711  -3.555  0.00  0.00    +0.004 A 
ATOM      5  C   UNL     1       4.510  -0.836  -3.881  0.00  0.00    +0.000 A 
ATOM      6  C   UNL     1       5.348  -1.622  -3.110  0.00  0.00    +0.001 A 
ATOM      7  C   UNL     1       4.852  -2.287  -2.006  0.00  0.00    +0.010 A 
ATOM      8  C   UNL     1       3.506  -2.161  -1.674  0.00  0.00    +0.004 A 
ATOM      9  C   UNL     1       2.948  -2.853  -0.490  0.00  0.00    +0.084 A 
ATOM     10  C   UNL     1       1.743  -2.412   0.037  0.00  0.00    +0.050 A 
ATOM     11  C   UNL     1       1.211  -3.073   1.152  0.00  0.00    +0.264 A 
ATOM     12  O   UNL     1       0.153  -2.715   1.643  0.00  0.00    -0.267 OA
ATOM     13  N   UNL     1       1.895  -4.115   1.672  0.00  0.00    -0.248 N 
ATOM     14  C   UNL     1       3.079  -4.505   1.118  0.00  0.00    +0.223 A 
ATOM     15  N   UNL     1       3.583  -3.889   0.069  0.00  0.00    -0.214 NA
ATOM     16  N   UNL     1       3.758  -5.563   1.665  0.00  0.00    -0.206 N 
ATOM     17  C   UNL     1      -0.464  -1.335  -0.251  0.00  0.00    +0.017 C 
ATOM     18  H   UNL     1       3.362  -6.071   2.389  0.00  0.00    +0.177 HD
ENDROOT
BRANCH  13  19
ATOM     19  C   UNL     1       1.387  -4.797   2.785  0.00  0.00    +0.053 A 
ATOM     20  C   UNL     1       1.721  -4.383   4.067  0.00  0.00    +0.026 A 
ATOM     21  C   UNL     1       1.218  -5.058   5.162  0.00  0.00    +0.005 A 
ATOM     22  C   UNL     1       0.381  -6.144   4.982  0.00  0.00    -0.050 A 
ATOM     23  C   UNL     1       0.046  -6.559   3.707  0.00  0.00    +0.005 A 
ATOM     24  C   UNL     1       0.542  -5.885   2.607  0.00  0.00    +0.026 A 
ATOM     25  C   UNL     1      -0.166  -6.879   6.179  0.00  0.00    +0.044 C 
ENDBRANCH  13  19
BRANCH  16  26
ATOM     26  N   UNL     1       5.025  -5.909   1.177  0.00  0.00    -0.188 NA
ATOM     27  C   UNL     1       5.669  -6.910   1.694  0.00  0.00    +0.138 C 
BRANCH  27  28
ATOM     28  C   UNL     1       7.002  -7.274   1.181  0.00  0.00    -0.002 A 
ATOM     29  C   UNL     1       7.576  -6.539   0.141  0.00  0.00    +0.013 A 
ATOM     30  C   UNL     1       8.823  -6.882  -0.339  0.00  0.00    +0.050 A 
ATOM     31  C   UNL     1       9.510  -7.955   0.210  0.00  0.00    +0.162 A 
ATOM     32  C   UNL     1       8.943  -8.693   1.247  0.00  0.00    +0.162 A 
ATOM     33  C   UNL     1       7.696  -8.352   1.737  0.00  0.00    +0.059 A 
BRANCH  32  34
ATOM     34  O   UNL     1       9.619  -9.745   1.782  0.00  0.00    -0.491 OA
ATOM     35  C   UNL     1       8.978 -10.456   2.842  0.00  0.00    +0.277 C 
ENDBRANCH  32  34
BRANCH  31  36
ATOM     36  O   UNL     1      10.739  -8.289  -0.266  0.00  0.00    -0.491 OA
ATOM     37  C   UNL     1      11.261  -7.490  -1.331  0.00  0.00    +0.277 C 
ENDBRANCH  31  36
ENDBRANCH  27  28
ENDBRANCH  16  26
BRANCH   1  38
ATOM     38  C   UNL     1       1.593   0.056  -0.004  0.00  0.00    +0.011 C 
BRANCH  38  40
ATOM     39  C   UNL     1       1.954   1.373   2.087  0.00  0.00    +0.004 C 
ATOM     40  C   UNL     1       1.389   0.073   1.512  0.00  0.00    -0.003 C 
ENDBRANCH  38  40
ENDBRANCH   1  38
TORSDOF 7
