REMARK  Name = ZINC02644620
REMARK  5 active torsions:
REMARK  status: ('A' for Active; 'I' for Inactive)
REMARK    1  A    between atoms: C_1  and  C_2
REMARK    2  A    between atoms: C_2  and  C_22
REMARK    3  A    between atoms: N_5  and  C_9
REMARK    4  A    between atoms: C_9  and  C_10
REMARK    5  A    between atoms: C_13  and  C_15
REMARK                            x       y       z     vdW  Elec       q    Type
REMARK                         _______ _______ _______ _____ _____    ______ ____
ROOT
ATOM      1  C   UNL     1      -0.013   1.086   0.008  0.00  0.00    +0.047 C 
ATOM      2  C   UNL     1      -0.729   1.579   1.267  0.00  0.00    +0.135 C 
ATOM      3  C   UNL     1      -0.026   1.077   2.512  0.00  0.00    +0.251 C 
ATOM      4  O   UNL     1       1.113   1.313   2.856  0.00  0.00    -0.272 OA
ATOM      5  N   UNL     1      -0.929   0.314   3.158  0.00  0.00    -0.215 N 
ATOM      6  C   UNL     1      -2.094   0.265   2.501  0.00  0.00    +0.310 C 
ATOM      7  O   UNL     1      -3.062  -0.361   2.887  0.00  0.00    -0.252 OA
ATOM      8  N   UNL     1      -2.073   0.985   1.365  0.00  0.00    -0.281 N 
ATOM      9  H   UNL     1      -2.802   1.093   0.734  0.00  0.00    +0.152 HD
ENDROOT
BRANCH   2  10
ATOM     10  C   UNL     1      -0.809   3.084   1.274  0.00  0.00    -0.015 A 
ATOM     11  C   UNL     1       0.193   3.826   1.871  0.00  0.00    +0.007 A 
ATOM     12  C   UNL     1       0.123   5.207   1.873  0.00  0.00    +0.020 A 
ATOM     13  C   UNL     1      -0.956   5.845   1.287  0.00  0.00    +0.041 A 
ATOM     14  C   UNL     1      -1.961   5.102   0.695  0.00  0.00    +0.020 A 
ATOM     15  C   UNL     1      -1.887   3.721   0.689  0.00  0.00    +0.007 A 
ATOM     16 CL   UNL     1      -1.047   7.579   1.295  0.00  0.00    -0.084 Cl
ENDBRANCH   2  10
BRANCH   5  17
ATOM     17  C   UNL     1      -0.669  -0.377   4.424  0.00  0.00    +0.215 C 
BRANCH  17  18
ATOM     18  C   UNL     1      -1.033   0.528   5.573  0.00  0.00    +0.235 A 
ATOM     19  N   UNL     1      -2.200   0.610   6.148  0.00  0.00    -0.110 NA
ATOM     20  N   UNL     1      -2.152   1.481   7.095  0.00  0.00    -0.107 NA
ATOM     21  C   UNL     1      -0.946   1.994   7.150  0.00  0.00    +0.249 A 
ATOM     22  O   UNL     1      -0.214   1.400   6.186  0.00  0.00    -0.419 OA
BRANCH  21  23
ATOM     23  C   UNL     1      -0.476   3.031   8.093  0.00  0.00    +0.052 A 
ATOM     24  C   UNL     1      -1.350   3.561   9.044  0.00  0.00    +0.014 A 
ATOM     25  C   UNL     1      -0.906   4.528   9.922  0.00  0.00    +0.001 A 
ATOM     26  C   UNL     1       0.403   4.974   9.861  0.00  0.00    +0.001 A 
ATOM     27  C   UNL     1       1.274   4.455   8.921  0.00  0.00    +0.016 A 
ATOM     28  C   UNL     1       0.844   3.482   8.040  0.00  0.00    +0.030 A 
ATOM     29 BR   UNL     1       2.038   2.767   6.760  0.00  0.00    -0.050 Br
ENDBRANCH  21  23
ENDBRANCH  17  18
ENDBRANCH   5  17
TORSDOF 4
