REMARK  Name = ZINC19682128
REMARK  8 active torsions:
REMARK  status: ('A' for Active; 'I' for Inactive)
REMARK    1  A    between atoms: C_1  and  O_2
REMARK    2  A    between atoms: O_2  and  C_3
REMARK    3  A    between atoms: C_6  and  C_9
REMARK    4  A    between atoms: C_13  and  C_29
REMARK    5  A    between atoms: C_14  and  O_28
REMARK    6  A    between atoms: C_15  and  C_21
REMARK    7  A    between atoms: C_21  and  N_22
REMARK    8  A    between atoms: C_29  and  N_30
REMARK                            x       y       z     vdW  Elec       q    Type
REMARK                         _______ _______ _______ _____ _____    ______ ____
ROOT
ATOM      1  C   UNL     1      -0.977   6.252   4.913  0.00  0.00    +0.064 A 
ATOM      2  C   UNL     1      -0.247   5.909   3.821  0.00  0.00    +0.208 A 
ATOM      3  O   UNL     1      -0.807   5.631   2.641  0.00  0.00    -0.462 OA
ATOM      4  C   UNL     1      -2.138   5.667   2.427  0.00  0.00    +0.147 A 
ATOM      5  C   UNL     1      -2.659   5.367   1.176  0.00  0.00    +0.021 A 
ATOM      6  C   UNL     1      -4.027   5.410   0.964  0.00  0.00    +0.127 A 
ATOM      7  C   UNL     1      -4.896   5.743   1.999  0.00  0.00    +0.025 A 
ATOM      8  C   UNL     1      -4.398   6.045   3.252  0.00  0.00    +0.198 A 
ATOM      9  C   UNL     1      -3.015   6.008   3.472  0.00  0.00    +0.112 A 
ATOM     10  C   UNL     1      -2.443   6.322   4.791  0.00  0.00    +0.204 A 
ATOM     11  O   UNL     1      -3.150   6.625   5.738  0.00  0.00    -0.286 OA
ATOM     12  O   UNL     1      -5.242   6.374   4.262  0.00  0.00    -0.287 OA
ENDROOT
BRANCH   1  16
ATOM     13  C   UNL     1       0.934   7.110   8.615  0.00  0.00    +0.120 A 
ATOM     14  C   UNL     1       1.250   5.947   7.926  0.00  0.00    +0.046 A 
ATOM     15  C   UNL     1       0.632   5.666   6.725  0.00  0.00    +0.012 A 
ATOM     16  C   UNL     1      -0.310   6.551   6.204  0.00  0.00    -0.011 A 
ATOM     17  C   UNL     1      -0.621   7.721   6.896  0.00  0.00    +0.012 A 
ATOM     18  C   UNL     1      -0.003   7.994   8.099  0.00  0.00    +0.046 A 
BRANCH  13  20
ATOM     19  C   UNL     1       1.173   8.598  10.454  0.00  0.00    +0.277 C 
ATOM     20  O   UNL     1       1.545   7.384   9.798  0.00  0.00    -0.495 OA
ENDBRANCH  13  20
ENDBRANCH   1  16
BRANCH   6  21
ATOM     21  O   UNL     1      -4.526   5.121  -0.265  0.00  0.00    -0.506 OA
ATOM     22  H   UNL     1      -5.612   5.154  -0.439  0.00  0.00    +0.292 HD
ENDBRANCH   6  21
BRANCH   7  23
ATOM     23  C   UNL     1      -6.382   5.780   1.750  0.00  0.00    -0.035 C 
BRANCH  23  24
ATOM     24  N   UNL     1      -6.772   7.126   1.312  0.00  0.00    +0.383 N 
ATOM     25  C   UNL     1      -6.567   8.109   2.383  0.00  0.00    -0.078 C 
ATOM     26  C   UNL     1      -6.844   9.515   1.847  0.00  0.00    -0.019 C 
ATOM     27  C   UNL     1      -8.284   9.586   1.333  0.00  0.00    -0.004 C 
ATOM     28  C   UNL     1      -8.485   8.520   0.252  0.00  0.00    -0.019 C 
ATOM     29  C   UNL     1      -8.161   7.143   0.835  0.00  0.00    -0.078 C 
ATOM     30  H   UNL     1      -6.125   7.410   0.469  0.00  0.00    -0.081 HD
ENDBRANCH  23  24
ENDBRANCH   7  23
BRANCH   5  31
ATOM     31  C   UNL     1      -1.734   5.000   0.044  0.00  0.00    -0.036 C 
BRANCH  31  32
ATOM     32  N   UNL     1      -1.525   3.546   0.035  0.00  0.00    +0.383 N 
ATOM     33  C   UNL     1      -0.826   3.122  -1.185  0.00  0.00    -0.078 C 
ATOM     34  C   UNL     1      -0.756   1.594  -1.230  0.00  0.00    -0.019 C 
ATOM     35  C   UNL     1      -0.013   1.086   0.008  0.00  0.00    -0.004 C 
ATOM     36  C   UNL     1      -0.732   1.581   1.266  0.00  0.00    -0.019 C 
ATOM     37  C   UNL     1      -0.804   3.109   1.238  0.00  0.00    -0.078 C 
ATOM     38  H   UNL     1      -2.512   3.061   0.041  0.00  0.00    -0.081 HD
ENDBRANCH  31  32
ENDBRANCH   5  31
TORSDOF 7
