REMARK  Name = ZINC18119464
REMARK  10 active torsions:
REMARK  status: ('A' for Active; 'I' for Inactive)
REMARK    1  A    between atoms: C_1  and  C_2
REMARK    2  A    between atoms: C_5  and  N_9
REMARK    3  A    between atoms: C_6  and  C_8
REMARK    4  A    between atoms: C_12  and  N_22
REMARK    5  A    between atoms: N_13  and  C_14
REMARK    6  A    between atoms: C_16  and  C_21
REMARK    7  A    between atoms: C_18  and  C_20
REMARK    8  A    between atoms: N_22  and  C_23
REMARK    9  A    between atoms: C_27  and  O_29
REMARK   10  A    between atoms: O_29  and  C_30
REMARK                            x       y       z     vdW  Elec       q    Type
REMARK                         _______ _______ _______ _____ _____    ______ ____
ROOT
ATOM      1  N   UNL     1       0.301  -6.057   0.970  0.00  0.00    -0.295 N 
ATOM      2  C   UNL     1       0.176  -6.648  -0.259  0.00  0.00    +0.150 C 
ATOM      3  N   UNL     1       0.020  -5.900  -1.339  0.00  0.00    -0.306 N 
ATOM      4  C   UNL     1       0.050  -6.466  -2.556  0.00  0.00    +0.233 C 
ATOM      5  N   UNL     1      -0.088  -5.715  -3.638  0.00  0.00    -0.175 NA
ATOM      6  S   UNL     1       0.221  -8.403  -0.401  0.00  0.00    -0.016 SA
ATOM      7  H   UNL     1      -0.298  -6.305   1.691  0.00  0.00    +0.154 HD
ATOM      8  H   UNL     1      -0.116  -4.944  -1.252  0.00  0.00    +0.171 HD
ENDROOT
BRANCH   1  13
ATOM      9  C   UNL     1       4.326  -2.156   1.842  0.00  0.00    +0.044 C 
ATOM     10  C   UNL     1       3.257  -3.192   1.610  0.00  0.00    -0.050 A 
ATOM     11  C   UNL     1       3.219  -3.890   0.416  0.00  0.00    +0.005 A 
ATOM     12  C   UNL     1       2.241  -4.840   0.201  0.00  0.00    +0.024 A 
ATOM     13  C   UNL     1       1.294  -5.096   1.185  0.00  0.00    +0.036 A 
ATOM     14  C   UNL     1       1.335  -4.394   2.382  0.00  0.00    -0.029 A 
ATOM     15  C   UNL     1       2.319  -3.448   2.594  0.00  0.00    +0.008 A 
ATOM     16  C   UNL     1       0.309  -4.667   3.452  0.00  0.00    +0.045 C 
ENDBRANCH   1  13
BRANCH   5  17
ATOM     17  C   UNL     1       0.110  -4.374  -3.564  0.00  0.00    +0.254 A 
ATOM     18  N   UNL     1       0.586  -3.847  -2.438  0.00  0.00    -0.216 NA
ATOM     19  C   UNL     1       0.789  -2.545  -2.336  0.00  0.00    +0.044 A 
ATOM     20  C   UNL     1       0.502  -1.727  -3.418  0.00  0.00    +0.046 A 
ATOM     21  C   UNL     1       0.009  -2.306  -4.578  0.00  0.00    +0.044 A 
ATOM     22  N   UNL     1      -0.169  -3.615  -4.622  0.00  0.00    -0.216 NA
ATOM     23  C   UNL     1      -0.316  -1.452  -5.777  0.00  0.00    +0.066 C 
ATOM     24  C   UNL     1       1.327  -1.956  -1.057  0.00  0.00    +0.066 C 
ENDBRANCH   5  17
BRANCH   4  25
ATOM     25  N   UNL     1       0.225  -7.826  -2.679  0.00  0.00    -0.213 NA
BRANCH  25  26
ATOM     26  C   UNL     1       0.473  -8.388  -3.935  0.00  0.00    +0.071 A 
ATOM     27  C   UNL     1       1.167  -7.665  -4.896  0.00  0.00    +0.028 A 
ATOM     28  C   UNL     1       1.411  -8.220  -6.137  0.00  0.00    +0.006 A 
ATOM     29  C   UNL     1       0.966  -9.496  -6.426  0.00  0.00    +0.046 A 
ATOM     30  C   UNL     1       0.273 -10.224  -5.469  0.00  0.00    +0.122 A 
ATOM     31  C   UNL     1       0.030  -9.672  -4.221  0.00  0.00    +0.073 A 
BRANCH  30  32
ATOM     32  O   UNL     1      -0.165 -11.479  -5.755  0.00  0.00    -0.495 OA
ATOM     33  C   UNL     1       0.125 -11.985  -7.059  0.00  0.00    +0.277 C 
ENDBRANCH  30  32
ENDBRANCH  25  26
ENDBRANCH   4  25
TORSDOF 5
