REMARK  Name = ZINC60131913
REMARK  9 active torsions:
REMARK  status: ('A' for Active; 'I' for Inactive)
REMARK    1  A    between atoms: C_1  and  C_2
REMARK    2  A    between atoms: C_2  and  N_3
REMARK    3  A    between atoms: N_3  and  C_4
REMARK    4  A    between atoms: N_3  and  S_19
REMARK    5  A    between atoms: N_8  and  C_10
REMARK    6  A    between atoms: C_10  and  C_12
REMARK    7  A    between atoms: C_10  and  C_13
REMARK    8  A    between atoms: S_19  and  C_22
REMARK    9  A    between atoms: C_25  and  C_28
REMARK                            x       y       z     vdW  Elec       q    Type
REMARK                         _______ _______ _______ _____ _____    ______ ____
ROOT
ATOM      1  C   UNL     1       2.024  -0.702  -1.363  0.00  0.00    +0.062 C 
ATOM      2  C   UNL     1       2.797   0.554  -0.897  0.00  0.00    +0.000 C 
ATOM      3  C   UNL     1       3.148   0.219   0.574  0.00  0.00    -0.076 C 
ATOM      4  N   UNL     1       3.449  -1.235   0.529  0.00  0.00    +0.385 N 
ATOM      5  C   UNL     1       2.462  -1.825  -0.404  0.00  0.00    -0.057 C 
ATOM      6  H   UNL     1       4.386  -1.386   0.185  0.00  0.00    -0.081 HD
ENDROOT
BRANCH   4   7
ATOM      7  C   UNL     1       3.298  -1.825   1.866  0.00  0.00    -0.041 C 
ATOM      8  C   UNL     1       3.578  -3.328   1.795  0.00  0.00    -0.008 C 
BRANCH   7   9
ATOM      9  C   UNL     1       4.274  -1.178   2.814  0.00  0.00    -0.061 A 
ATOM     10  C   UNL     1       5.555  -0.879   2.390  0.00  0.00    +0.002 A 
ATOM     11  C   UNL     1       6.450  -0.285   3.260  0.00  0.00    +0.000 A 
ATOM     12  C   UNL     1       6.064   0.011   4.554  0.00  0.00    +0.000 A 
ATOM     13  C   UNL     1       4.782  -0.287   4.978  0.00  0.00    +0.000 A 
ATOM     14  C   UNL     1       3.886  -0.877   4.107  0.00  0.00    +0.002 A 
ENDBRANCH   7   9
ENDBRANCH   4   7
BRANCH   1  15
ATOM     15  N   UNL     1       0.580  -0.478  -1.258  0.00  0.00    -0.176 NA
BRANCH  15  16
ATOM     16  S   UNL     1      -0.368  -0.542  -2.614  0.00  0.00    +0.061 S 
ATOM     17  O   UNL     1       0.327  -1.344  -3.558  0.00  0.00    -0.153 OA
ATOM     18  O   UNL     1      -1.684  -0.849  -2.175  0.00  0.00    -0.153 OA
BRANCH  16  19
ATOM     19  C   UNL     1      -0.428   1.087  -3.285  0.00  0.00    +0.106 A 
ATOM     20  C   UNL     1      -1.415   1.965  -2.879  0.00  0.00    +0.029 A 
ATOM     21  C   UNL     1      -1.462   3.243  -3.405  0.00  0.00    +0.005 A 
ATOM     22  C   UNL     1      -0.523   3.642  -4.337  0.00  0.00    -0.050 A 
ATOM     23  C   UNL     1       0.465   2.763  -4.742  0.00  0.00    +0.005 A 
ATOM     24  C   UNL     1       0.515   1.487  -4.213  0.00  0.00    +0.029 A 
ATOM     25  C   UNL     1      -0.575   5.034  -4.912  0.00  0.00    +0.044 C 
ENDBRANCH  16  19
ENDBRANCH  15  16
BRANCH  15  27
ATOM     26  C   UNL     1       0.061   1.303   0.336  0.00  0.00    +0.022 C 
ATOM     27  C   UNL     1      -0.025  -0.197   0.046  0.00  0.00    +0.106 C 
ENDBRANCH  15  27
ENDBRANCH   1  15
TORSDOF 6
