REMARK  Name = ZINC07993505
REMARK  4 active torsions:
REMARK  status: ('A' for Active; 'I' for Inactive)
REMARK    1  A    between atoms: C_1  and  C_2
REMARK    2  A    between atoms: N_10  and  C_11
REMARK    3  A    between atoms: C_11  and  C_12
REMARK    4  A    between atoms: N_14  and  N_15
REMARK                            x       y       z     vdW  Elec       q    Type
REMARK                         _______ _______ _______ _____ _____    ______ ____
ROOT
ATOM      1  C   UNL     1      -5.378   2.246  -0.143  0.00  0.00    +0.252 C 
ATOM      2  O   UNL     1      -6.187   3.149  -0.130  0.00  0.00    -0.272 OA
ATOM      3  N   UNL     1      -4.061   2.518  -0.052  0.00  0.00    -0.205 N 
ATOM      4  H   UNL     1      -3.414   1.796  -0.062  0.00  0.00    +0.177 HD
ENDROOT
BRANCH   3   5
ATOM      5  N   UNL     1      -3.627   3.846   0.057  0.00  0.00    -0.179 NA
ATOM      6  C   UNL     1      -2.349   4.121   0.023  0.00  0.00    +0.097 C 
ATOM      7  C   UNL     1      -1.253   3.173  -0.277  0.00  0.00    +0.010 A 
ATOM      8  C   UNL     1      -1.246   1.817  -0.593  0.00  0.00    +0.011 A 
ATOM      9  C   UNL     1      -0.049   1.171  -0.826  0.00  0.00    +0.001 A 
ATOM     10  C   UNL     1       1.147   1.867  -0.758  0.00  0.00    +0.001 A 
ATOM     11  C   UNL     1       1.157   3.212  -0.452  0.00  0.00    +0.009 A 
ATOM     12  C   UNL     1      -0.041   3.881  -0.208  0.00  0.00    -0.008 A 
ATOM     13  C   UNL     1      -0.334   5.289   0.136  0.00  0.00    -0.008 A 
ATOM     14  C   UNL     1      -1.725   5.438   0.276  0.00  0.00    +0.010 A 
ATOM     15  C   UNL     1      -2.260   6.682   0.600  0.00  0.00    +0.011 A 
ATOM     16  C   UNL     1      -1.423   7.764   0.783  0.00  0.00    +0.001 A 
ATOM     17  C   UNL     1      -0.052   7.620   0.645  0.00  0.00    +0.001 A 
ATOM     18  C   UNL     1       0.495   6.394   0.324  0.00  0.00    +0.009 A 
ENDBRANCH   3   5
BRANCH   1  19
ATOM     19  C   UNL     1      -5.845   0.818  -0.260  0.00  0.00    +0.220 C 
BRANCH  19  29
ATOM     20  C   UNL     1      -7.490   0.939  -2.876  0.00  0.00    +0.086 C 
ATOM     21  C   UNL     1      -8.051   0.840  -1.481  0.00  0.00    +0.108 A 
ATOM     22  N   UNL     1      -9.318   0.791  -1.189  0.00  0.00    -0.233 NA
ATOM     23  C   UNL     1      -9.474   0.705   0.157  0.00  0.00    +0.089 A 
ATOM     24  C   UNL     1     -10.589   0.626   0.995  0.00  0.00    +0.030 A 
ATOM     25  C   UNL     1     -10.419   0.530   2.347  0.00  0.00    +0.002 A 
ATOM     26  C   UNL     1      -9.148   0.524   2.902  0.00  0.00    +0.002 A 
ATOM     27  C   UNL     1      -8.033   0.606   2.095  0.00  0.00    +0.028 A 
ATOM     28  C   UNL     1      -8.186   0.695   0.718  0.00  0.00    +0.069 A 
ATOM     29  N   UNL     1      -7.307   0.788  -0.343  0.00  0.00    -0.319 N 
ENDBRANCH  19  29
ENDBRANCH   1  19
TORSDOF 3
