REMARK  Name = ZINC29927157
REMARK  9 active torsions:
REMARK  status: ('A' for Active; 'I' for Inactive)
REMARK    1  A    between atoms: C_1  and  C_2
REMARK    2  A    between atoms: C_2  and  C_3
REMARK    3  A    between atoms: C_3  and  C_4
REMARK    4  A    between atoms: C_4  and  N_5
REMARK    5  A    between atoms: C_6  and  C_8
REMARK    6  A    between atoms: N_11  and  C_14
REMARK    7  A    between atoms: C_14  and  C_16
REMARK    8  A    between atoms: C_14  and  C_17
REMARK    9  A    between atoms: N_19  and  C_20
REMARK                            x       y       z     vdW  Elec       q    Type
REMARK                         _______ _______ _______ _____ _____    ______ ____
ROOT
ATOM      1  C   UNL     1      -6.189  -3.480  -0.998  0.00  0.00    +0.071 C 
ATOM      2  C   UNL     1      -6.902  -3.105   0.304  0.00  0.00    -0.006 C 
ATOM      3  C   UNL     1      -7.796  -4.267   0.744  0.00  0.00    -0.077 C 
ATOM      4  N   UNL     1      -6.975  -5.464   0.961  0.00  0.00    +0.387 N 
ATOM      5  C   UNL     1      -6.345  -5.872  -0.301  0.00  0.00    -0.077 C 
ATOM      6  C   UNL     1      -5.396  -4.771  -0.780  0.00  0.00    -0.006 C 
ATOM      7  H   UNL     1      -6.260  -5.261   1.643  0.00  0.00    -0.081 HD
ENDROOT
BRANCH   1   9
ATOM      8  N   UNL     1      -5.728  -1.136  -1.639  0.00  0.00    -0.315 N 
ATOM      9  C   UNL     1      -5.249  -2.371  -1.395  0.00  0.00    +0.216 C 
ATOM     10  O   UNL     1      -4.060  -2.591  -1.494  0.00  0.00    -0.276 OA
ATOM     11  H   UNL     1      -6.679  -0.960  -1.560  0.00  0.00    +0.149 HD
BRANCH   8  12
ATOM     12  C   UNL     1      -4.814  -0.058  -2.025  0.00  0.00    +0.104 C 
BRANCH  12  13
ATOM     13  C   UNL     1      -5.608   1.232  -2.242  0.00  0.00    +0.018 C 
BRANCH  13  15
ATOM     14  C   UNL     1      -5.447   3.647  -2.862  0.00  0.00    +0.004 C 
ATOM     15  C   UNL     1      -4.653   2.357  -2.645  0.00  0.00    -0.002 C 
ENDBRANCH  13  15
ENDBRANCH  12  13
ENDBRANCH   8  12
ENDBRANCH   1   9
BRANCH   4  16
ATOM     16  C   UNL     1      -7.825  -6.555   1.457  0.00  0.00    +0.016 C 
ATOM     17  C   UNL     1      -6.984  -7.823   1.621  0.00  0.00    -0.004 C 
BRANCH  16  18
ATOM     18  C   UNL     1      -8.414  -6.167   2.788  0.00  0.00    +0.203 C 
ATOM     19  O   UNL     1      -7.823  -5.393   3.511  0.00  0.00    -0.277 OA
ATOM     20  N   UNL     1      -9.598  -6.680   3.176  0.00  0.00    -0.287 N 
ATOM     21  H   UNL     1     -10.039  -7.350   2.631  0.00  0.00    +0.155 HD
BRANCH  20  22
ATOM     22  C   UNL     1     -10.193  -6.247   4.367  0.00  0.00    +0.033 A 
ATOM     23  C   UNL     1     -11.573  -6.123   4.451  0.00  0.00    +0.025 A 
ATOM     24  C   UNL     1     -12.157  -5.695   5.627  0.00  0.00    +0.022 A 
ATOM     25  C   UNL     1     -11.367  -5.389   6.722  0.00  0.00    +0.041 A 
ATOM     26  C   UNL     1      -9.991  -5.512   6.641  0.00  0.00    +0.022 A 
ATOM     27  C   UNL     1      -9.403  -5.945   5.469  0.00  0.00    +0.025 A 
ATOM     28 CL   UNL     1     -12.104  -4.851   8.198  0.00  0.00    -0.084 Cl
ENDBRANCH  20  22
ENDBRANCH  16  18
ENDBRANCH   4  16
TORSDOF 7
