REMARK  Name = ZINC36618854
REMARK  9 active torsions:
REMARK  status: ('A' for Active; 'I' for Inactive)
REMARK    1  A    between atoms: C_1  and  C_2
REMARK    2  A    between atoms: C_5  and  C_9
REMARK    3  A    between atoms: C_6  and  C_8
REMARK    4  A    between atoms: C_16  and  N_32
REMARK    5  A    between atoms: C_17  and  C_30
REMARK    6  A    between atoms: C_18  and  C_20
REMARK    7  A    between atoms: C_23  and  C_26
REMARK    8  A    between atoms: C_26  and  O_28
REMARK    9  A    between atoms: O_28  and  C_29
REMARK                            x       y       z     vdW  Elec       q    Type
REMARK                         _______ _______ _______ _____ _____    ______ ____
ROOT
ATOM      1  C   UNL     1       0.211  -4.590  -0.005  0.00  0.00    +0.101 A 
ATOM      2  C   UNL     1       0.026  -5.256  -1.220  0.00  0.00    +0.054 A 
ATOM      3  C   UNL     1       0.036  -6.598  -0.972  0.00  0.00    +0.223 A 
ATOM      4  N   UNL     1       0.222  -6.769   0.354  0.00  0.00    -0.246 N 
ATOM      5  H   UNL     1       0.273  -7.620   0.817  0.00  0.00    +0.192 HD
ATOM      6  N   UNL     1       0.334  -5.500   0.943  0.00  0.00    -0.171 NA
ATOM      7  O   UNL     1      -0.123  -7.525  -1.949  0.00  0.00    -0.423 OA
ATOM      8  C   UNL     1      -0.568  -7.098  -3.149  0.00  0.00    +0.200 C 
ATOM      9  C   UNL     1      -0.613  -5.797  -3.514  0.00  0.00    +0.098 C 
ATOM     10  C   UNL     1      -0.158  -4.685  -2.602  0.00  0.00    +0.102 C 
ENDROOT
BRANCH   1  15
ATOM     11  C   UNL     1       0.422   1.118   0.733  0.00  0.00    +0.044 C 
ATOM     12  C   UNL     1       0.366  -0.375   0.540  0.00  0.00    -0.050 A 
ATOM     13  C   UNL     1      -0.668  -0.939  -0.185  0.00  0.00    +0.004 A 
ATOM     14  C   UNL     1      -0.724  -2.306  -0.365  0.00  0.00    +0.010 A 
ATOM     15  C   UNL     1       0.265  -3.119   0.185  0.00  0.00    +0.005 A 
ATOM     16  C   UNL     1       1.305  -2.546   0.914  0.00  0.00    -0.041 A 
ATOM     17  C   UNL     1       1.353  -1.177   1.084  0.00  0.00    +0.007 A 
ATOM     18  C   UNL     1       2.378  -3.419   1.512  0.00  0.00    +0.044 C 
ENDBRANCH   1  15
BRANCH  10  19
ATOM     19  C   UNL     1       1.149  -4.122  -3.098  0.00  0.00    -0.035 A 
ATOM     20  C   UNL     1       2.266  -4.935  -3.168  0.00  0.00    +0.005 A 
ATOM     21  C   UNL     1       3.466  -4.426  -3.621  0.00  0.00    +0.015 A 
ATOM     22  C   UNL     1       3.550  -3.088  -4.010  0.00  0.00    +0.059 A 
ATOM     23  C   UNL     1       2.419  -2.273  -3.937  0.00  0.00    +0.015 A 
ATOM     24  C   UNL     1       1.224  -2.797  -3.487  0.00  0.00    +0.005 A 
BRANCH  22  25
ATOM     25  C   UNL     1       4.832  -2.536  -4.495  0.00  0.00    +0.339 C 
ATOM     26  O   UNL     1       5.815  -3.247  -4.557  0.00  0.00    -0.245 OA
BRANCH  25  27
ATOM     27  O   UNL     1       4.910  -1.244  -4.870  0.00  0.00    -0.464 OA
ATOM     28  C   UNL     1       6.180  -0.778  -5.329  0.00  0.00    +0.280 C 
ENDBRANCH  25  27
ENDBRANCH  22  25
ENDBRANCH  10  19
BRANCH   8  29
ATOM     29  N   UNL     1      -1.000  -8.038  -4.051  0.00  0.00    -0.328 N 
ATOM     30  H   UNL     1      -0.980  -8.979  -3.817  0.00  0.00    +0.145 HD
ATOM     31  H   UNL     1      -1.325  -7.761  -4.921  0.00  0.00    +0.145 HD
ENDBRANCH   8  29
BRANCH   9  32
ATOM     32  C   UNL     1      -1.110  -5.463  -4.815  0.00  0.00    +0.101 C 
ATOM     33  N   UNL     1      -1.504  -5.198  -5.847  0.00  0.00    -0.191 NA
ENDBRANCH   9  32
TORSDOF 6
