REMARK  Name = ZINC15066450
REMARK  7 active torsions:
REMARK  status: ('A' for Active; 'I' for Inactive)
REMARK    1  A    between atoms: C_1  and  C_2
REMARK    2  A    between atoms: C_2  and  C_31
REMARK    3  A    between atoms: N_8  and  C_9
REMARK    4  A    between atoms: C_15  and  N_59
REMARK    5  A    between atoms: C_18  and  C_19
REMARK    6  A    between atoms: C_18  and  N_59
REMARK    7  A    between atoms: C_22  and  N_25
REMARK                            x       y       z     vdW  Elec       q    Type
REMARK                         _______ _______ _______ _____ _____    ______ ____
ROOT
ATOM      1  C   UNL     1      -0.567   3.098  -1.329  0.00  0.00    +0.011 C 
ATOM      2  C   UNL     1      -0.752   1.585  -1.192  0.00  0.00    -0.031 C 
ATOM      3  C   UNL     1      -0.004   1.089   0.051  0.00  0.00    +0.062 C 
ATOM      4  C   UNL     1      -0.728   1.593   1.275  0.00  0.00    +0.047 A 
ATOM      5  C   UNL     1      -1.999   2.070   1.265  0.00  0.00    -0.020 A 
ATOM      6  C   UNL     1      -2.329   2.444   2.566  0.00  0.00    +0.137 A 
ATOM      7  N   UNL     1      -1.295   2.201   3.334  0.00  0.00    -0.174 NA
ATOM      8  N   UNL     1      -0.272   1.662   2.539  0.00  0.00    -0.237 N 
ATOM      9  C   UNL     1      -2.861   2.156   0.029  0.00  0.00    -0.037 C 
ATOM     10  C   UNL     1      -2.243   1.264  -1.054  0.00  0.00    -0.005 C 
ATOM     11  C   UNL     1      -0.194   0.889  -2.435  0.00  0.00    +0.011 C 
ENDROOT
BRANCH   8  12
ATOM     12  C   UNL     1       0.998   1.267   2.982  0.00  0.00    +0.066 A 
ATOM     13  C   UNL     1       1.623   0.167   2.409  0.00  0.00    +0.028 A 
ATOM     14  C   UNL     1       2.876  -0.217   2.844  0.00  0.00    +0.002 A 
ATOM     15  C   UNL     1       3.503   0.485   3.857  0.00  0.00    +0.000 A 
ATOM     16  C   UNL     1       2.881   1.577   4.433  0.00  0.00    +0.002 A 
ATOM     17  C   UNL     1       1.630   1.970   3.998  0.00  0.00    +0.028 A 
ENDBRANCH   8  12
BRANCH   9  18
ATOM     18  N   UNL     1      -4.222   1.680   0.338  0.00  0.00    +0.386 N 
ATOM     19  H   UNL     1      -4.168   0.925   1.032  0.00  0.00    -0.085 HD
ATOM     20  H   UNL     1      -4.659   1.324  -0.520  0.00  0.00    -0.085 HD
BRANCH  18  21
ATOM     21  C   UNL     1      -5.040   2.781   0.880  0.00  0.00    -0.046 C 
BRANCH  21  22
ATOM     22  C   UNL     1      -6.423   2.266   1.185  0.00  0.00    -0.064 A 
ATOM     23  C   UNL     1      -7.409   2.320   0.217  0.00  0.00    +0.003 A 
ATOM     24  C   UNL     1      -8.676   1.844   0.492  0.00  0.00    +0.024 A 
ATOM     25  C   UNL     1      -8.962   1.320   1.746  0.00  0.00    +0.038 A 
ATOM     26  C   UNL     1      -7.971   1.272   2.718  0.00  0.00    +0.024 A 
ATOM     27  C   UNL     1      -6.704   1.745   2.435  0.00  0.00    +0.003 A 
BRANCH  25  28
ATOM     28  N   UNL     1     -10.246   0.841   2.030  0.00  0.00    -0.254 N 
ATOM     29  C   UNL     1     -10.645   0.156   3.268  0.00  0.00    +0.134 C 
ATOM     30  C   UNL     1     -12.141  -0.149   3.055  0.00  0.00    +0.125 C 
ATOM     31  N   UNL     1     -12.425   0.397   1.719  0.00  0.00    -0.297 N 
ATOM     32  C   UNL     1     -11.307   0.939   1.218  0.00  0.00    +0.307 C 
ATOM     33  O   UNL     1     -11.259   1.468   0.125  0.00  0.00    -0.252 OA
ATOM     34  H   UNL     1     -13.286   0.372   1.274  0.00  0.00    +0.150 HD
ENDBRANCH  25  28
ENDBRANCH  21  22
ENDBRANCH  18  21
ENDBRANCH   9  18
TORSDOF 5
