REMARK  Name = ZINC00636916
REMARK  7 active torsions:
REMARK  status: ('A' for Active; 'I' for Inactive)
REMARK    1  A    between atoms: C_1  and  C_2
REMARK    2  A    between atoms: C_3  and  C_25
REMARK    3  A    between atoms: C_4  and  C_16
REMARK    4  A    between atoms: C_10  and  C_14
REMARK    5  A    between atoms: C_10  and  C_15
REMARK    6  A    between atoms: C_19  and  O_23
REMARK    7  A    between atoms: O_23  and  C_24
REMARK                            x       y       z     vdW  Elec       q    Type
REMARK                         _______ _______ _______ _____ _____    ______ ____
ROOT
ATOM      1  C   UNL     1       0.166   1.698  -4.833  0.00  0.00    +0.061 C 
ATOM      2  C   UNL     1      -0.641   1.880  -3.573  0.00  0.00    +0.019 C 
ATOM      3  C   UNL     1      -1.963   2.096  -3.654  0.00  0.00    +0.058 C 
ATOM      4  C   UNL     1      -2.798   2.288  -2.422  0.00  0.00    +0.096 C 
ATOM      5  C   UNL     1      -2.076   1.789  -1.195  0.00  0.00    +0.024 C 
ATOM      6  C   UNL     1      -0.741   1.585  -1.215  0.00  0.00    +0.016 C 
ATOM      7  N   UNL     1      -0.020   1.825  -2.352  0.00  0.00    -0.320 N 
ATOM      8  C   UNL     1      -0.013   1.086   0.008  0.00  0.00    +0.058 C 
ATOM      9  C   UNL     1      -0.728   1.579   1.268  0.00  0.00    -0.023 C 
ATOM     10  C   UNL     1      -2.174   1.074   1.236  0.00  0.00    +0.086 C 
ATOM     11  C   UNL     1      -2.829   1.548  -0.033  0.00  0.00    +0.162 C 
ATOM     12  O   UNL     1      -4.031   1.726  -0.053  0.00  0.00    -0.292 OA
ATOM     13  C   UNL     1      -0.021   1.030   2.509  0.00  0.00    +0.011 C 
ATOM     14  C   UNL     1      -0.718   3.108   1.300  0.00  0.00    +0.011 C 
ATOM     15  H   UNL     1       1.068   1.974  -2.281  0.00  0.00    +0.152 HD
ENDROOT
BRANCH   4  16
ATOM     16  C   UNL     1      -3.103   3.754  -2.255  0.00  0.00    -0.033 A 
ATOM     17  C   UNL     1      -4.415   4.190  -2.247  0.00  0.00    +0.008 A 
ATOM     18  C   UNL     1      -4.697   5.533  -2.094  0.00  0.00    +0.047 A 
ATOM     19  C   UNL     1      -3.663   6.446  -1.947  0.00  0.00    +0.138 A 
ATOM     20  C   UNL     1      -2.346   6.007  -1.955  0.00  0.00    +0.083 A 
ATOM     21  C   UNL     1      -2.070   4.660  -2.103  0.00  0.00    +0.028 A 
ATOM     22 CL   UNL     1      -1.049   7.146  -1.773  0.00  0.00    -0.080 Cl
BRANCH  19  23
ATOM     23  O   UNL     1      -3.939   7.769  -1.797  0.00  0.00    -0.494 OA
ATOM     24  C   UNL     1      -5.316   8.149  -1.798  0.00  0.00    +0.277 C 
ENDBRANCH  19  23
ENDBRANCH   4  16
BRANCH   3  25
ATOM     25  C   UNL     1      -2.589   2.144  -4.941  0.00  0.00    +0.097 C 
ATOM     26  N   UNL     1      -3.086   2.182  -5.962  0.00  0.00    -0.191 NA
ENDBRANCH   3  25
TORSDOF 3
