REMARK  Name = ZINC11868660
REMARK  7 active torsions:
REMARK  status: ('A' for Active; 'I' for Inactive)
REMARK    1  A    between atoms: C_1  and  C_2
REMARK    2  A    between atoms: C_2  and  C_3
REMARK    3  A    between atoms: C_2  and  C_4
REMARK    4  A    between atoms: C_7  and  C_10
REMARK    5  A    between atoms: C_17  and  O_21
REMARK    6  A    between atoms: O_21  and  C_22
REMARK    7  A    between atoms: C_22  and  C_23
REMARK                            x       y       z     vdW  Elec       q    Type
REMARK                         _______ _______ _______ _____ _____    ______ ____
ROOT
ATOM      1  C   UNL     1       2.445   1.775  -0.012  0.00  0.00    +0.058 C 
ATOM      2  C   UNL     1       1.137   2.129  -0.020  0.00  0.00    +0.176 C 
ATOM      3  C   UNL     1      -0.014   1.211  -0.021  0.00  0.00    +0.231 C 
ATOM      4  O   UNL     1       0.005  -0.008  -0.015  0.00  0.00    -0.283 OA
ATOM      5  C   UNL     1      -1.193   2.095  -0.038  0.00  0.00    +0.068 A 
ATOM      6  C   UNL     1      -2.567   1.854  -0.037  0.00  0.00    +0.019 A 
ATOM      7  C   UNL     1      -3.443   2.902  -0.047  0.00  0.00    +0.046 A 
ATOM      8  C   UNL     1      -2.967   4.211  -0.050  0.00  0.00    +0.126 A 
ATOM      9  C   UNL     1      -1.605   4.466  -0.044  0.00  0.00    +0.092 A 
ATOM     10  C   UNL     1      -0.701   3.410  -0.035  0.00  0.00    +0.143 A 
ATOM     11  O   UNL     1       0.650   3.393  -0.028  0.00  0.00    -0.451 OA
ENDROOT
BRANCH   1  15
ATOM     12  C   UNL     1       5.449   4.749  -0.344  0.00  0.00    -0.045 A 
ATOM     13  C   UNL     1       4.122   5.122  -0.225  0.00  0.00    +0.004 A 
ATOM     14  C   UNL     1       3.139   4.161  -0.117  0.00  0.00    +0.008 A 
ATOM     15  C   UNL     1       3.487   2.806  -0.128  0.00  0.00    -0.021 A 
ATOM     16  C   UNL     1       4.832   2.437  -0.243  0.00  0.00    +0.008 A 
ATOM     17  C   UNL     1       5.802   3.410  -0.356  0.00  0.00    +0.004 A 
BRANCH  12  19
ATOM     18  C   UNL     1       7.501   5.670   0.701  0.00  0.00    +0.012 C 
ATOM     19  C   UNL     1       6.517   5.806  -0.463  0.00  0.00    +0.013 C 
ATOM     20  C   UNL     1       7.265   5.629  -1.786  0.00  0.00    +0.012 C 
ENDBRANCH  12  19
ENDBRANCH   1  15
BRANCH   8  21
ATOM     21  O   UNL     1      -3.845   5.246  -0.059  0.00  0.00    -0.477 OA
BRANCH  21  22
ATOM     22  C   UNL     1      -5.235   4.917  -0.065  0.00  0.00    +0.346 C 
BRANCH  22  23
ATOM     23  C   UNL     1      -6.032   6.155  -0.074  0.00  0.00    +0.104 C 
ATOM     24  N   UNL     1      -6.647   7.110  -0.082  0.00  0.00    -0.193 NA
ENDBRANCH  22  23
ENDBRANCH  21  22
ENDBRANCH   8  21
TORSDOF 5
