REMARK  Name = ZINC63189915
REMARK  4 active torsions:
REMARK  status: ('A' for Active; 'I' for Inactive)
REMARK    1  A    between atoms: C_4  and  C_7
REMARK    2  A    between atoms: C_7  and  S_8
REMARK    3  A    between atoms: S_8  and  N_11
REMARK    4  A    between atoms: C_16  and  C_18
REMARK                            x       y       z     vdW  Elec       q    Type
REMARK                         _______ _______ _______ _____ _____    ______ ____
ROOT
ATOM      1  N   UNL     1       5.631  -1.933   1.677  0.00  0.00    -0.179 NA
ATOM      2  C   UNL     1       5.519  -3.393   1.561  0.00  0.00    +0.109 C 
ATOM      3  C   UNL     1       6.149  -3.832   0.235  0.00  0.00    +0.017 C 
ATOM      4  C   UNL     1       7.583  -3.303   0.156  0.00  0.00    +0.003 C 
ATOM      5  C   UNL     1       7.568  -1.774   0.201  0.00  0.00    +0.019 C 
ATOM      6  C   UNL     1       6.953  -1.311   1.520  0.00  0.00    +0.065 C 
ENDROOT
BRANCH   6   7
ATOM      7  C   UNL     1       6.805   0.212   1.508  0.00  0.00    -0.053 C 
ATOM      8  C   UNL     1       5.873   0.640   0.355  0.00  0.00    -0.016 C 
ATOM      9  C   UNL     1       6.538   1.941  -0.167  0.00  0.00    -0.021 C 
ATOM     10  C   UNL     1       8.042   1.616   0.009  0.00  0.00    -0.082 C 
ATOM     11  N   UNL     1       8.117   0.842   1.271  0.00  0.00    +0.382 N 
ATOM     12  H   UNL     1       8.341   1.458   2.037  0.00  0.00    -0.085 HD
ATOM     13  H   UNL     1       8.826   0.129   1.191  0.00  0.00    -0.085 HD
ENDBRANCH   6   7
BRANCH   1  14
ATOM     14  S   UNL     1       4.292  -1.005   1.972  0.00  0.00    +0.036 S 
ATOM     15  O   UNL     1       4.804   0.227   2.460  0.00  0.00    -0.158 OA
ATOM     16  O   UNL     1       3.460  -1.818   2.788  0.00  0.00    -0.158 OA
BRANCH  14  17
ATOM     17  C   UNL     1       3.525  -0.762   0.346  0.00  0.00    +0.220 C 
BRANCH  17  21
ATOM     18  C   UNL     1      -0.180   1.312   0.811  0.00  0.00    +0.000 A 
ATOM     19  C   UNL     1       0.991   2.022   0.623  0.00  0.00    +0.000 A 
ATOM     20  C   UNL     1       2.190   1.351   0.473  0.00  0.00    +0.005 A 
ATOM     21  C   UNL     1       2.218  -0.031   0.511  0.00  0.00    -0.025 A 
ATOM     22  C   UNL     1       1.047  -0.741   0.699  0.00  0.00    +0.005 A 
ATOM     23  C   UNL     1      -0.152  -0.070   0.848  0.00  0.00    +0.000 A 
ENDBRANCH  17  21
ENDBRANCH  14  17
ENDBRANCH   1  14
TORSDOF 4
