REMARK  Name = ZINC02456367
REMARK  5 active torsions:
REMARK  status: ('A' for Active; 'I' for Inactive)
REMARK    1  A    between atoms: C_1  and  C_2
REMARK    2  A    between atoms: C_2  and  C_3
REMARK    3  A    between atoms: C_2  and  C_4
REMARK    4  A    between atoms: C_4  and  C_5
REMARK    5  A    between atoms: C_18  and  C_20
REMARK                            x       y       z     vdW  Elec       q    Type
REMARK                         _______ _______ _______ _____ _____    ______ ____
ROOT
ATOM      1  C   UNL     1      -1.341   0.684   2.155  0.00  0.00    +0.217 C 
ATOM      2  O   UNL     1      -1.953   1.128   3.103  0.00  0.00    -0.276 OA
ATOM      3  N   UNL     1      -0.664   1.518   1.340  0.00  0.00    -0.282 N 
ATOM      4  C   UNL     1       0.057   0.946   0.216  0.00  0.00    +0.204 C 
ATOM      5  C   UNL     1      -0.618   1.315  -1.066  0.00  0.00    +0.235 C 
ATOM      6  O   UNL     1      -0.592   0.489  -1.954  0.00  0.00    -0.274 OA
ATOM      7  N   UNL     1      -1.232   2.433  -1.325  0.00  0.00    -0.284 N 
ATOM      8  C   UNL     1      -1.781   3.468  -0.605  0.00  0.00    +0.039 A 
ATOM      9  C   UNL     1      -2.615   4.329  -1.339  0.00  0.00    +0.025 A 
ATOM     10  C   UNL     1      -3.236   5.402  -0.748  0.00  0.00    +0.022 A 
ATOM     11  C   UNL     1      -3.037   5.652   0.599  0.00  0.00    +0.041 A 
ATOM     12  C   UNL     1      -2.212   4.822   1.325  0.00  0.00    +0.027 A 
ATOM     13  C   UNL     1      -1.575   3.733   0.734  0.00  0.00    -0.000 A 
ATOM     14  C   UNL     1      -0.689   2.927   1.632  0.00  0.00    +0.139 C 
ATOM     15 CL   UNL     1      -3.821   6.998   1.366  0.00  0.00    -0.084 Cl
ATOM     16  H   UNL     1      -1.328   2.574  -2.280  0.00  0.00    +0.155 HD
ENDROOT
BRANCH  14  17
ATOM     17  C   UNL     1       0.715   3.463   1.522  0.00  0.00    -0.022 A 
ATOM     18  C   UNL     1       1.360   3.945   2.647  0.00  0.00    +0.008 A 
ATOM     19  C   UNL     1       2.650   4.432   2.549  0.00  0.00    +0.038 A 
ATOM     20  C   UNL     1       3.292   4.448   1.322  0.00  0.00    +0.123 A 
ATOM     21  C   UNL     1       2.643   3.971   0.196  0.00  0.00    +0.038 A 
ATOM     22  C   UNL     1       1.356   3.478   0.297  0.00  0.00    +0.008 A 
ATOM     23  F   UNL     1       4.550   4.930   1.224  0.00  0.00    -0.205 F 
ENDBRANCH  14  17
BRANCH   1  24
ATOM     24  C   UNL     1      -1.337  -0.799   1.887  0.00  0.00    +0.099 C 
BRANCH  24  26
ATOM     25  C   UNL     1      -3.637  -1.081   2.822  0.00  0.00    +0.008 C 
ATOM     26  C   UNL     1      -2.174  -1.511   2.951  0.00  0.00    -0.008 C 
ATOM     27  C   UNL     1      -2.069  -3.025   2.754  0.00  0.00    +0.008 C 
ENDBRANCH  24  26
ENDBRANCH   1  24
TORSDOF 3
