REMARK  Name = ZINC18128100
REMARK  3 active torsions:
REMARK  status: ('A' for Active; 'I' for Inactive)
REMARK    1  A    between atoms: C_4  and  C_7
REMARK    2  A    between atoms: C_10  and  C_20
REMARK    3  A    between atoms: C_24  and  N_26
REMARK                            x       y       z     vdW  Elec       q    Type
REMARK                         _______ _______ _______ _____ _____    ______ ____
ROOT
ATOM      1  C   UNL     1       3.635  -0.683  -0.020  0.00  0.00    +0.108 C 
ATOM      2  C   UNL     1       3.916  -1.197  -1.421  0.00  0.00    +0.083 C 
ATOM      3  C   UNL     1       2.805  -2.048  -1.927  0.00  0.00    +0.052 C 
ATOM      4  N   UNL     1       2.085  -2.853  -1.282  0.00  0.00    -0.243 NA
ATOM      5  C   UNL     1       1.948  -3.221  -0.003  0.00  0.00    +0.168 A 
ATOM      6  C   UNL     1       2.669  -2.708   1.072  0.00  0.00    +0.152 A 
ATOM      7  N   UNL     1       2.413  -3.164   2.315  0.00  0.00    -0.221 NA
ATOM      8  C   UNL     1       1.518  -4.079   2.549  0.00  0.00    +0.201 A 
ATOM      9  N   UNL     1       0.790  -4.625   1.554  0.00  0.00    -0.312 N 
ATOM     10  C   UNL     1       0.974  -4.227   0.282  0.00  0.00    +0.279 A 
ATOM     11  O   UNL     1       0.316  -4.719  -0.618  0.00  0.00    -0.265 OA
ATOM     12  N   UNL     1       3.645  -1.760   0.943  0.00  0.00    -0.320 N 
ATOM     13  H   UNL     1       4.402  -1.813   1.547  0.00  0.00    +0.148 HD
ATOM     14  H   UNL     1       0.132  -5.308   1.756  0.00  0.00    +0.170 HD
ENDROOT
BRANCH   1  18
ATOM     15  C   UNL     1      -0.192   1.213   0.035  0.00  0.00    +0.000 A 
ATOM     16  C   UNL     1       0.305   0.626   1.184  0.00  0.00    +0.000 A 
ATOM     17  C   UNL     1       1.543   0.012   1.166  0.00  0.00    +0.005 A 
ATOM     18  C   UNL     1       2.285  -0.015  -0.001  0.00  0.00    -0.027 A 
ATOM     19  C   UNL     1       1.787   0.572  -1.149  0.00  0.00    +0.005 A 
ATOM     20  C   UNL     1       0.549   1.187  -1.131  0.00  0.00    +0.000 A 
ENDBRANCH   1  18
BRANCH   3  21
ATOM     21  C   UNL     1       2.511  -1.934  -3.365  0.00  0.00    -0.002 A 
ATOM     22  C   UNL     1       3.361  -1.201  -4.200  0.00  0.00    +0.010 A 
ATOM     23  C   UNL     1       3.079  -1.099  -5.546  0.00  0.00    +0.003 A 
ATOM     24  C   UNL     1       1.959  -1.720  -6.071  0.00  0.00    +0.033 A 
ATOM     25  C   UNL     1       1.114  -2.446  -5.252  0.00  0.00    +0.127 A 
ATOM     26  C   UNL     1       1.385  -2.563  -3.905  0.00  0.00    +0.042 A 
BRANCH  25  27
ATOM     27  N   UNL     1      -0.082  -3.105  -5.824  0.00  0.00    +0.056 N 
ATOM     28  O   UNL     1      -0.319  -3.008  -7.005  0.00  0.00    -0.126 OA
ATOM     29  O   UNL     1      -0.822  -3.740  -5.109  0.00  0.00    -0.126 OA
ENDBRANCH  25  27
ENDBRANCH   3  21
TORSDOF 3
