REMARK  Name = ZINC10149402
REMARK  10 active torsions:
REMARK  status: ('A' for Active; 'I' for Inactive)
REMARK    1  A    between atoms: C_1  and  C_2
REMARK    2  A    between atoms: C_2  and  C_3
REMARK    3  A    between atoms: C_4  and  C_27
REMARK    4  A    between atoms: C_6  and  N_11
REMARK    5  A    between atoms: C_7  and  C_8
REMARK    6  A    between atoms: C_12  and  C_14
REMARK    7  A    between atoms: C_14  and  C_16
REMARK    8  A    between atoms: C_14  and  O_17
REMARK    9  A    between atoms: O_17  and  C_18
REMARK   10  A    between atoms: C_21  and  N_24
REMARK                            x       y       z     vdW  Elec       q    Type
REMARK                         _______ _______ _______ _____ _____    ______ ____
ROOT
ATOM      1  N   UNL     1      -2.820   0.952   2.519  0.00  0.00    -0.276 N 
ATOM      2  C   UNL     1      -3.523   0.472   3.564  0.00  0.00    +0.258 C 
ATOM      3  O   UNL     1      -4.632   0.013   3.389  0.00  0.00    -0.271 OA
ATOM      4  H   UNL     1      -1.933   1.320   2.659  0.00  0.00    +0.155 HD
ENDROOT
BRANCH   1   8
ATOM      5  C   UNL     1      -3.594   1.200  -1.141  0.00  0.00    -0.024 A 
ATOM      6  C   UNL     1      -4.810   0.642  -0.999  0.00  0.00    -0.008 A 
ATOM      7  S   UNL     1      -4.912   0.322   0.750  0.00  0.00    -0.078 S 
ATOM      8  C   UNL     1      -3.364   0.920   1.244  0.00  0.00    +0.084 A 
ATOM      9  C   UNL     1      -2.800   1.363   0.054  0.00  0.00    +0.068 A 
ATOM     10  C   UNL     1      -5.837   0.356  -2.063  0.00  0.00    +0.052 C 
BRANCH   9  11
ATOM     11  C   UNL     1      -1.461   1.960   0.012  0.00  0.00    +0.244 C 
ATOM     12  O   UNL     1      -1.327   3.162   0.145  0.00  0.00    -0.270 OA
ATOM     13  N   UNL     1      -0.380   1.177  -0.173  0.00  0.00    -0.325 N 
ATOM     14  H   UNL     1      -0.487   0.219  -0.279  0.00  0.00    +0.145 HD
ATOM     15  H   UNL     1       0.505   1.572  -0.205  0.00  0.00    +0.145 HD
ENDBRANCH   9  11
BRANCH   5  17
ATOM     16  C   UNL     1      -2.334   0.480  -3.151  0.00  0.00    +0.009 C 
ATOM     17  C   UNL     1      -3.083   1.638  -2.489  0.00  0.00    +0.033 C 
ENDBRANCH   5  17
ENDBRANCH   1   8
BRANCH   2  18
ATOM     18  C   UNL     1      -2.932   0.507   4.950  0.00  0.00    +0.256 C 
ATOM     19  C   UNL     1      -2.748   1.961   5.390  0.00  0.00    +0.062 C 
BRANCH  18  20
ATOM     20  O   UNL     1      -3.811  -0.158   5.860  0.00  0.00    -0.480 OA
BRANCH  20  21
ATOM     21  C   UNL     1      -3.256  -0.675   6.987  0.00  0.00    +0.122 A 
ATOM     22  C   UNL     1      -1.915  -0.454   7.266  0.00  0.00    +0.048 A 
ATOM     23  C   UNL     1      -1.354  -0.976   8.416  0.00  0.00    +0.036 A 
ATOM     24  C   UNL     1      -2.126  -1.727   9.283  0.00  0.00    +0.126 A 
ATOM     25  C   UNL     1      -3.462  -1.953   9.005  0.00  0.00    +0.036 A 
ATOM     26  C   UNL     1      -4.028  -1.429   7.859  0.00  0.00    +0.048 A 
BRANCH  24  27
ATOM     27  N   UNL     1      -1.522  -2.289  10.511  0.00  0.00    +0.056 N 
ATOM     28  O   UNL     1      -2.201  -2.951  11.276  0.00  0.00    -0.126 OA
ATOM     29  O   UNL     1      -0.345  -2.091  10.757  0.00  0.00    -0.126 OA
ENDBRANCH  24  27
ENDBRANCH  20  21
ENDBRANCH  18  20
ENDBRANCH   2  18
TORSDOF 7
