REMARK  Name = ZINC05698011
REMARK  7 active torsions:
REMARK  status: ('A' for Active; 'I' for Inactive)
REMARK    1  A    between atoms: C_1  and  C_2
REMARK    2  A    between atoms: C_5  and  O_9
REMARK    3  A    between atoms: O_9  and  C_10
REMARK    4  A    between atoms: C_10  and  C_12
REMARK    5  A    between atoms: C_10  and  C_13
REMARK    6  A    between atoms: N_15  and  N_16
REMARK    7  A    between atoms: C_17  and  C_18
REMARK                            x       y       z     vdW  Elec       q    Type
REMARK                         _______ _______ _______ _____ _____    ______ ____
ROOT
ATOM      1  C   UNL     1      -1.180   1.788   0.184  0.00  0.00    +0.273 C 
ATOM      2  O   UNL     1      -1.277   2.984  -0.000  0.00  0.00    -0.270 OA
ATOM      3  N   UNL     1       0.035   1.228   0.349  0.00  0.00    -0.204 N 
ATOM      4  H   UNL     1       0.112   0.273   0.496  0.00  0.00    +0.177 HD
ENDROOT
BRANCH   1   5
ATOM      5  C   UNL     1      -2.418   0.930   0.228  0.00  0.00    +0.257 C 
ATOM      6  C   UNL     1      -2.405  -0.045  -0.950  0.00  0.00    +0.062 C 
BRANCH   5   7
ATOM      7  O   UNL     1      -3.578   1.761   0.146  0.00  0.00    -0.479 OA
BRANCH   7  12
ATOM      8  C   UNL     1      -8.345  -0.275   2.349  0.00  0.00    +0.044 C 
ATOM      9  C   UNL     1      -7.070   0.270   1.760  0.00  0.00    -0.049 A 
ATOM     10  C   UNL     1      -5.939  -0.524   1.708  0.00  0.00    +0.007 A 
ATOM     11  C   UNL     1      -4.770  -0.029   1.163  0.00  0.00    +0.047 A 
ATOM     12  C   UNL     1      -4.728   1.270   0.677  0.00  0.00    +0.136 A 
ATOM     13  C   UNL     1      -5.864   2.065   0.730  0.00  0.00    +0.060 A 
ATOM     14  C   UNL     1      -7.033   1.563   1.271  0.00  0.00    +0.022 A 
ATOM     15 BR   UNL     1      -5.814   3.833   0.061  0.00  0.00    -0.047 Br
ENDBRANCH   7  12
ENDBRANCH   5   7
ENDBRANCH   1   5
BRANCH   3  16
ATOM     16  N   UNL     1       1.186   2.026   0.302  0.00  0.00    -0.187 NA
ATOM     17  C   UNL     1       2.356   1.486   0.455  0.00  0.00    +0.142 C 
BRANCH  17  18
ATOM     18  C   UNL     1       3.567   2.324   0.405  0.00  0.00    +0.048 A 
ATOM     19  C   UNL     1       4.830   1.746   0.570  0.00  0.00    +0.133 A 
ATOM     20  C   UNL     1       5.960   2.540   0.522  0.00  0.00    +0.039 A 
ATOM     21  C   UNL     1       5.844   3.902   0.312  0.00  0.00    +0.004 A 
ATOM     22  C   UNL     1       4.598   4.481   0.149  0.00  0.00    +0.021 A 
ATOM     23  C   UNL     1       3.460   3.701   0.188  0.00  0.00    +0.052 A 
ATOM     24 CL   UNL     1       1.899   4.429  -0.026  0.00  0.00    -0.083 Cl
ATOM     25  F   UNL     1       4.945   0.416   0.776  0.00  0.00    -0.205 F 
ENDBRANCH  17  18
ENDBRANCH   3  16
TORSDOF 5
