REMARK  Name = ZINC35744105
REMARK  11 active torsions:
REMARK  status: ('A' for Active; 'I' for Inactive)
REMARK    1  A    between atoms: C_1  and  C_2
REMARK    2  A    between atoms: C_2  and  C_3
REMARK    3  A    between atoms: C_2  and  C_4
REMARK    4  A    between atoms: C_2  and  O_32
REMARK    5  A    between atoms: C_4  and  N_5
REMARK    6  A    between atoms: N_5  and  C_6
REMARK    7  A    between atoms: N_5  and  C_9
REMARK    8  A    between atoms: C_6  and  C_7
REMARK    9  A    between atoms: C_9  and  C_10
REMARK   10  A    between atoms: N_22  and  C_25
REMARK   11  A    between atoms: C_25  and  C_26
REMARK                            x       y       z     vdW  Elec       q    Type
REMARK                         _______ _______ _______ _____ _____    ______ ____
ROOT
ATOM      1  C   UNL     1      -3.645  -2.210  -1.383  0.00  0.00    +0.094 A 
ATOM      2  N   UNL     1      -4.884  -2.717  -1.612  0.00  0.00    -0.312 N 
ATOM      3  H   UNL     1      -5.300  -3.278  -0.939  0.00  0.00    +0.170 HD
ATOM      4  C   UNL     1      -5.547  -2.457  -2.754  0.00  0.00    +0.260 A 
ATOM      5  O   UNL     1      -6.659  -2.919  -2.944  0.00  0.00    -0.267 OA
ATOM      6  C   UNL     1      -4.924  -1.627  -3.743  0.00  0.00    +0.075 A 
ATOM      7  C   UNL     1      -5.445  -1.214  -5.043  0.00  0.00    -0.020 A 
ATOM      8  C   UNL     1      -4.654  -0.421  -5.799  0.00  0.00    +0.010 A 
ATOM      9  S   UNL     1      -3.190  -0.181  -4.833  0.00  0.00    -0.072 S 
ATOM     10  C   UNL     1      -3.644  -1.150  -3.416  0.00  0.00    +0.116 A 
ATOM     11  N   UNL     1      -3.054  -1.446  -2.262  0.00  0.00    -0.229 NA
ATOM     12  C   UNL     1      -4.971   0.121  -7.158  0.00  0.00    +0.127 C 
ATOM     13  N   UNL     1      -6.123  -0.627  -7.696  0.00  0.00    -0.293 NA
ATOM     14  C   UNL     1      -7.206  -0.693  -6.705  0.00  0.00    +0.090 C 
ATOM     15  C   UNL     1      -6.817  -1.636  -5.564  0.00  0.00    +0.052 C 
ENDROOT
BRANCH   1  16
ATOM     16  C   UNL     1      -2.943  -2.530  -0.088  0.00  0.00    -0.003 C 
BRANCH  16  17
ATOM     17  N   UNL     1      -1.670  -1.799  -0.028  0.00  0.00    +0.388 N 
ATOM     18  H   UNL     1      -1.412  -1.496  -0.956  0.00  0.00    -0.081 HD
BRANCH  17  19
ATOM     19  C   UNL     1      -1.819  -0.627   0.846  0.00  0.00    -0.043 C 
BRANCH  19  21
ATOM     20  C   UNL     1      -2.948   1.585   1.116  0.00  0.00    +0.039 C 
ATOM     21  C   UNL     1      -2.761   0.383   0.188  0.00  0.00    +0.046 C 
ATOM     22  C   UNL     1      -2.159   0.853  -1.139  0.00  0.00    +0.039 C 
BRANCH  21  23
ATOM     23  O   UNL     1      -4.027  -0.233  -0.055  0.00  0.00    -0.391 OA
ATOM     24  H   UNL     1      -4.654   0.330  -0.529  0.00  0.00    +0.210 HD
ENDBRANCH  21  23
ENDBRANCH  19  21
ENDBRANCH  17  19
BRANCH  17  25
ATOM     25  C   UNL     1      -0.624  -2.679   0.508  0.00  0.00    -0.051 C 
BRANCH  25  26
ATOM     26  C   UNL     1       0.702  -1.964   0.473  0.00  0.00    -0.053 C 
ATOM     27  C   UNL     1       1.406  -1.836   1.570  0.00  0.00    +0.002 C 
ENDBRANCH  25  26
ENDBRANCH  17  25
ENDBRANCH  16  17
ENDBRANCH   1  16
BRANCH  13  28
ATOM     28  C   UNL     1      -6.595  -0.033  -8.954  0.00  0.00    +0.120 C 
BRANCH  28  29
ATOM     29  C   UNL     1      -5.537  -0.193 -10.014  0.00  0.00    -0.033 A 
ATOM     30  C   UNL     1      -4.571   0.783 -10.179  0.00  0.00    +0.005 A 
ATOM     31  C   UNL     1      -3.599   0.636 -11.152  0.00  0.00    +0.000 A 
ATOM     32  C   UNL     1      -3.594  -0.486 -11.959  0.00  0.00    +0.000 A 
ATOM     33  C   UNL     1      -4.559  -1.462 -11.794  0.00  0.00    +0.000 A 
ATOM     34  C   UNL     1      -5.528  -1.317 -10.818  0.00  0.00    +0.005 A 
ENDBRANCH  28  29
ENDBRANCH  13  28
TORSDOF 9
