REMARK  Name = ZINC36273482
REMARK  10 active torsions:
REMARK  status: ('A' for Active; 'I' for Inactive)
REMARK    1  A    between atoms: C_1  and  C_2
REMARK    2  A    between atoms: C_2  and  C_3
REMARK    3  A    between atoms: C_3  and  C_4
REMARK    4  A    between atoms: C_4  and  N_5
REMARK    5  A    between atoms: N_5  and  C_6
REMARK    6  A    between atoms: N_5  and  C_7
REMARK    7  A    between atoms: C_7  and  C_8
REMARK    8  A    between atoms: C_9  and  C_18
REMARK    9  A    between atoms: C_14  and  N_17
REMARK   10  A    between atoms: N_24  and  C_29
REMARK                            x       y       z     vdW  Elec       q    Type
REMARK                         _______ _______ _______ _____ _____    ______ ____
ROOT
ATOM      1  C   UNL     1       2.502  -4.238   3.601  0.00  0.00    +0.035 A 
ATOM      2  C   UNL     1       3.773  -4.718   3.498  0.00  0.00    +0.091 A 
ATOM      3  N   UNL     1       4.069  -5.373   4.631  0.00  0.00    -0.228 NA
ATOM      4  C   UNL     1       3.025  -5.322   5.447  0.00  0.00    +0.138 A 
ATOM      5  N   UNL     1       2.030  -4.611   4.828  0.00  0.00    -0.303 N 
ATOM      6  C   UNL     1       0.834  -4.402   5.457  0.00  0.00    +0.115 A 
ATOM      7  C   UNL     1       0.616  -4.891   6.702  0.00  0.00    +0.041 A 
ATOM      8  C   UNL     1       1.624  -5.622   7.362  0.00  0.00    +0.028 A 
ATOM      9  C   UNL     1       2.812  -5.842   6.740  0.00  0.00    +0.048 A 
ENDROOT
BRANCH   2  10
ATOM     10  C   UNL     1       4.676  -4.546   2.333  0.00  0.00    +0.004 A 
ATOM     11  C   UNL     1       6.015  -4.215   2.530  0.00  0.00    +0.014 A 
ATOM     12  C   UNL     1       6.857  -4.055   1.448  0.00  0.00    +0.048 A 
ATOM     13  C   UNL     1       6.371  -4.223   0.161  0.00  0.00    +0.143 A 
ATOM     14  C   UNL     1       5.031  -4.553  -0.042  0.00  0.00    +0.079 A 
ATOM     15  C   UNL     1       4.186  -4.720   1.040  0.00  0.00    +0.037 A 
ATOM     16  N   UNL     1       4.557  -4.717  -1.352  0.00  0.00    -0.269 N 
ATOM     17  C   UNL     1       5.447  -4.866  -2.357  0.00  0.00    +0.257 C 
ATOM     18  O   UNL     1       5.061  -4.979  -3.501  0.00  0.00    -0.272 OA
ATOM     19  C   UNL     1       6.923  -4.891  -2.051  0.00  0.00    +0.325 C 
ATOM     20  O   UNL     1       7.191  -4.068  -0.913  0.00  0.00    -0.481 OA
ATOM     21  C   UNL     1       3.118  -4.727  -1.626  0.00  0.00    +0.138 C 
ENDBRANCH   2  10
BRANCH   7  22
ATOM     22  N   UNL     1      -0.615  -4.668   7.335  0.00  0.00    -0.357 N 
ATOM     23  H   UNL     1      -1.309  -4.165   6.882  0.00  0.00    +0.142 HD
ATOM     24  H   UNL     1      -0.772  -5.017   8.226  0.00  0.00    +0.142 HD
ENDBRANCH   7  22
BRANCH   1  25
ATOM     25  C   UNL     1       1.759  -3.441   2.561  0.00  0.00    -0.022 C 
BRANCH  25  26
ATOM     26  N   UNL     1       2.129  -2.023   2.673  0.00  0.00    +0.382 N 
ATOM     27  C   UNL     1       1.670  -1.499   3.966  0.00  0.00    -0.096 C 
ATOM     28  H   UNL     1       3.132  -1.932   2.610  0.00  0.00    -0.082 HD
BRANCH  26  29
ATOM     29  C   UNL     1       1.498  -1.265   1.585  0.00  0.00    -0.079 C 
BRANCH  29  30
ATOM     30  C   UNL     1       1.982   0.186   1.628  0.00  0.00    -0.019 C 
BRANCH  30  32
ATOM     31  C   UNL     1       1.808   2.427   0.537  0.00  0.00    +0.004 C 
ATOM     32  C   UNL     1       1.325   0.976   0.494  0.00  0.00    -0.005 C 
ENDBRANCH  30  32
ENDBRANCH  29  30
ENDBRANCH  26  29
ENDBRANCH  25  26
ENDBRANCH   1  25
TORSDOF 7
