REMARK  Name = ZINC11846278
REMARK  6 active torsions:
REMARK  status: ('A' for Active; 'I' for Inactive)
REMARK    1  A    between atoms: C_1  and  N_2
REMARK    2  A    between atoms: C_6  and  C_7
REMARK    3  A    between atoms: C_7  and  C_9
REMARK    4  A    between atoms: C_7  and  N_51
REMARK    5  A    between atoms: C_9  and  N_10
REMARK    6  A    between atoms: C_11  and  C_13
REMARK                            x       y       z     vdW  Elec       q    Type
REMARK                         _______ _______ _______ _____ _____    ______ ____
ROOT
ATOM      1  C   UNL     1      -1.431  -0.905  -0.397  0.00  0.00    -0.003 C 
ENDROOT
BRANCH   1   8
ATOM      2  C   UNL     1      -2.304  -3.150  -0.723  0.00  0.00    -0.078 C 
ATOM      3  C   UNL     1      -1.990  -4.621  -0.742  0.00  0.00    -0.019 C 
ATOM      4  C   UNL     1      -2.008  -5.145   0.709  0.00  0.00    -0.002 C 
ATOM      5  C   UNL     1      -0.784  -4.812   1.430  0.00  0.00    -0.002 C 
ATOM      6  C   UNL     1      -0.568  -3.288   1.538  0.00  0.00    -0.019 C 
ATOM      7  C   UNL     1      -0.028  -2.789   0.225  0.00  0.00    -0.078 C 
ATOM      8  N   UNL     1      -1.071  -2.291  -0.735  0.00  0.00    +0.386 N 
ATOM      9  H   UNL     1      -0.673  -2.308  -1.682  0.00  0.00    -0.081 HD
ENDBRANCH   1   8
BRANCH   1  15
ATOM     10  C   UNL     1      -1.252   2.160   0.036  0.00  0.00    +0.148 C 
ATOM     11  N   UNL     1      -0.178   1.322  -0.503  0.00  0.00    -0.355 N 
ATOM     12  C   UNL     1       1.051   1.761  -0.895  0.00  0.00    +0.085 A 
ATOM     13  C   UNL     1       1.757   0.700  -1.338  0.00  0.00    +0.019 A 
ATOM     14  C   UNL     1       0.932  -0.436  -1.214  0.00  0.00    +0.021 A 
ATOM     15  C   UNL     1      -0.245  -0.025  -0.700  0.00  0.00    +0.006 A 
ENDBRANCH   1  15
BRANCH   1  16
ATOM     16  C   UNL     1      -2.616  -0.480  -1.267  0.00  0.00    +0.095 C 
BRANCH  16  17
ATOM     17  N   UNL     1      -2.302  -0.729  -2.676  0.00  0.00    -0.312 N 
ATOM     18  C   UNL     1      -3.162  -0.339  -3.637  0.00  0.00    +0.245 C 
ATOM     19  O   UNL     1      -4.154   0.299  -3.343  0.00  0.00    -0.270 OA
ATOM     20  H   UNL     1      -1.475  -1.175  -2.917  0.00  0.00    +0.149 HD
BRANCH  18  21
ATOM     21  C   UNL     1      -2.900  -0.687  -5.049  0.00  0.00    +0.056 A 
ATOM     22  C   UNL     1      -1.829  -1.519  -5.379  0.00  0.00    +0.034 A 
ATOM     23  C   UNL     1      -1.592  -1.844  -6.699  0.00  0.00    +0.042 A 
ATOM     24  C   UNL     1      -2.408  -1.338  -7.697  0.00  0.00    +0.021 A 
ATOM     25  C   UNL     1      -3.467  -0.509  -7.379  0.00  0.00    +0.022 A 
ATOM     26  C   UNL     1      -3.719  -0.180  -6.061  0.00  0.00    +0.053 A 
ATOM     27 CL   UNL     1      -5.050   0.861  -5.662  0.00  0.00    -0.083 Cl
ATOM     28 CL   UNL     1      -0.264  -2.884  -7.111  0.00  0.00    -0.084 Cl
ENDBRANCH  18  21
ENDBRANCH  16  17
ENDBRANCH   1  16
TORSDOF 5
