REMARK  Name = ZINC17193149
REMARK  8 active torsions:
REMARK  status: ('A' for Active; 'I' for Inactive)
REMARK    1  A    between atoms: C_1  and  C_2
REMARK    2  A    between atoms: C_5  and  C_8
REMARK    3  A    between atoms: N_14  and  C_15
REMARK    4  A    between atoms: C_15  and  C_16
REMARK    5  A    between atoms: C_16  and  C_17
REMARK    6  A    between atoms: N_19  and  N_20
REMARK    7  A    between atoms: C_21  and  C_23
REMARK    8  A    between atoms: N_32  and  C_34
REMARK                            x       y       z     vdW  Elec       q    Type
REMARK                         _______ _______ _______ _____ _____    ______ ____
ROOT
ATOM      1  C   UNL     1      -0.980  -4.002   4.516  0.00  0.00    +0.231 C 
ATOM      2  O   UNL     1       0.097  -3.637   4.938  0.00  0.00    -0.274 OA
ATOM      3  N   UNL     1      -2.081  -3.884   5.285  0.00  0.00    -0.234 N 
ATOM      4  H   UNL     1      -2.942  -4.176   4.947  0.00  0.00    +0.173 HD
ENDROOT
BRANCH   3   5
ATOM      5  N   UNL     1      -1.981  -3.341   6.572  0.00  0.00    -0.229 N 
ATOM      6  C   UNL     1      -3.081  -3.223   7.341  0.00  0.00    +0.281 C 
ATOM      7  O   UNL     1      -4.161  -3.589   6.918  0.00  0.00    -0.267 OA
ATOM      8  H   UNL     1      -1.119  -3.049   6.910  0.00  0.00    +0.173 HD
BRANCH   6   9
ATOM      9  C   UNL     1      -2.976  -2.650   8.698  0.00  0.00    +0.155 A 
ATOM     10  C   UNL     1      -4.171  -2.523   9.548  0.00  0.00    +0.020 A 
ATOM     11  C   UNL     1      -5.436  -2.925   9.133  0.00  0.00    +0.011 A 
ATOM     12  C   UNL     1      -6.508  -2.773   9.987  0.00  0.00    +0.001 A 
ATOM     13  C   UNL     1      -6.338  -2.225  11.251  0.00  0.00    +0.001 A 
ATOM     14  C   UNL     1      -5.092  -1.820  11.682  0.00  0.00    +0.014 A 
ATOM     15  C   UNL     1      -3.997  -1.965  10.835  0.00  0.00    +0.050 A 
ATOM     16  C   UNL     1      -2.636  -1.560  11.214  0.00  0.00    +0.275 A 
ATOM     17  O   UNL     1      -2.412  -1.073  12.307  0.00  0.00    -0.266 OA
ATOM     18  N   UNL     1      -1.641  -1.741  10.322  0.00  0.00    -0.231 N 
ATOM     19  N   UNL     1      -1.816  -2.253   9.162  0.00  0.00    -0.163 NA
ATOM     20  C   UNL     1      -0.286  -1.336  10.703  0.00  0.00    +0.176 C 
ENDBRANCH   6   9
ENDBRANCH   3   5
BRANCH   1  21
ATOM     21  C   UNL     1      -1.088  -4.587   3.131  0.00  0.00    +0.119 C 
BRANCH  21  22
ATOM     22  C   UNL     1       0.295  -4.607   2.477  0.00  0.00    +0.135 C 
BRANCH  22  29
ATOM     23  C   UNL     1       0.069  -4.239  -0.020  0.00  0.00    +0.163 A 
ATOM     24  N   UNL     1      -0.017  -4.989  -1.082  0.00  0.00    -0.153 NA
ATOM     25  N   UNL     1       0.023  -6.329  -0.671  0.00  0.00    -0.254 N 
ATOM     26  H   UNL     1      -0.022  -7.107  -1.248  0.00  0.00    +0.191 HD
ATOM     27  C   UNL     1       0.137  -6.338   0.672  0.00  0.00    +0.176 A 
ATOM     28  S   UNL     1       0.227  -7.726   1.670  0.00  0.00    -0.011 S 
ATOM     29  N   UNL     1       0.172  -5.056   1.088  0.00  0.00    -0.303 N 
BRANCH  23  34
ATOM     30  C   UNL     1       0.050   1.517   0.037  0.00  0.00    +0.044 C 
ATOM     31  C   UNL     1       0.055   0.010   0.022  0.00  0.00    -0.050 A 
ATOM     32  C   UNL     1       0.399  -0.666  -1.135  0.00  0.00    +0.004 A 
ATOM     33  C   UNL     1       0.406  -2.046  -1.155  0.00  0.00    +0.012 A 
ATOM     34  C   UNL     1       0.065  -2.759  -0.005  0.00  0.00    +0.019 A 
ATOM     35  C   UNL     1      -0.281  -2.071   1.158  0.00  0.00    +0.012 A 
ATOM     36  C   UNL     1      -0.279  -0.691   1.167  0.00  0.00    +0.004 A 
ENDBRANCH  23  34
ENDBRANCH  22  29
ENDBRANCH  21  22
ENDBRANCH   1  21
TORSDOF 6
