REMARK  Name = ZINC67025289
REMARK  7 active torsions:
REMARK  status: ('A' for Active; 'I' for Inactive)
REMARK    1  A    between atoms: C_1  and  N_2
REMARK    2  A    between atoms: N_2  and  C_3
REMARK    3  A    between atoms: C_4  and  S_6
REMARK    4  A    between atoms: S_6  and  C_7
REMARK    5  A    between atoms: C_10  and  N_13
REMARK    6  A    between atoms: C_14  and  C_16
REMARK    7  A    between atoms: C_16  and  C_17
REMARK                            x       y       z     vdW  Elec       q    Type
REMARK                         _______ _______ _______ _____ _____    ______ ____
ROOT
ATOM      1  N   UNL     1       0.252  -4.248  -6.821  0.00  0.00    -0.285 N 
ATOM      2  C   UNL     1       0.111  -5.556  -7.115  0.00  0.00    +0.222 C 
ATOM      3  O   UNL     1       0.028  -6.373  -6.222  0.00  0.00    -0.275 OA
ATOM      4  H   UNL     1       0.386  -3.603  -7.533  0.00  0.00    +0.155 HD
ENDROOT
BRANCH   1   8
ATOM      5  C   UNL     1       0.115  -2.975  -2.853  0.00  0.00    +0.017 A 
ATOM      6  C   UNL     1      -0.409  -2.173  -3.858  0.00  0.00    +0.017 A 
ATOM      7  C   UNL     1      -0.363  -2.594  -5.172  0.00  0.00    +0.024 A 
ATOM      8  C   UNL     1       0.206  -3.821  -5.488  0.00  0.00    +0.033 A 
ATOM      9  C   UNL     1       0.730  -4.623  -4.483  0.00  0.00    +0.024 A 
ATOM     10  C   UNL     1       0.689  -4.200  -3.170  0.00  0.00    +0.017 A 
BRANCH   5  11
ATOM     11  S   UNL     1       0.058  -2.437  -1.176  0.00  0.00    -0.031 S 
BRANCH  11  15
ATOM     12  C   UNL     1      -2.915  -3.699   1.304  0.00  0.00    +0.132 C 
ATOM     13  N   UNL     1      -1.703  -3.071   0.772  0.00  0.00    -0.298 N 
ATOM     14  C   UNL     1      -0.819  -2.314   1.662  0.00  0.00    +0.132 C 
ATOM     15  C   UNL     1      -1.400  -3.192  -0.536  0.00  0.00    +0.279 C 
ATOM     16  O   UNL     1      -2.134  -3.821  -1.274  0.00  0.00    -0.262 OA
ENDBRANCH  11  15
ENDBRANCH   5  11
ENDBRANCH   1   8
BRANCH   2  17
ATOM     17  C   UNL     1       0.056  -6.004  -8.553  0.00  0.00    +0.133 C 
BRANCH  17  18
ATOM     18  C   UNL     1      -0.104  -7.502  -8.607  0.00  0.00    -0.014 A 
ATOM     19  C   UNL     1       0.880  -8.406  -8.729  0.00  0.00    +0.087 A 
ATOM     20  N   UNL     1       0.354  -9.670  -8.741  0.00  0.00    -0.360 N 
ATOM     21  H   UNL     1       0.870 -10.487  -8.819  0.00  0.00    +0.165 HD
ATOM     22  C   UNL     1      -1.016  -9.607  -8.624  0.00  0.00    +0.049 A 
ATOM     23  C   UNL     1      -1.363  -8.247  -8.529  0.00  0.00    +0.003 A 
ATOM     24  C   UNL     1      -2.702  -7.877  -8.395  0.00  0.00    +0.013 A 
ATOM     25  C   UNL     1      -3.672  -8.838  -8.353  0.00  0.00    +0.039 A 
ATOM     26  C   UNL     1      -3.336 -10.184  -8.443  0.00  0.00    +0.125 A 
ATOM     27  C   UNL     1      -2.018 -10.571  -8.584  0.00  0.00    +0.064 A 
ATOM     28  F   UNL     1      -4.307 -11.121  -8.398  0.00  0.00    -0.205 F 
ENDBRANCH  17  18
ENDBRANCH   2  17
TORSDOF 5
