REMARK  Name = ZINC08897683
REMARK  8 active torsions:
REMARK  status: ('A' for Active; 'I' for Inactive)
REMARK    1  A    between atoms: C_1  and  C_2
REMARK    2  A    between atoms: C_15  and  S_17
REMARK    3  A    between atoms: S_17  and  C_18
REMARK    4  A    between atoms: C_18  and  C_19
REMARK    5  A    between atoms: N_21  and  C_22
REMARK    6  A    between atoms: C_27  and  C_28
REMARK    7  A    between atoms: C_28  and  C_29
REMARK    8  A    between atoms: C_28  and  C_30
REMARK                            x       y       z     vdW  Elec       q    Type
REMARK                         _______ _______ _______ _____ _____    ______ ____
ROOT
ATOM      1  C   UNL     1       1.336   3.595   0.206  0.00  0.00    +0.008 C 
ATOM      2  C   UNL     1       1.360   2.086  -0.045  0.00  0.00    -0.009 C 
ATOM      3  C   UNL     1      -0.071   1.540  -0.036  0.00  0.00    +0.008 C 
ATOM      4  C   UNL     1      -0.044   0.012  -0.037  0.00  0.00    +0.037 C 
ATOM      5  C   UNL     1       0.832  -0.467  -1.192  0.00  0.00    -0.023 A 
ATOM      6  C   UNL     1       1.720   0.371  -1.774  0.00  0.00    -0.004 A 
ATOM      7  S   UNL     1       2.503  -0.589  -3.045  0.00  0.00    -0.073 S 
ATOM      8  C   UNL     1       1.641  -2.109  -2.795  0.00  0.00    +0.117 A 
ATOM      9  C   UNL     1       0.766  -1.819  -1.723  0.00  0.00    +0.075 A 
ATOM     10  C   UNL     1      -0.090  -2.876  -1.272  0.00  0.00    +0.261 A 
ATOM     11  O   UNL     1      -0.879  -2.723  -0.355  0.00  0.00    -0.267 OA
ATOM     12  N   UNL     1       0.032  -4.055  -1.927  0.00  0.00    -0.301 N 
ATOM     13  H   UNL     1      -0.529  -4.796  -1.652  0.00  0.00    +0.171 HD
ATOM     14  C   UNL     1       0.906  -4.246  -2.953  0.00  0.00    +0.170 A 
ATOM     15  N   UNL     1       1.711  -3.290  -3.396  0.00  0.00    -0.216 NA
ATOM     16  C   UNL     1       1.984   1.802  -1.419  0.00  0.00    +0.046 C 
ENDROOT
BRANCH  14  17
ATOM     17  S   UNL     1       0.970  -5.830  -3.724  0.00  0.00    -0.078 S 
BRANCH  17  18
ATOM     18  C   UNL     1       2.251  -5.523  -4.965  0.00  0.00    +0.173 C 
BRANCH  18  19
ATOM     19  C   UNL     1       2.481  -6.776  -5.770  0.00  0.00    +0.227 C 
ATOM     20  O   UNL     1       1.842  -7.779  -5.527  0.00  0.00    -0.275 OA
ATOM     21  N   UNL     1       3.397  -6.784  -6.758  0.00  0.00    -0.285 N 
ATOM     22  H   UNL     1       3.860  -5.966  -6.997  0.00  0.00    +0.155 HD
BRANCH  21  23
ATOM     23  C   UNL     1       3.679  -7.972  -7.442  0.00  0.00    +0.037 A 
ATOM     24  C   UNL     1       2.668  -8.895  -7.680  0.00  0.00    +0.023 A 
ATOM     25  C   UNL     1       2.949 -10.064  -8.359  0.00  0.00    +0.002 A 
ATOM     26  C   UNL     1       4.237 -10.321  -8.792  0.00  0.00    +0.000 A 
ATOM     27  C   UNL     1       5.246  -9.407  -8.553  0.00  0.00    +0.006 A 
ATOM     28  C   UNL     1       4.971  -8.233  -7.878  0.00  0.00    -0.024 A 
BRANCH  28  29
ATOM     29  C   UNL     1       6.072  -7.238  -7.616  0.00  0.00    +0.015 C 
ATOM     30  C   UNL     1       7.223  -7.931  -6.885  0.00  0.00    +0.012 C 
ATOM     31  C   UNL     1       6.578  -6.676  -8.946  0.00  0.00    +0.012 C 
ENDBRANCH  28  29
ENDBRANCH  21  23
ENDBRANCH  18  19
ENDBRANCH  17  18
ENDBRANCH  14  17
TORSDOF 5
