REMARK  Name = ZINC29349490
REMARK  4 active torsions:
REMARK  status: ('A' for Active; 'I' for Inactive)
REMARK    1  A    between atoms: C_1  and  C_2
REMARK    2  A    between atoms: C_8  and  S_12
REMARK    3  A    between atoms: S_12  and  N_15
REMARK    4  A    between atoms: C_23  and  C_25
REMARK                            x       y       z     vdW  Elec       q    Type
REMARK                         _______ _______ _______ _____ _____    ______ ____
ROOT
ATOM      1  S   UNL     1       1.970   6.040   2.363  0.00  0.00    +0.064 S 
ATOM      2  O   UNL     1       3.279   6.481   2.699  0.00  0.00    -0.153 OA
ATOM      3  O   UNL     1       0.867   6.930   2.267  0.00  0.00    -0.153 OA
ENDROOT
BRANCH   1  11
ATOM      4  C   UNL     1      -3.477   2.220   3.206  0.00  0.00    +0.045 C 
ATOM      5  C   UNL     1      -2.132   2.888   3.336  0.00  0.00    -0.032 A 
ATOM      6  C   UNL     1      -1.292   2.541   4.357  0.00  0.00    +0.015 A 
ATOM      7  C   UNL     1      -0.046   3.190   4.441  0.00  0.00    +0.003 A 
ATOM      8  C   UNL     1       0.869   2.886   5.461  0.00  0.00    +0.010 A 
ATOM      9  C   UNL     1       2.065   3.535   5.508  0.00  0.00    +0.003 A 
ATOM     10  C   UNL     1       2.395   4.495   4.553  0.00  0.00    +0.031 A 
ATOM     11  C   UNL     1       1.530   4.818   3.554  0.00  0.00    +0.131 A 
ATOM     12  C   UNL     1       0.285   4.169   3.471  0.00  0.00    +0.097 A 
ATOM     13  N   UNL     1      -0.582   4.461   2.497  0.00  0.00    -0.253 NA
ATOM     14  C   UNL     1      -1.744   3.859   2.416  0.00  0.00    +0.114 A 
ENDBRANCH   1  11
BRANCH   1  15
ATOM     15  N   UNL     1       2.090   5.276   0.899  0.00  0.00    -0.164 NA
ATOM     16  C   UNL     1       3.371   4.703   0.459  0.00  0.00    +0.116 C 
ATOM     17  C   UNL     1       3.842   5.471  -0.785  0.00  0.00    +0.060 C 
ATOM     18  C   UNL     1       2.671   5.681  -1.690  0.00  0.00    -0.004 A 
ATOM     19  C   UNL     1       1.350   5.561  -1.389  0.00  0.00    -0.014 A 
ATOM     20  C   UNL     1       0.447   5.817  -2.420  0.00  0.00    +0.013 A 
ATOM     21  C   UNL     1       0.901   6.162  -3.647  0.00  0.00    +0.046 A 
ATOM     22  S   UNL     1       2.671   6.143  -3.402  0.00  0.00    -0.101 S 
ATOM     23  C   UNL     1       0.918   5.160   0.021  0.00  0.00    +0.147 C 
BRANCH  23  24
ATOM     24  C   UNL     1       0.421   3.738   0.017  0.00  0.00    +0.013 A 
ATOM     25  C   UNL     1      -0.855   3.279   0.027  0.00  0.00    +0.013 A 
ATOM     26  C   UNL     1      -1.077   1.915   0.017  0.00  0.00    +0.008 A 
ATOM     27  C   UNL     1      -0.013   1.076   0.008  0.00  0.00    +0.045 A 
ATOM     28  S   UNL     1       1.359   2.219   0.001  0.00  0.00    -0.100 S 
ENDBRANCH  23  24
ENDBRANCH   1  15
TORSDOF 3
