REMARK  Name = ZINC13878781
REMARK  6 active torsions:
REMARK  status: ('A' for Active; 'I' for Inactive)
REMARK    1  A    between atoms: C_1  and  C_2
REMARK    2  A    between atoms: C_2  and  C_4
REMARK    3  A    between atoms: C_2  and  N_17
REMARK    4  A    between atoms: C_4  and  C_6
REMARK    5  A    between atoms: C_4  and  N_11
REMARK    6  A    between atoms: N_19  and  C_20
REMARK                            x       y       z     vdW  Elec       q    Type
REMARK                         _______ _______ _______ _____ _____    ______ ____
ROOT
ATOM      1  C   UNL     1       0.091   1.440  -0.177  0.00  0.00    +0.032 C 
ATOM      2  C   UNL     1       0.144  -0.087  -0.102  0.00  0.00    +0.100 C 
ENDROOT
BRANCH   2   3
ATOM      3  N   UNL     1      -1.210  -0.630  -0.226  0.00  0.00    -0.363 N 
ATOM      4  C   UNL     1      -1.751  -0.841  -1.463  0.00  0.00    +0.139 C 
ATOM      5  N   UNL     1      -3.015  -1.347  -1.579  0.00  0.00    -0.322 N 
ATOM      6  S   UNL     1      -0.872  -0.482  -2.825  0.00  0.00    -0.016 SA
ATOM      7  H   UNL     1      -3.528  -1.557  -0.784  0.00  0.00    +0.148 HD
ATOM      8  H   UNL     1      -1.724  -0.840   0.570  0.00  0.00    +0.162 HD
BRANCH   5   9
ATOM      9  C   UNL     1      -3.594  -1.573  -2.906  0.00  0.00    +0.072 C 
ATOM     10  C   UNL     1      -4.225  -0.275  -3.415  0.00  0.00    +0.022 C 
ATOM     11  C   UNL     1      -4.830  -0.511  -4.800  0.00  0.00    +0.002 C 
ATOM     12  C   UNL     1      -5.903  -1.599  -4.709  0.00  0.00    +0.000 C 
ATOM     13  C   UNL     1      -5.272  -2.896  -4.200  0.00  0.00    +0.002 C 
ATOM     14  C   UNL     1      -4.667  -2.660  -2.815  0.00  0.00    +0.022 C 
ENDBRANCH   5   9
ENDBRANCH   2   3
BRANCH   2  15
ATOM     15  C   UNL     1       0.742  -0.511   1.242  0.00  0.00    +0.116 C 
BRANCH  15  16
ATOM     16  N   UNL     1       2.101   0.033   1.367  0.00  0.00    -0.289 NA
ATOM     17  C   UNL     1       2.914  -0.306   0.190  0.00  0.00    +0.113 C 
ATOM     18  C   UNL     1       4.300   0.330   0.334  0.00  0.00    +0.175 C 
ATOM     19  O   UNL     1       4.899  -0.117   1.553  0.00  0.00    -0.377 OA
ATOM     20  C   UNL     1       4.133   0.197   2.720  0.00  0.00    +0.175 C 
ATOM     21  C   UNL     1       2.746  -0.439   2.600  0.00  0.00    +0.113 C 
ENDBRANCH  15  16
BRANCH  15  22
ATOM     22  C   UNL     1       0.795  -2.015   1.316  0.00  0.00    +0.009 A 
ATOM     23  C   UNL     1       0.056  -2.858   2.078  0.00  0.00    +0.013 A 
ATOM     24  C   UNL     1       0.279  -4.219   1.980  0.00  0.00    +0.008 A 
ATOM     25  C   UNL     1       1.228  -4.670   1.125  0.00  0.00    +0.045 A 
ATOM     26  S   UNL     1       1.840  -3.149   0.417  0.00  0.00    -0.100 S 
ENDBRANCH  15  22
ENDBRANCH   2  15
TORSDOF 5
