REMARK  Name = ZINC47139224
REMARK  9 active torsions:
REMARK  status: ('A' for Active; 'I' for Inactive)
REMARK    1  A    between atoms: C_1  and  N_2
REMARK    2  A    between atoms: N_2  and  C_3
REMARK    3  A    between atoms: N_2  and  C_4
REMARK    4  A    between atoms: C_7  and  C_10
REMARK    5  A    between atoms: N_11  and  N_12
REMARK    6  A    between atoms: N_14  and  C_27
REMARK    7  A    between atoms: C_18  and  C_19
REMARK    8  A    between atoms: C_24  and  O_25
REMARK    9  A    between atoms: C_27  and  C_28
REMARK                            x       y       z     vdW  Elec       q    Type
REMARK                         _______ _______ _______ _____ _____    ______ ____
ROOT
ATOM      1  N   UNL     1      -1.427  -0.726  -5.987  0.00  0.00    -0.126 NA
ATOM      2  C   UNL     1      -1.253  -0.092  -7.130  0.00  0.00    +0.190 C 
ATOM      3  N   UNL     1      -1.358  -0.590  -8.410  0.00  0.00    -0.237 N 
ATOM      4  C   UNL     1      -1.150   0.192  -9.456  0.00  0.00    +0.259 C 
ATOM      5  O   UNL     1      -1.239  -0.231 -10.594  0.00  0.00    -0.269 OA
ATOM      6  C   UNL     1      -0.806   1.600  -9.182  0.00  0.00    +0.078 C 
ATOM      7  C   UNL     1      -0.545   2.609 -10.053  0.00  0.00    +0.032 C 
ATOM      8  S   UNL     1      -0.833   1.623  -7.395  0.00  0.00    -0.047 S 
ENDROOT
BRANCH   7   9
ATOM      9  C   UNL     1      -0.395   3.983  -9.560  0.00  0.00    +0.018 A 
ATOM     10  C   UNL     1      -0.871   4.333  -8.291  0.00  0.00    +0.011 A 
ATOM     11  C   UNL     1      -0.726   5.625  -7.836  0.00  0.00    +0.001 A 
ATOM     12  C   UNL     1      -0.110   6.580  -8.628  0.00  0.00    +0.004 A 
ATOM     13  C   UNL     1       0.364   6.250  -9.883  0.00  0.00    +0.046 A 
ATOM     14  C   UNL     1       0.233   4.955 -10.357  0.00  0.00    +0.124 A 
BRANCH  14  15
ATOM     15  O   UNL     1       0.704   4.628 -11.587  0.00  0.00    -0.506 OA
ATOM     16  H   UNL     1       0.060   4.746 -12.299  0.00  0.00    +0.292 HD
ENDBRANCH  14  15
ENDBRANCH   7   9
BRANCH   1  18
ATOM     17  C   UNL     1      -1.903  -2.608  -4.852  0.00  0.00    +0.143 C 
ATOM     18  N   UNL     1      -1.731  -1.980  -5.985  0.00  0.00    -0.155 NA
BRANCH  17  22
ATOM     19  C   UNL     1      -1.624  -0.489  -1.187  0.00  0.00    +0.029 A 
ATOM     20  C   UNL     1      -1.309   0.149  -2.383  0.00  0.00    +0.024 A 
ATOM     21  C   UNL     1      -1.399  -0.535  -3.575  0.00  0.00    +0.011 A 
ATOM     22  C   UNL     1      -1.806  -1.874  -3.582  0.00  0.00    -0.005 A 
ATOM     23  C   UNL     1      -2.120  -2.512  -2.377  0.00  0.00    +0.011 A 
ATOM     24  C   UNL     1      -2.023  -1.822  -1.189  0.00  0.00    +0.024 A 
BRANCH  19  26
ATOM     25  C   UNL     1      -1.857  -0.464   1.279  0.00  0.00    +0.129 C 
ATOM     26  N   UNL     1      -1.532   0.208   0.018  0.00  0.00    -0.336 N 
ATOM     27  C   UNL     1      -1.112   1.611   0.023  0.00  0.00    +0.129 C 
ENDBRANCH  19  26
ENDBRANCH  17  22
ENDBRANCH   1  18
BRANCH   3  28
ATOM     28  C   UNL     1      -1.703  -1.999  -8.615  0.00  0.00    +0.190 C 
BRANCH  28  29
ATOM     29  C   UNL     1      -3.201  -2.142  -8.704  0.00  0.00    +0.123 A 
ATOM     30  C   UNL     1      -3.931  -2.077  -9.832  0.00  0.00    +0.046 A 
ATOM     31  C   UNL     1      -5.281  -2.262  -9.457  0.00  0.00    +0.041 A 
ATOM     32  C   UNL     1      -5.296  -2.429  -8.123  0.00  0.00    +0.195 A 
ATOM     33  O   UNL     1      -4.032  -2.360  -7.673  0.00  0.00    -0.466 OA
ENDBRANCH  28  29
ENDBRANCH   3  28
TORSDOF 7
