REMARK  Name = ZINC27839718
REMARK  7 active torsions:
REMARK  status: ('A' for Active; 'I' for Inactive)
REMARK    1  A    between atoms: C_1  and  C_2
REMARK    2  A    between atoms: C_4  and  O_9
REMARK    3  A    between atoms: O_9  and  C_10
REMARK    4  A    between atoms: C_10  and  C_11
REMARK    5  A    between atoms: C_11  and  N_12
REMARK    6  A    between atoms: C_13  and  C_31
REMARK    7  A    between atoms: C_14  and  C_21
REMARK                            x       y       z     vdW  Elec       q    Type
REMARK                         _______ _______ _______ _____ _____    ______ ____
ROOT
ATOM      1  N   UNL     1       2.165   4.116   0.002  0.00  0.00    -0.340 N 
ATOM      2  C   UNL     1       1.647   5.357   0.013  0.00  0.00    +0.024 A 
ATOM      3  C   UNL     1       0.264   5.281   0.026  0.00  0.00    +0.004 A 
ATOM      4  C   UNL     1      -0.067   3.841   0.022  0.00  0.00    +0.007 A 
ATOM      5  C   UNL     1       1.163   3.166   0.007  0.00  0.00    +0.050 A 
ATOM      6  C   UNL     1       1.176   1.775   0.000  0.00  0.00    +0.026 A 
ATOM      7  C   UNL     1      -0.013   1.076   0.008  0.00  0.00    +0.002 A 
ATOM      8  C   UNL     1      -1.226   1.746   0.017  0.00  0.00    +0.001 A 
ATOM      9  C   UNL     1      -1.259   3.124   0.031  0.00  0.00    +0.010 A 
ATOM     10  C   UNL     1       2.447   6.634   0.011  0.00  0.00    +0.064 C 
ENDROOT
BRANCH   3  11
ATOM     11  C   UNL     1      -0.644   6.359   0.039  0.00  0.00    +0.028 C 
ATOM     12  C   UNL     1      -1.691   6.396  -0.872  0.00  0.00    +0.101 C 
ATOM     13  C   UNL     1      -1.880   5.329  -1.870  0.00  0.00    +0.276 C 
ATOM     14  O   UNL     1      -1.119   4.381  -1.923  0.00  0.00    -0.268 OA
ATOM     15  N   UNL     1      -2.922   5.429  -2.720  0.00  0.00    -0.123 NA
ATOM     16  C   UNL     1      -3.765   6.470  -2.677  0.00  0.00    +0.333 C 
ATOM     17  O   UNL     1      -4.681   6.503  -3.474  0.00  0.00    -0.250 OA
ATOM     18  N   UNL     1      -3.650   7.478  -1.800  0.00  0.00    -0.234 N 
ATOM     19  C   UNL     1      -2.658   7.508  -0.887  0.00  0.00    +0.257 C 
ATOM     20  O   UNL     1      -2.565   8.428  -0.096  0.00  0.00    -0.270 OA
ATOM     21  H   UNL     1      -4.374   8.305  -1.816  0.00  0.00    +0.159 HD
ENDBRANCH   3  11
BRANCH   1  22
ATOM     22  C   UNL     1       3.599   3.813  -0.013  0.00  0.00    +0.163 C 
BRANCH  22  23
ATOM     23  C   UNL     1       4.084   3.715  -1.461  0.00  0.00    +0.250 C 
BRANCH  23  24
ATOM     24  O   UNL     1       5.482   3.420  -1.476  0.00  0.00    -0.490 OA
BRANCH  24  28
ATOM     25  C   UNL     1       9.500   2.580  -4.115  0.00  0.00    +0.045 C 
ATOM     26  C   UNL     1       8.029   2.890  -4.019  0.00  0.00    -0.029 A 
ATOM     27  C   UNL     1       7.429   3.013  -2.781  0.00  0.00    +0.050 A 
ATOM     28  C   UNL     1       6.074   3.299  -2.693  0.00  0.00    +0.121 A 
ATOM     29  C   UNL     1       5.323   3.455  -3.849  0.00  0.00    +0.047 A 
ATOM     30  C   UNL     1       5.928   3.336  -5.085  0.00  0.00    +0.024 A 
ATOM     31  C   UNL     1       7.279   3.051  -5.171  0.00  0.00    +0.044 A 
ATOM     32 CL   UNL     1       8.036   2.896  -6.726  0.00  0.00    -0.083 Cl
ENDBRANCH  24  28
ENDBRANCH  23  24
ENDBRANCH  22  23
ENDBRANCH   1  22
TORSDOF 5
