REMARK  Name = ZINC20205678
REMARK  7 active torsions:
REMARK  status: ('A' for Active; 'I' for Inactive)
REMARK    1  A    between atoms: C_1  and  S_2
REMARK    2  A    between atoms: S_2  and  C_5
REMARK    3  A    between atoms: C_13  and  C_14
REMARK    4  A    between atoms: N_16  and  C_23
REMARK    5  A    between atoms: C_23  and  C_24
REMARK    6  A    between atoms: C_24  and  O_25
REMARK    7  A    between atoms: O_25  and  C_26
REMARK                            x       y       z     vdW  Elec       q    Type
REMARK                         _______ _______ _______ _____ _____    ______ ____
ROOT
ATOM      1  C   UNL     1      -3.433   0.718  -5.779  0.00  0.00    +0.001 A 
ATOM      2  C   UNL     1      -2.914   0.185  -6.944  0.00  0.00    +0.095 A 
ATOM      3  N   UNL     1      -3.638   0.613  -7.997  0.00  0.00    -0.343 N 
ATOM      4  C   UNL     1      -4.661   1.441  -7.582  0.00  0.00    +0.050 A 
ATOM      5  C   UNL     1      -4.589   1.542  -6.184  0.00  0.00    +0.007 A 
ATOM      6  C   UNL     1      -5.513   2.318  -5.491  0.00  0.00    +0.010 A 
ATOM      7  C   UNL     1      -6.502   2.984  -6.183  0.00  0.00    +0.001 A 
ATOM      8  C   UNL     1      -6.577   2.883  -7.564  0.00  0.00    +0.002 A 
ATOM      9  C   UNL     1      -5.663   2.125  -8.264  0.00  0.00    +0.026 A 
ENDROOT
BRANCH   1  18
ATOM     10  C   UNL     1       0.252  -2.074  -1.966  0.00  0.00    +0.257 C 
ATOM     11  N   UNL     1       1.047  -3.087  -2.119  0.00  0.00    -0.174 NA
ATOM     12  S   UNL     1       0.441  -3.887  -3.462  0.00  0.00    +0.049 S 
ATOM     13  C   UNL     1      -0.816  -2.862  -3.845  0.00  0.00    +0.183 C 
ATOM     14  N   UNL     1      -1.666  -2.899  -4.845  0.00  0.00    -0.152 NA
ATOM     15  C   UNL     1      -2.569  -1.909  -4.984  0.00  0.00    +0.273 C 
ATOM     16  O   UNL     1      -3.454  -1.983  -5.822  0.00  0.00    -0.268 OA
ATOM     17  C   UNL     1      -2.462  -0.728  -4.096  0.00  0.00    +0.079 C 
ATOM     18  C   UNL     1      -2.958   0.509  -4.465  0.00  0.00    +0.026 C 
ATOM     19  C   UNL     1      -1.792  -0.947  -2.785  0.00  0.00    +0.138 C 
ATOM     20  N   UNL     1      -2.114  -0.301  -1.696  0.00  0.00    -0.284 NA
ATOM     21  N   UNL     1      -0.779  -1.925  -2.832  0.00  0.00    -0.201 N 
ATOM     22  H   UNL     1      -2.823   0.361  -1.716  0.00  0.00    +0.188 HD
BRANCH  10  24
ATOM     23  C   UNL     1      -0.625  -1.459   0.659  0.00  0.00    +0.203 C 
ATOM     24  S   UNL     1       0.501  -0.921  -0.657  0.00  0.00    +0.026 S 
ATOM     25  O   UNL     1       0.075   0.327  -1.186  0.00  0.00    -0.167 OA
ATOM     26  O   UNL     1       1.851  -1.115  -0.256  0.00  0.00    -0.167 OA
ENDBRANCH  10  24
ENDBRANCH   1  18
BRANCH   3  27
ATOM     27  C   UNL     1      -3.374   0.249  -9.391  0.00  0.00    +0.163 C 
BRANCH  27  28
ATOM     28  C   UNL     1      -2.512   1.331 -10.047  0.00  0.00    +0.250 C 
BRANCH  28  29
ATOM     29  O   UNL     1      -2.255   0.976 -11.407  0.00  0.00    -0.490 OA
BRANCH  29  30
ATOM     30  C   UNL     1      -1.498   1.836 -12.136  0.00  0.00    +0.121 A 
ATOM     31  C   UNL     1      -1.008   2.996 -11.554  0.00  0.00    +0.045 A 
ATOM     32  C   UNL     1      -0.238   3.869 -12.297  0.00  0.00    +0.004 A 
ATOM     33  C   UNL     1       0.044   3.589 -13.622  0.00  0.00    +0.000 A 
ATOM     34  C   UNL     1      -0.444   2.434 -14.205  0.00  0.00    +0.004 A 
ATOM     35  C   UNL     1      -1.209   1.554 -13.464  0.00  0.00    +0.045 A 
ENDBRANCH  29  30
ENDBRANCH  28  29
ENDBRANCH  27  28
ENDBRANCH   3  27
TORSDOF 6
