REMARK  Name = ZINC04700410
REMARK  6 active torsions:
REMARK  status: ('A' for Active; 'I' for Inactive)
REMARK    1  A    between atoms: C_1  and  C_2
REMARK    2  A    between atoms: C_9  and  N_13
REMARK    3  A    between atoms: C_10  and  C_11
REMARK    4  A    between atoms: C_14  and  C_16
REMARK    5  A    between atoms: C_21  and  O_22
REMARK    6  A    between atoms: O_22  and  C_23
REMARK                            x       y       z     vdW  Elec       q    Type
REMARK                         _______ _______ _______ _____ _____    ______ ____
ROOT
ATOM      1  N   UNL     1      -1.156  -0.694   0.009  0.00  0.00    -0.275 N 
ATOM      2  C   UNL     1       0.002  -0.004   0.002  0.00  0.00    +0.252 C 
ATOM      3  O   UNL     1       1.063  -0.598  -0.011  0.00  0.00    -0.270 OA
ATOM      4  H   UNL     1      -2.002  -0.220   0.020  0.00  0.00    +0.156 HD
ENDROOT
BRANCH   1  12
ATOM      5  C   UNL     1      -0.619  -8.497   0.057  0.00  0.00    +0.008 C 
ATOM      6  C   UNL     1      -1.102  -7.076   0.355  0.00  0.00    -0.009 C 
ATOM      7  C   UNL     1      -2.358  -6.778  -0.469  0.00  0.00    +0.008 C 
ATOM      8  C   UNL     1      -2.988  -5.466   0.000  0.00  0.00    +0.037 C 
ATOM      9  C   UNL     1      -1.919  -4.380  -0.003  0.00  0.00    -0.018 A 
ATOM     10  C   UNL     1      -0.606  -4.696  -0.017  0.00  0.00    -0.004 A 
ATOM     11  S   UNL     1       0.235  -3.138  -0.025  0.00  0.00    -0.077 S 
ATOM     12  C   UNL     1      -1.137  -2.080   0.002  0.00  0.00    +0.090 A 
ATOM     13  C   UNL     1      -2.212  -2.957   0.007  0.00  0.00    +0.084 A 
ATOM     14  C   UNL     1      -0.008  -6.069  -0.029  0.00  0.00    +0.046 C 
BRANCH  13  15
ATOM     15  C   UNL     1      -3.561  -2.477   0.022  0.00  0.00    +0.102 C 
ATOM     16  N   UNL     1      -4.631  -2.096   0.034  0.00  0.00    -0.191 NA
ENDBRANCH  13  15
ENDBRANCH   1  12
BRANCH   2  17
ATOM     17  C   UNL     1      -0.018   1.471   0.010  0.00  0.00    +0.080 A 
ATOM     18  C   UNL     1      -1.235   2.157   0.020  0.00  0.00    +0.036 A 
ATOM     19  C   UNL     1      -1.247   3.535   0.032  0.00  0.00    +0.042 A 
ATOM     20  C   UNL     1      -0.055   4.245   0.025  0.00  0.00    +0.023 A 
ATOM     21  C   UNL     1       1.154   3.578   0.010  0.00  0.00    +0.048 A 
ATOM     22  C   UNL     1       1.184   2.192   0.003  0.00  0.00    +0.132 A 
ATOM     23 CL   UNL     1      -2.759   4.387   0.050  0.00  0.00    -0.084 Cl
BRANCH  22  24
ATOM     24  O   UNL     1       2.372   1.536  -0.012  0.00  0.00    -0.494 OA
ATOM     25  C   UNL     1       3.555   2.337  -0.019  0.00  0.00    +0.277 C 
ENDBRANCH  22  24
ENDBRANCH   2  17
TORSDOF 4
