REMARK  Name = ZINC40384699
REMARK  5 active torsions:
REMARK  status: ('A' for Active; 'I' for Inactive)
REMARK    1  A    between atoms: C_1  and  C_2
REMARK    2  A    between atoms: C_2  and  C_3
REMARK    3  A    between atoms: C_3  and  C_5
REMARK    4  A    between atoms: C_3  and  N_6
REMARK    5  A    between atoms: C_7  and  C_9
REMARK                            x       y       z     vdW  Elec       q    Type
REMARK                         _______ _______ _______ _____ _____    ______ ____
ROOT
ATOM      1  C   UNL     1      -0.142   0.370   4.861  0.00  0.00    +0.101 C 
ATOM      2  C   UNL     1      -0.807   1.729   4.644  0.00  0.00    +0.051 C 
ATOM      3  C   UNL     1       0.268   2.769   4.461  0.00  0.00    -0.026 A 
ATOM      4  C   UNL     1       0.011   3.887   3.688  0.00  0.00    +0.005 A 
ATOM      5  C   UNL     1       0.994   4.842   3.505  0.00  0.00    +0.000 A 
ATOM      6  C   UNL     1       2.234   4.682   4.096  0.00  0.00    +0.002 A 
ATOM      7  C   UNL     1       2.493   3.571   4.872  0.00  0.00    +0.023 A 
ATOM      8  C   UNL     1       1.503   2.609   5.061  0.00  0.00    +0.033 A 
ATOM      9  N   UNL     1       1.790   1.502   5.878  0.00  0.00    -0.323 N 
ATOM     10  C   UNL     1       0.815   0.443   6.055  0.00  0.00    +0.103 C 
ATOM     11  C   UNL     1       1.444  -0.928   6.248  0.00  0.00    +0.131 C 
ATOM     12  N   UNL     1       2.717  -0.875   6.939  0.00  0.00    -0.296 N 
ATOM     13  C   UNL     1       3.712   0.149   6.669  0.00  0.00    +0.127 C 
ATOM     14  C   UNL     1       3.080   1.516   6.565  0.00  0.00    +0.124 C 
ATOM     15  C   UNL     1       2.996  -1.837   7.894  0.00  0.00    +0.218 A 
ATOM     16  N   UNL     1       2.098  -2.779   8.145  0.00  0.00    -0.223 NA
ATOM     17  C   UNL     1       2.333  -3.713   9.050  0.00  0.00    +0.116 A 
ATOM     18  C   UNL     1       3.535  -3.700   9.740  0.00  0.00    +0.039 A 
ATOM     19  C   UNL     1       4.452  -2.700   9.453  0.00  0.00    +0.116 A 
ATOM     20  N   UNL     1       4.157  -1.799   8.531  0.00  0.00    -0.223 NA
ENDROOT
BRANCH   1  22
ATOM     21  N   UNL     1      -0.008  -0.140   2.444  0.00  0.00    -0.312 N 
ATOM     22  C   UNL     1       0.630  -0.011   3.624  0.00  0.00    +0.218 C 
ATOM     23  O   UNL     1       1.826  -0.202   3.690  0.00  0.00    -0.275 OA
ATOM     24  H   UNL     1      -0.965   0.013   2.391  0.00  0.00    +0.149 HD
BRANCH  21  25
ATOM     25  C   UNL     1       0.742  -0.511   1.242  0.00  0.00    +0.070 C 
ATOM     26  C   UNL     1       0.872  -2.034   1.171  0.00  0.00    +0.028 C 
BRANCH  25  28
ATOM     27  C   UNL     1      -0.019   1.526   0.010  0.00  0.00    +0.005 C 
ATOM     28  C   UNL     1       0.002  -0.004   0.002  0.00  0.00    +0.018 C 
ENDBRANCH  25  28
ENDBRANCH  21  25
ENDBRANCH   1  22
TORSDOF 3
