REMARK  Name = ZINC39940783
REMARK  6 active torsions:
REMARK  status: ('A' for Active; 'I' for Inactive)
REMARK    1  A    between atoms: C_1  and  C_2
REMARK    2  A    between atoms: C_6  and  N_8
REMARK    3  A    between atoms: C_17  and  S_18
REMARK    4  A    between atoms: S_18  and  C_19
REMARK    5  A    between atoms: C_19  and  C_20
REMARK    6  A    between atoms: C_20  and  C_22
REMARK                            x       y       z     vdW  Elec       q    Type
REMARK                         _______ _______ _______ _____ _____    ______ ____
ROOT
ATOM      1  N   UNL     1       0.053  -2.798   2.394  0.00  0.00    -0.255 N 
ATOM      2  C   UNL     1      -0.026  -4.141   2.373  0.00  0.00    +0.268 A 
ATOM      3  O   UNL     1      -0.110  -4.738   1.313  0.00  0.00    -0.267 OA
ATOM      4  C   UNL     1      -0.010  -4.859   3.610  0.00  0.00    +0.076 A 
ATOM      5  C   UNL     1      -0.085  -6.306   3.820  0.00  0.00    -0.023 A 
ATOM      6  C   UNL     1      -0.050  -6.742   5.095  0.00  0.00    -0.004 A 
ATOM      7  S   UNL     1       0.083  -5.274   6.080  0.00  0.00    -0.073 S 
ATOM      8  C   UNL     1       0.091  -4.075   4.772  0.00  0.00    +0.117 A 
ATOM      9  N   UNL     1       0.164  -2.750   4.726  0.00  0.00    -0.215 NA
ATOM     10  C   UNL     1       0.153  -2.113   3.573  0.00  0.00    +0.178 A 
ATOM     11  C   UNL     1      -0.113  -8.162   5.572  0.00  0.00    +0.043 C 
ATOM     12  C   UNL     1      -0.598  -9.041   4.411  0.00  0.00    +0.005 C 
ATOM     13  C   UNL     1       0.204  -8.683   3.156  0.00  0.00    +0.005 C 
ATOM     14  C   UNL     1      -0.198  -7.293   2.661  0.00  0.00    +0.037 C 
ENDROOT
BRANCH   1  20
ATOM     15  C   UNL     1      -2.490  -0.509  -1.139  0.00  0.00    +0.044 C 
ATOM     16  C   UNL     1      -1.182  -0.968  -0.548  0.00  0.00    -0.048 A 
ATOM     17  C   UNL     1       0.006  -0.688  -1.200  0.00  0.00    +0.003 A 
ATOM     18  C   UNL     1       1.208  -1.107  -0.662  0.00  0.00    +0.002 A 
ATOM     19  C   UNL     1       1.227  -1.807   0.529  0.00  0.00    +0.026 A 
ATOM     20  C   UNL     1       0.037  -2.089   1.186  0.00  0.00    +0.052 A 
ATOM     21  C   UNL     1      -1.169  -1.662   0.645  0.00  0.00    +0.029 A 
ENDBRANCH   1  20
BRANCH  10  22
ATOM     22  S   UNL     1       0.261  -0.354   3.550  0.00  0.00    -0.079 S 
BRANCH  22  23
ATOM     23  C   UNL     1       0.375   0.101   5.302  0.00  0.00    +0.156 C 
BRANCH  23  24
ATOM     24  C   UNL     1       0.474   1.600   5.426  0.00  0.00    +0.172 C 
ATOM     25  O   UNL     1       0.468   2.293   4.429  0.00  0.00    -0.291 OA
BRANCH  24  26
ATOM     26  C   UNL     1       0.574   2.197   6.701  0.00  0.00    +0.024 C 
ATOM     27  C   UNL     1       0.666   3.547   6.987  0.00  0.00    +0.006 A 
ATOM     28  C   UNL     1       0.692   4.704   6.172  0.00  0.00    +0.010 A 
ATOM     29  C   UNL     1       0.791   5.930   6.733  0.00  0.00    +0.001 A 
ATOM     30  C   UNL     1       0.873   6.119   8.122  0.00  0.00    +0.002 A 
ATOM     31  C   UNL     1       0.857   5.082   8.987  0.00  0.00    +0.026 A 
ATOM     32  C   UNL     1       0.751   3.712   8.459  0.00  0.00    +0.043 A 
ATOM     33  N   UNL     1       0.714   2.552   9.051  0.00  0.00    -0.380 N 
ATOM     34  C   UNL     1       0.596   1.496   8.041  0.00  0.00    +0.152 C 
ATOM     35  H   UNL     1       0.755   2.410  10.009  0.00  0.00    +0.160 HD
ENDBRANCH  24  26
ENDBRANCH  23  24
ENDBRANCH  22  23
ENDBRANCH  10  22
TORSDOF 5
