REMARK  Name = ZINC12309764
REMARK  13 active torsions:
REMARK  status: ('A' for Active; 'I' for Inactive)
REMARK    1  A    between atoms: C_1  and  C_2
REMARK    2  A    between atoms: C_2  and  C_3
REMARK    3  A    between atoms: C_3  and  C_4
REMARK    4  A    between atoms: C_4  and  C_5
REMARK    5  A    between atoms: C_11  and  N_12
REMARK    6  A    between atoms: N_12  and  O_13
REMARK    7  A    between atoms: O_13  and  C_14
REMARK    8  A    between atoms: C_14  and  C_15
REMARK    9  A    between atoms: N_17  and  C_18
REMARK   10  A    between atoms: C_20  and  C_25
REMARK   11  A    between atoms: C_22  and  C_24
REMARK   12  A    between atoms: N_28  and  C_33
REMARK   13  A    between atoms: N_31  and  C_32
REMARK                            x       y       z     vdW  Elec       q    Type
REMARK                         _______ _______ _______ _____ _____    ______ ____
ROOT
ATOM      1  C   UNL     1       0.882   5.742   1.122  0.00  0.00    -0.005 A 
ATOM      2  C   UNL     1       1.930   4.913   1.264  0.00  0.00    +0.090 A 
ATOM      3  N   UNL     1       1.857   3.591   0.917  0.00  0.00    -0.347 N 
ATOM      4  H   UNL     1       2.777   2.996   0.821  0.00  0.00    +0.167 HD
ATOM      5  C   UNL     1       0.670   2.970   0.682  0.00  0.00    +0.129 A 
ATOM      6  C   UNL     1      -0.484   3.728   0.500  0.00  0.00    +0.106 A 
ATOM      7  C   UNL     1      -0.379   5.197   0.582  0.00  0.00    +0.082 A 
ATOM      8  C   UNL     1      -1.712   3.076   0.246  0.00  0.00    +0.268 A 
ATOM      9  O   UNL     1      -2.734   3.719   0.081  0.00  0.00    -0.267 OA
ATOM     10  N   UNL     1      -1.731   1.727   0.184  0.00  0.00    -0.263 N 
ATOM     11  C   UNL     1      -0.607   1.014   0.372  0.00  0.00    +0.333 A 
ATOM     12  O   UNL     1      -0.661  -0.199   0.317  0.00  0.00    -0.246 OA
ATOM     13  N   UNL     1       0.579   1.604   0.614  0.00  0.00    -0.282 N 
ATOM     14  C   UNL     1       1.776   0.783   0.805  0.00  0.00    +0.155 C 
ATOM     15  C   UNL     1      -2.992   1.031  -0.084  0.00  0.00    +0.157 C 
ENDROOT
BRANCH   7  16
ATOM     16  N   UNL     1      -1.359   5.981   0.194  0.00  0.00    -0.264 N 
ATOM     17  H   UNL     1      -1.436   7.004   0.593  0.00  0.00    +0.194 HD
BRANCH  16  18
ATOM     18  O   UNL     1      -2.317   5.511  -0.738  0.00  0.00    -0.265 OA
BRANCH  18  19
ATOM     19  C   UNL     1      -3.325   6.468  -1.069  0.00  0.00    +0.288 C 
BRANCH  19  20
ATOM     20  C   UNL     1      -4.284   5.864  -2.062  0.00  0.00    +0.246 C 
ATOM     21  O   UNL     1      -4.121   4.726  -2.447  0.00  0.00    -0.273 OA
ATOM     22  N   UNL     1      -5.323   6.588  -2.521  0.00  0.00    -0.284 N 
ATOM     23  H   UNL     1      -5.429   7.644  -2.231  0.00  0.00    +0.155 HD
BRANCH  22  24
ATOM     24  C   UNL     1      -6.268   5.998  -3.368  0.00  0.00    +0.034 A 
ATOM     25  C   UNL     1      -7.606   6.357  -3.275  0.00  0.00    +0.026 A 
ATOM     26  C   UNL     1      -8.536   5.776  -4.116  0.00  0.00    -0.048 A 
ATOM     27  C   UNL     1      -8.136   4.830  -5.042  0.00  0.00    +0.006 A 
ATOM     28  C   UNL     1      -6.805   4.466  -5.133  0.00  0.00    -0.048 A 
ATOM     29  C   UNL     1      -5.870   5.047  -4.298  0.00  0.00    +0.026 A 
ATOM     30  C   UNL     1      -6.374   3.434  -6.143  0.00  0.00    +0.044 C 
ATOM     31  C   UNL     1      -9.987   6.169  -4.019  0.00  0.00    +0.044 C 
ENDBRANCH  22  24
ENDBRANCH  19  20
ENDBRANCH  18  19
ENDBRANCH  16  18
ENDBRANCH   7  16
BRANCH   1  32
ATOM     32  C   UNL     1       0.993   7.195   1.505  0.00  0.00    +0.039 C 
BRANCH  32  33
ATOM     33  C   UNL     1       0.595   7.367   2.973  0.00  0.00    +0.004 C 
BRANCH  33  35
ATOM     34  C   UNL     1       0.309   9.014   4.829  0.00  0.00    +0.004 C 
ATOM     35  C   UNL     1       0.707   8.842   3.362  0.00  0.00    -0.003 C 
ENDBRANCH  33  35
ENDBRANCH  32  33
ENDBRANCH   1  32
TORSDOF 8
