REMARK  Name = ZINC28448724
REMARK  10 active torsions:
REMARK  status: ('A' for Active; 'I' for Inactive)
REMARK    1  A    between atoms: C_1  and  C_2
REMARK    2  A    between atoms: C_4  and  N_11
REMARK    3  A    between atoms: C_5  and  O_9
REMARK    4  A    between atoms: O_9  and  C_10
REMARK    5  A    between atoms: C_12  and  C_14
REMARK    6  A    between atoms: C_14  and  O_15
REMARK    7  A    between atoms: O_15  and  C_16
REMARK    8  A    between atoms: C_16  and  C_18
REMARK    9  A    between atoms: C_22  and  N_23
REMARK   10  A    between atoms: C_24  and  C_26
REMARK                            x       y       z     vdW  Elec       q    Type
REMARK                         _______ _______ _______ _____ _____    ______ ____
ROOT
ATOM      1  O   UNL     1      -2.420   0.985  -0.007  0.00  0.00    -0.452 OA
ENDROOT
BRANCH   1   2
ATOM      2  C   UNL     1      -3.673   1.482  -0.009  0.00  0.00    +0.342 C 
ATOM      3  O   UNL     1      -3.850   2.686  -0.007  0.00  0.00    -0.245 OA
BRANCH   2   4
ATOM      4  C   UNL     1      -4.822   0.574  -0.015  0.00  0.00    +0.091 A 
ATOM      5  C   UNL     1      -5.414   0.099   1.224  0.00  0.00    -0.021 A 
ATOM      6  C   UNL     1      -6.470  -0.730   1.076  0.00  0.00    -0.004 A 
ATOM      7  S   UNL     1      -6.676  -0.893  -0.675  0.00  0.00    -0.077 S 
ATOM      8  C   UNL     1      -5.383   0.130  -1.206  0.00  0.00    +0.086 A 
ATOM      9  C   UNL     1      -7.276  -1.369   2.165  0.00  0.00    +0.043 C 
ATOM     10  C   UNL     1      -6.500  -1.236   3.483  0.00  0.00    +0.005 C 
ATOM     11  C   UNL     1      -6.020   0.211   3.630  0.00  0.00    +0.005 C 
ATOM     12  C   UNL     1      -4.919   0.500   2.608  0.00  0.00    +0.037 C 
BRANCH   8  13
ATOM     13  N   UNL     1      -5.001   0.432  -2.503  0.00  0.00    -0.280 N 
ATOM     14  C   UNL     1      -5.672  -0.099  -3.544  0.00  0.00    +0.214 C 
ATOM     15  O   UNL     1      -6.611  -0.841  -3.346  0.00  0.00    -0.276 OA
ATOM     16  C   UNL     1      -5.257   0.229  -4.955  0.00  0.00    +0.109 C 
ATOM     17  H   UNL     1      -4.150   1.105  -2.684  0.00  0.00    +0.155 HD
ENDBRANCH   8  13
ENDBRANCH   2   4
ENDBRANCH   1   2
BRANCH   1  18
ATOM     18  C   UNL     1      -1.330   1.943  -0.001  0.00  0.00    +0.328 C 
BRANCH  18  20
ATOM     19  N   UNL     1       1.143   1.899   0.001  0.00  0.00    -0.280 N 
ATOM     20  C   UNL     1      -0.014   1.208   0.001  0.00  0.00    +0.255 C 
ATOM     21  O   UNL     1       0.003  -0.005  -0.002  0.00  0.00    -0.272 OA
ATOM     22  H   UNL     1       1.129   2.996  -0.070  0.00  0.00    +0.155 HD
BRANCH  19  26
ATOM     23  C   UNL     1       3.882  -2.044  -1.068  0.00  0.00    +0.045 C 
ATOM     24  C   UNL     1       3.721  -0.694  -0.417  0.00  0.00    -0.030 A 
ATOM     25  C   UNL     1       2.515  -0.024  -0.507  0.00  0.00    +0.031 A 
ATOM     26  C   UNL     1       2.365   1.218   0.092  0.00  0.00    +0.076 A 
ATOM     27  C   UNL     1       3.434   1.790   0.778  0.00  0.00    +0.143 A 
ATOM     28  C   UNL     1       4.638   1.111   0.869  0.00  0.00    +0.067 A 
ATOM     29  C   UNL     1       4.780  -0.129   0.270  0.00  0.00    +0.047 A 
ATOM     30 CL   UNL     1       6.292  -0.975   0.379  0.00  0.00    -0.083 Cl
BRANCH  27  31
ATOM     31  O   UNL     1       3.295   3.010   1.362  0.00  0.00    -0.493 OA
ATOM     32  C   UNL     1       4.433   3.534   2.049  0.00  0.00    +0.277 C 
ENDBRANCH  27  31
ENDBRANCH  19  26
ENDBRANCH  18  20
ENDBRANCH   1  18
TORSDOF 7
