REMARK  Name = ZINC12306007
REMARK  5 active torsions:
REMARK  status: ('A' for Active; 'I' for Inactive)
REMARK    1  A    between atoms: C_1  and  C_2
REMARK    2  A    between atoms: C_3  and  C_17
REMARK    3  A    between atoms: C_5  and  C_7
REMARK    4  A    between atoms: C_17  and  N_55
REMARK    5  A    between atoms: C_22  and  C_24
REMARK                            x       y       z     vdW  Elec       q    Type
REMARK                         _______ _______ _______ _____ _____    ______ ____
ROOT
ATOM      1  C   UNL     1      -4.665   0.872   1.946  0.00  0.00    -0.018 C 
ENDROOT
BRANCH   1   7
ATOM      2  C   UNL     1      -6.726   1.012   0.684  0.00  0.00    -0.077 C 
ATOM      3  C   UNL     1      -7.304   1.090  -0.731  0.00  0.00    -0.019 C 
ATOM      4  C   UNL     1      -6.865   2.403  -1.385  0.00  0.00    -0.003 C 
ATOM      5  C   UNL     1      -5.335   2.472  -1.396  0.00  0.00    -0.008 C 
ATOM      6  C   UNL     1      -4.814   2.354   0.038  0.00  0.00    -0.001 C 
ATOM      7  N   UNL     1      -5.250   1.059   0.603  0.00  0.00    +0.390 N 
ATOM      8  H   UNL     1      -4.926   0.303  -0.011  0.00  0.00    -0.080 HD
BRANCH   6   9
ATOM      9  C   UNL     1      -3.308   2.402   0.031  0.00  0.00    +0.095 A 
ATOM     10  N   UNL     1      -2.564   3.541   0.045  0.00  0.00    -0.343 N 
ATOM     11  H   UNL     1      -2.914   4.477   0.062  0.00  0.00    +0.167 HD
ATOM     12  C   UNL     1      -1.236   3.164   0.030  0.00  0.00    +0.066 A 
ATOM     13  C   UNL     1      -0.034   3.859   0.023  0.00  0.00    +0.028 A 
ATOM     14  C   UNL     1       1.156   3.164   0.008  0.00  0.00    +0.002 A 
ATOM     15  C   UNL     1       1.160   1.776   0.001  0.00  0.00    +0.002 A 
ATOM     16  C   UNL     1      -0.013   1.076   0.008  0.00  0.00    +0.030 A 
ATOM     17  C   UNL     1      -1.231   1.759   0.017  0.00  0.00    +0.089 A 
ATOM     18  N   UNL     1      -2.529   1.359   0.021  0.00  0.00    -0.234 NA
ENDBRANCH   6   9
ENDBRANCH   1   7
BRANCH   1  21
ATOM     19  C   UNL     1      -3.754  -2.111   1.744  0.00  0.00    +0.088 C 
ATOM     20  C   UNL     1      -4.933  -1.590   2.525  0.00  0.00    +0.124 A 
ATOM     21  C   UNL     1      -5.326  -0.307   2.613  0.00  0.00    +0.066 A 
ATOM     22  N   UNL     1      -6.409  -0.262   3.404  0.00  0.00    -0.216 NA
ATOM     23  C   UNL     1      -6.694  -1.483   3.795  0.00  0.00    +0.229 A 
ATOM     24  O   UNL     1      -5.789  -2.324   3.265  0.00  0.00    -0.440 OA
BRANCH  23  25
ATOM     25  C   UNL     1      -7.817  -1.867   4.674  0.00  0.00    +0.059 A 
ATOM     26  C   UNL     1      -8.011  -3.207   5.017  0.00  0.00    +0.064 A 
ATOM     27  C   UNL     1      -9.059  -3.562   5.844  0.00  0.00    +0.167 A 
ATOM     28  C   UNL     1      -9.929  -2.584   6.327  0.00  0.00    +0.168 A 
ATOM     29  C   UNL     1      -9.740  -1.254   5.982  0.00  0.00    +0.070 A 
ATOM     30  C   UNL     1      -8.691  -0.892   5.160  0.00  0.00    +0.057 A 
ATOM     31 CL   UNL     1      -8.459   0.774   4.732  0.00  0.00    -0.083 Cl
ATOM     32  O   UNL     1     -10.872  -3.188   7.108  0.00  0.00    -0.453 OA
ATOM     33  C   UNL     1     -10.332  -4.483   7.431  0.00  0.00    +0.466 C 
ATOM     34  O   UNL     1      -9.459  -4.776   6.325  0.00  0.00    -0.453 OA
ENDBRANCH  23  25
ENDBRANCH   1  21
TORSDOF 4
