REMARK  Name = ZINC63199559
REMARK  3 active torsions:
REMARK  status: ('A' for Active; 'I' for Inactive)
REMARK    1  A    between atoms: C_4  and  S_8
REMARK    2  A    between atoms: S_8  and  N_11
REMARK    3  A    between atoms: C_14  and  C_17
REMARK                            x       y       z     vdW  Elec       q    Type
REMARK                         _______ _______ _______ _____ _____    ______ ____
ROOT
ATOM      1  N   UNL     1       4.055  -1.658   1.387  0.00  0.00    -0.176 NA
ATOM      2  C   UNL     1       4.665  -1.033   2.568  0.00  0.00    +0.109 C 
ATOM      3  C   UNL     1       5.773  -1.951   3.094  0.00  0.00    +0.019 C 
ATOM      4  C   UNL     1       5.197  -3.346   3.348  0.00  0.00    -0.023 C 
ATOM      5  C   UNL     1       4.670  -3.929   2.034  0.00  0.00    +0.019 C 
ATOM      6  C   UNL     1       3.545  -3.031   1.498  0.00  0.00    +0.109 C 
ENDROOT
BRANCH   4   7
ATOM      7  C   UNL     1       6.292  -4.256   3.906  0.00  0.00    -0.069 C 
ATOM      8  C   UNL     1       7.434  -4.396   2.877  0.00  0.00    -0.017 C 
ATOM      9  C   UNL     1       7.850  -5.884   3.016  0.00  0.00    -0.021 C 
ATOM     10  C   UNL     1       6.486  -6.566   3.292  0.00  0.00    -0.082 C 
ATOM     11  N   UNL     1       5.749  -5.606   4.146  0.00  0.00    +0.381 N 
ATOM     12  H   UNL     1       5.868  -5.852   5.118  0.00  0.00    -0.086 HD
ATOM     13  H   UNL     1       4.768  -5.624   3.911  0.00  0.00    -0.086 HD
ENDBRANCH   4   7
BRANCH   1  14
ATOM     14  S   UNL     1       3.938  -0.827  -0.042  0.00  0.00    +0.064 S 
ATOM     15  O   UNL     1       3.846  -1.802  -1.072  0.00  0.00    -0.153 OA
ATOM     16  O   UNL     1       4.956   0.164  -0.019  0.00  0.00    -0.153 OA
BRANCH  14  20
ATOM     17  C   UNL     1      -0.017   1.377   0.010  0.00  0.00    +0.003 A 
ATOM     18  C   UNL     1       1.171   2.086   0.002  0.00  0.00    +0.002 A 
ATOM     19  C   UNL     1       2.378   1.413  -0.013  0.00  0.00    +0.031 A 
ATOM     20  C   UNL     1       2.399   0.030  -0.021  0.00  0.00    +0.140 A 
ATOM     21  C   UNL     1       1.211  -0.679  -0.013  0.00  0.00    +0.150 A 
ATOM     22  C   UNL     1       0.002  -0.004   0.002  0.00  0.00    +0.040 A 
ATOM     23  F   UNL     1       1.230  -2.030  -0.022  0.00  0.00    -0.203 F 
ENDBRANCH  14  20
ENDBRANCH   1  14
TORSDOF 3
