REMARK  Name = ZINC03670323
REMARK  12 active torsions:
REMARK  status: ('A' for Active; 'I' for Inactive)
REMARK    1  A    between atoms: C_1  and  N_65
REMARK    2  A    between atoms: C_2  and  C_3
REMARK    3  A    between atoms: C_2  and  N_65
REMARK    4  A    between atoms: C_3  and  C_4
REMARK    5  A    between atoms: C_4  and  N_5
REMARK    6  A    between atoms: C_6  and  C_8
REMARK    7  A    between atoms: C_8  and  O_27
REMARK    8  A    between atoms: N_18  and  C_19
REMARK    9  A    between atoms: C_23  and  O_25
REMARK   10  A    between atoms: O_25  and  C_26
REMARK   11  A    between atoms: C_28  and  C_29
REMARK   12  A    between atoms: C_28  and  N_65
REMARK                            x       y       z     vdW  Elec       q    Type
REMARK                         _______ _______ _______ _____ _____    ______ ____
ROOT
ATOM      1  C   UNL     1      -1.393   2.016  -0.391  0.00  0.00    +0.247 C 
ATOM      2  C   UNL     1      -0.048   1.327  -0.383  0.00  0.00    +0.033 A 
ATOM      3  C   UNL     1       1.096   1.987  -0.767  0.00  0.00    +0.010 A 
ATOM      4  C   UNL     1       2.312   1.325  -0.742  0.00  0.00    +0.001 A 
ATOM      5  C   UNL     1       2.374   0.006  -0.331  0.00  0.00    +0.002 A 
ATOM      6  C   UNL     1       1.226  -0.659   0.055  0.00  0.00    +0.024 A 
ATOM      7  C   UNL     1       0.004   0.000   0.031  0.00  0.00    +0.043 A 
ATOM      8  N   UNL     1      -1.166  -0.653   0.418  0.00  0.00    -0.269 N 
ATOM      9  C   UNL     1      -2.367  -0.061   0.414  0.00  0.00    +0.314 C 
ATOM     10  O   UNL     1      -3.333  -0.708   0.768  0.00  0.00    -0.252 OA
ATOM     11  N   UNL     1      -2.554   1.216   0.036  0.00  0.00    -0.214 N 
ATOM     12  H   UNL     1      -1.107  -1.579   0.704  0.00  0.00    +0.156 HD
ENDROOT
BRANCH  11  13
ATOM     13  C   UNL     1      -3.835   1.780   0.053  0.00  0.00    +0.045 A 
ATOM     14  C   UNL     1      -4.688   1.601  -1.030  0.00  0.00    +0.024 A 
ATOM     15  C   UNL     1      -5.952   2.156  -1.013  0.00  0.00    +0.005 A 
ATOM     16  C   UNL     1      -6.372   2.892   0.079  0.00  0.00    +0.046 A 
ATOM     17  C   UNL     1      -5.524   3.074   1.163  0.00  0.00    +0.122 A 
ATOM     18  C   UNL     1      -4.257   2.513   1.152  0.00  0.00    +0.069 A 
BRANCH  17  19
ATOM     19  O   UNL     1      -5.938   3.798   2.236  0.00  0.00    -0.495 OA
ATOM     20  C   UNL     1      -7.259   4.342   2.181  0.00  0.00    +0.277 C 
ENDBRANCH  17  19
ENDBRANCH  11  13
BRANCH   1  22
ATOM     21  N   UNL     1      -1.817   1.605  -2.794  0.00  0.00    -0.311 N 
ATOM     22  C   UNL     1      -1.661   2.497  -1.794  0.00  0.00    +0.269 C 
ATOM     23  O   UNL     1      -1.735   3.685  -2.025  0.00  0.00    -0.270 OA
ATOM     24  H   UNL     1      -1.758   0.655  -2.610  0.00  0.00    +0.149 HD
BRANCH  21  25
ATOM     25  C   UNL     1      -2.077   2.073  -4.158  0.00  0.00    +0.102 C 
BRANCH  25  26
ATOM     26  C   UNL     1      -2.213   0.869  -5.092  0.00  0.00    +0.000 C 
BRANCH  26  27
ATOM     27  C   UNL     1      -2.485   1.357  -6.516  0.00  0.00    -0.077 C 
BRANCH  27  29
ATOM     28  C   UNL     1      -1.342  -0.523  -7.528  0.00  0.00    -0.096 C 
ATOM     29  N   UNL     1      -2.635   0.183  -7.402  0.00  0.00    +0.381 N 
ATOM     30  H   UNL     1      -3.325  -0.457  -6.993  0.00  0.00    -0.082 HD
BRANCH  29  31
ATOM     31  C   UNL     1      -3.108   0.612  -8.734  0.00  0.00    -0.043 C 
BRANCH  31  32
ATOM     32  C   UNL     1      -3.462  -0.610  -9.542  0.00  0.00    -0.064 A 
ATOM     33  C   UNL     1      -2.509  -1.207 -10.346  0.00  0.00    +0.002 A 
ATOM     34  C   UNL     1      -2.832  -2.331 -11.083  0.00  0.00    +0.000 A 
ATOM     35  C   UNL     1      -4.112  -2.851 -11.024  0.00  0.00    +0.000 A 
ATOM     36  C   UNL     1      -5.066  -2.251 -10.224  0.00  0.00    +0.000 A 
ATOM     37  C   UNL     1      -4.741  -1.130  -9.483  0.00  0.00    +0.002 A 
ENDBRANCH  31  32
ENDBRANCH  29  31
ENDBRANCH  27  29
ENDBRANCH  26  27
ENDBRANCH  25  26
ENDBRANCH  21  25
ENDBRANCH   1  22
BRANCH   1  38
ATOM     38  O   UNL     1      -1.305   3.165   0.454  0.00  0.00    -0.360 OA
ATOM     39  H   UNL     1      -0.638   3.808   0.176  0.00  0.00    +0.213 HD
ENDBRANCH   1  38
TORSDOF 10
