REMARK  Name = ZINC66097241
REMARK  5 active torsions:
REMARK  status: ('A' for Active; 'I' for Inactive)
REMARK    1  A    between atoms: C_1  and  C_2
REMARK    2  A    between atoms: C_3  and  C_11
REMARK    3  A    between atoms: C_8  and  C_10
REMARK    4  A    between atoms: C_11  and  C_12
REMARK    5  A    between atoms: C_17  and  C_21
REMARK                            x       y       z     vdW  Elec       q    Type
REMARK                         _______ _______ _______ _____ _____    ______ ____
ROOT
ATOM      1  C   UNL     1      -3.000   0.156  -1.397  0.00  0.00    +0.223 C 
ATOM      2  O   UNL     1      -2.350  -0.285  -2.321  0.00  0.00    -0.275 OA
ATOM      3  N   UNL     1      -4.176   0.770  -1.633  0.00  0.00    -0.269 N 
ATOM      4  C   UNL     1      -4.649   0.900  -2.946  0.00  0.00    +0.147 A 
ATOM      5  C   UNL     1      -4.003   0.433  -4.098  0.00  0.00    +0.073 A 
ATOM      6  C   UNL     1      -4.783   0.754  -5.172  0.00  0.00    +0.068 A 
ATOM      7  N   UNL     1      -5.884   1.403  -4.698  0.00  0.00    -0.275 N 
ATOM      8  H   UNL     1      -6.616   1.751  -5.232  0.00  0.00    +0.189 HD
ATOM      9  N   UNL     1      -5.774   1.474  -3.304  0.00  0.00    -0.158 NA
ATOM     10  H   UNL     1      -4.696   1.123  -0.893  0.00  0.00    +0.156 HD
ENDROOT
BRANCH   6  11
ATOM     11  C   UNL     1      -4.487   0.453  -6.590  0.00  0.00    +0.003 A 
ATOM     12  C   UNL     1      -3.318  -0.227  -6.932  0.00  0.00    +0.030 A 
ATOM     13  C   UNL     1      -3.047  -0.506  -8.258  0.00  0.00    +0.043 A 
ATOM     14  C   UNL     1      -3.933  -0.112  -9.246  0.00  0.00    +0.040 A 
ATOM     15  C   UNL     1      -5.095   0.563  -8.912  0.00  0.00    +0.043 A 
ATOM     16  C   UNL     1      -5.379   0.842  -7.590  0.00  0.00    +0.030 A 
ATOM     17 CL   UNL     1      -6.200   1.053 -10.158  0.00  0.00    -0.083 Cl
ATOM     18 CL   UNL     1      -1.592  -1.352  -8.685  0.00  0.00    -0.083 Cl
ENDBRANCH   6  11
BRANCH   1  19
ATOM     19  C   UNL     1      -2.492   0.017   0.015  0.00  0.00    +0.138 C 
BRANCH  19  22
ATOM     20  C   UNL     1      -0.018   1.503   0.010  0.00  0.00    +0.066 C 
ATOM     21  C   UNL     1       0.002  -0.004   0.002  0.00  0.00    +0.049 A 
ATOM     22  C   UNL     1      -1.167  -0.702   0.004  0.00  0.00    +0.047 A 
ATOM     23  C   UNL     1      -1.113  -2.111  -0.005  0.00  0.00    +0.255 A 
ATOM     24  O   UNL     1      -2.136  -2.774  -0.004  0.00  0.00    -0.267 OA
ATOM     25  N   UNL     1       0.097  -2.710  -0.014  0.00  0.00    -0.311 N 
ATOM     26  H   UNL     1       0.160  -3.678  -0.020  0.00  0.00    +0.170 HD
ATOM     27  C   UNL     1       1.218  -1.962  -0.015  0.00  0.00    +0.107 A 
ATOM     28  N   UNL     1       1.167  -0.657  -0.013  0.00  0.00    -0.239 NA
ATOM     29  C   UNL     1       2.560  -2.647  -0.026  0.00  0.00    +0.086 C 
ENDBRANCH  19  22
ENDBRANCH   1  19
TORSDOF 3
