REMARK  Name = ZINC13051420
REMARK  10 active torsions:
REMARK  status: ('A' for Active; 'I' for Inactive)
REMARK    1  A    between atoms: C_1  and  C_2
REMARK    2  A    between atoms: C_2  and  C_4
REMARK    3  A    between atoms: C_2  and  O_33
REMARK    4  A    between atoms: C_4  and  N_5
REMARK    5  A    between atoms: C_11  and  C_31
REMARK    6  A    between atoms: C_15  and  S_16
REMARK    7  A    between atoms: S_16  and  C_17
REMARK    8  A    between atoms: C_17  and  C_19
REMARK    9  A    between atoms: C_17  and  C_20
REMARK   10  A    between atoms: N_22  and  C_23
REMARK                            x       y       z     vdW  Elec       q    Type
REMARK                         _______ _______ _______ _____ _____    ______ ____
ROOT
ATOM      1  N   UNL     1       2.343  -0.064  -0.009  0.00  0.00    -0.285 N 
ATOM      2  C   UNL     1       2.443   1.285   0.005  0.00  0.00    +0.262 A 
ATOM      3  O   UNL     1       3.527   1.837  -0.002  0.00  0.00    -0.267 OA
ATOM      4  C   UNL     1       1.192   2.061   0.030  0.00  0.00    +0.065 A 
ATOM      5  C   UNL     1       1.196   3.455   0.046  0.00  0.00    +0.016 A 
ATOM      6  C   UNL     1       0.013   4.138   0.070  0.00  0.00    +0.016 A 
ATOM      7  C   UNL     1      -1.207   3.450   0.078  0.00  0.00    +0.065 A 
ATOM      8  C   UNL     1      -1.234   2.061   0.067  0.00  0.00    +0.043 A 
ATOM      9  C   UNL     1      -0.030   1.352   0.038  0.00  0.00    +0.080 A 
ATOM     10  N   UNL     1      -0.008  -0.002   0.022  0.00  0.00    -0.223 NA
ATOM     11  C   UNL     1       1.119  -0.669  -0.000  0.00  0.00    +0.173 A 
ENDROOT
BRANCH   7  12
ATOM     12  C   UNL     1      -2.477   4.209   0.103  0.00  0.00    +0.387 C 
ATOM     13  O   UNL     1      -3.538   3.618   0.110  0.00  0.00    -0.241 OA
ATOM     14  O   UNL     1      -2.457   5.556   0.118  0.00  0.00    -0.241 OA
ENDBRANCH   7  12
BRANCH   1  15
ATOM     15  C   UNL     1       3.558  -0.882  -0.033  0.00  0.00    +0.158 C 
BRANCH  15  17
ATOM     16  C   UNL     1       5.158  -2.107  -1.511  0.00  0.00    +0.039 C 
ATOM     17  C   UNL     1       3.963  -1.151  -1.484  0.00  0.00    +0.131 C 
BRANCH  17  18
ATOM     18  O   UNL     1       4.324   0.080  -2.114  0.00  0.00    -0.390 OA
ATOM     19  H   UNL     1       5.064   0.536  -1.691  0.00  0.00    +0.210 HD
ENDBRANCH  17  18
ENDBRANCH  15  17
ENDBRANCH   1  15
BRANCH  11  20
ATOM     20  S   UNL     1       1.053  -2.430  -0.020  0.00  0.00    -0.075 S 
BRANCH  20  21
ATOM     21  C   UNL     1      -0.740  -2.677   0.001  0.00  0.00    +0.137 C 
ATOM     22  C   UNL     1      -1.312  -2.158   1.322  0.00  0.00    +0.029 C 
BRANCH  21  23
ATOM     23  C   UNL     1      -1.046  -4.146  -0.136  0.00  0.00    +0.230 C 
ATOM     24  O   UNL     1      -0.227  -4.971   0.209  0.00  0.00    -0.274 OA
ATOM     25  N   UNL     1      -2.231  -4.544  -0.641  0.00  0.00    -0.285 N 
ATOM     26  H   UNL     1      -2.912  -3.887  -0.854  0.00  0.00    +0.155 HD
BRANCH  25  27
ATOM     27  C   UNL     1      -2.478  -5.904  -0.858  0.00  0.00    +0.036 A 
ATOM     28  C   UNL     1      -3.250  -6.306  -1.940  0.00  0.00    +0.043 A 
ATOM     29  C   UNL     1      -3.488  -7.651  -2.156  0.00  0.00    +0.044 A 
ATOM     30  C   UNL     1      -2.967  -8.595  -1.288  0.00  0.00    +0.040 A 
ATOM     31  C   UNL     1      -2.203  -8.196  -0.205  0.00  0.00    +0.044 A 
ATOM     32  C   UNL     1      -1.958  -6.853   0.011  0.00  0.00    +0.043 A 
ATOM     33 CL   UNL     1      -1.552  -9.383   0.881  0.00  0.00    -0.083 Cl
ATOM     34 CL   UNL     1      -4.446  -8.155  -3.513  0.00  0.00    -0.083 Cl
ENDBRANCH  25  27
ENDBRANCH  21  23
ENDBRANCH  20  21
ENDBRANCH  11  20
TORSDOF 8
