REMARK  Name = ZINC17090521
REMARK  6 active torsions:
REMARK  status: ('A' for Active; 'I' for Inactive)
REMARK    1  A    between atoms: C_3  and  C_15
REMARK    2  A    between atoms: N_4  and  C_6
REMARK    3  A    between atoms: C_6  and  C_7
REMARK    4  A    between atoms: C_16  and  C_17
REMARK    5  A    between atoms: C_16  and  C_19
REMARK    6  A    between atoms: N_21  and  C_22
REMARK                            x       y       z     vdW  Elec       q    Type
REMARK                         _______ _______ _______ _____ _____    ______ ____
ROOT
ATOM      1  C   UNL     1       4.036   5.199   2.557  0.00  0.00    +0.050 C 
ATOM      2  C   UNL     1       2.885   4.830   1.880  0.00  0.00    +0.115 C 
ENDROOT
BRANCH   1   5
ATOM      3  C   UNL     1       3.452   8.280   4.340  0.00  0.00    +0.020 A 
ATOM      4  C   UNL     1       2.981   7.226   3.557  0.00  0.00    +0.027 A 
ATOM      5  C   UNL     1       4.060   6.390   3.308  0.00  0.00    +0.043 A 
ATOM      6  N   UNL     1       5.162   6.943   3.926  0.00  0.00    -0.343 N 
ATOM      7  C   UNL     1       4.780   8.086   4.547  0.00  0.00    +0.086 A 
BRANCH   6   8
ATOM      8  C   UNL     1       6.517   6.389   3.914  0.00  0.00    +0.158 C 
BRANCH   8   9
ATOM      9  C   UNL     1       7.234   6.839   2.668  0.00  0.00    -0.009 A 
ATOM     10  C   UNL     1       7.294   6.007   1.566  0.00  0.00    +0.008 A 
ATOM     11  C   UNL     1       7.946   6.422   0.420  0.00  0.00    +0.020 A 
ATOM     12  C   UNL     1       8.549   7.667   0.379  0.00  0.00    +0.042 A 
ATOM     13  C   UNL     1       8.495   8.498   1.484  0.00  0.00    +0.040 A 
ATOM     14  C   UNL     1       7.837   8.084   2.628  0.00  0.00    +0.047 A 
ATOM     15 CL   UNL     1       7.767   9.127   4.014  0.00  0.00    -0.083 Cl
ATOM     16 CL   UNL     1       9.375   8.185  -1.057  0.00  0.00    -0.083 Cl
ENDBRANCH   8   9
ENDBRANCH   6   8
ENDBRANCH   1   5
BRANCH   2  17
ATOM     17  C   UNL     1       2.898   3.659   0.994  0.00  0.00    +0.255 C 
ATOM     18  O   UNL     1       3.920   3.013   0.854  0.00  0.00    -0.269 OA
ATOM     19  N   UNL     1       1.778   3.300   0.335  0.00  0.00    -0.308 N 
ATOM     20  H   UNL     1       0.964   3.815   0.446  0.00  0.00    +0.149 HD
BRANCH  19  21
ATOM     21  C   UNL     1       1.791   2.132  -0.549  0.00  0.00    +0.073 C 
ATOM     22  C   UNL     1       0.392   1.589  -0.660  0.00  0.00    +0.022 C 
ATOM     23  C   UNL     1       0.469   0.053  -0.771  0.00  0.00    +0.002 C 
ATOM     24  C   UNL     1       0.796  -0.390  -2.118  0.00  0.00    +0.000 C 
ATOM     25  C   UNL     1       2.179   0.112  -2.582  0.00  0.00    +0.000 C 
ATOM     26  C   UNL     1       2.043   1.540  -3.034  0.00  0.00    +0.002 C 
ATOM     27  C   UNL     1       2.372   2.546  -1.914  0.00  0.00    +0.022 C 
ENDBRANCH  19  21
ENDBRANCH   2  17
BRANCH   2  28
ATOM     28  C   UNL     1       1.683   5.590   2.044  0.00  0.00    +0.104 C 
ATOM     29  N   UNL     1       0.729   6.193   2.174  0.00  0.00    -0.191 NA
ENDBRANCH   2  28
TORSDOF 6
