REMARK  Name = ZINC56145420
REMARK  6 active torsions:
REMARK  status: ('A' for Active; 'I' for Inactive)
REMARK    1  A    between atoms: C_1  and  C_2
REMARK    2  A    between atoms: C_2  and  C_4
REMARK    3  A    between atoms: C_2  and  N_15
REMARK    4  A    between atoms: N_6  and  C_7
REMARK    5  A    between atoms: N_15  and  C_16
REMARK    6  A    between atoms: C_20  and  N_22
REMARK                            x       y       z     vdW  Elec       q    Type
REMARK                         _______ _______ _______ _____ _____    ______ ____
ROOT
ATOM      1  N   UNL     1       0.909  -0.188  -1.183  0.00  0.00    -0.333 N 
ATOM      2  H   UNL     1       1.870  -0.293  -1.106  0.00  0.00    +0.147 HD
ENDROOT
BRANCH   1   3
ATOM      3  C   UNL     1       0.287  -0.329  -2.427  0.00  0.00    +0.030 A 
ATOM      4  C   UNL     1      -1.088  -0.173  -2.538  0.00  0.00    +0.026 A 
ATOM      5  C   UNL     1      -1.704  -0.312  -3.768  0.00  0.00    +0.042 A 
ATOM      6  C   UNL     1      -0.953  -0.608  -4.891  0.00  0.00    +0.145 A 
ATOM      7  C   UNL     1       0.425  -0.767  -4.785  0.00  0.00    +0.073 A 
ATOM      8  C   UNL     1       1.045  -0.621  -3.553  0.00  0.00    +0.049 A 
ATOM      9  F   UNL     1      -1.558  -0.745  -6.091  0.00  0.00    -0.204 F 
BRANCH   7  10
ATOM     10  N   UNL     1       1.185  -1.068  -5.921  0.00  0.00    -0.269 N 
ATOM     11  C   UNL     1       1.792  -0.063  -6.802  0.00  0.00    +0.114 C 
ATOM     12  C   UNL     1       2.858  -0.823  -7.622  0.00  0.00    +0.029 C 
ATOM     13  C   UNL     1       2.306  -2.267  -7.595  0.00  0.00    +0.098 C 
ATOM     14  C   UNL     1       1.458  -2.315  -6.343  0.00  0.00    +0.220 C 
ATOM     15  O   UNL     1       1.077  -3.330  -5.800  0.00  0.00    -0.275 OA
ENDBRANCH   7  10
ENDBRANCH   1   3
BRANCH   1  17
ATOM     16  C   UNL     1      -0.100   1.633   0.101  0.00  0.00    +0.038 C 
ATOM     17  C   UNL     1       0.109   0.120   0.005  0.00  0.00    +0.154 C 
BRANCH  17  18
ATOM     18  C   UNL     1       0.829  -0.366   1.236  0.00  0.00    +0.237 C 
ATOM     19  O   UNL     1       1.905  -0.917   1.131  0.00  0.00    -0.273 OA
ATOM     20  N   UNL     1       0.278  -0.191   2.453  0.00  0.00    -0.284 N 
ATOM     21  H   UNL     1      -0.544   0.316   2.545  0.00  0.00    +0.155 HD
BRANCH  20  22
ATOM     22  C   UNL     1       0.892  -0.739   3.586  0.00  0.00    +0.036 A 
ATOM     23  C   UNL     1       0.813  -0.082   4.806  0.00  0.00    +0.026 A 
ATOM     24  C   UNL     1       1.419  -0.623   5.923  0.00  0.00    +0.043 A 
ATOM     25  C   UNL     1       2.105  -1.822   5.827  0.00  0.00    +0.159 A 
ATOM     26  C   UNL     1       2.186  -2.481   4.610  0.00  0.00    +0.160 A 
ATOM     27  C   UNL     1       1.575  -1.944   3.491  0.00  0.00    +0.064 A 
ATOM     28  F   UNL     1       2.856  -3.650   4.518  0.00  0.00    -0.202 F 
ATOM     29  F   UNL     1       2.697  -2.349   6.921  0.00  0.00    -0.202 F 
ENDBRANCH  20  22
ENDBRANCH  17  18
ENDBRANCH   1  17
TORSDOF 5
