REMARK  Name = ZINC02227806
REMARK  2 active torsions:
REMARK  status: ('A' for Active; 'I' for Inactive)
REMARK    1  A    between atoms: C_4  and  C_7
REMARK    2  A    between atoms: N_13  and  N_14
REMARK                            x       y       z     vdW  Elec       q    Type
REMARK                         _______ _______ _______ _____ _____    ______ ____
ROOT
ATOM      1  C   UNL     1      -1.242   0.633  -1.975  0.00  0.00    +0.161 A 
ATOM      2  N   UNL     1      -1.587   1.110  -3.151  0.00  0.00    -0.227 NA
ATOM      3  C   UNL     1      -1.806   2.418  -3.329  0.00  0.00    +0.083 A 
ATOM      4  C   UNL     1      -1.701   3.287  -2.255  0.00  0.00    +0.051 A 
ATOM      5  C   UNL     1      -1.334   2.773  -1.001  0.00  0.00    +0.275 A 
ATOM      6  O   UNL     1      -1.226   3.508  -0.033  0.00  0.00    -0.266 OA
ATOM      7  N   UNL     1      -1.099   1.447  -0.890  0.00  0.00    -0.214 N 
ATOM      8  C   UNL     1      -1.989   4.753  -2.429  0.00  0.00    +0.007 C 
ATOM      9  C   UNL     1      -3.497   4.991  -2.302  0.00  0.00    +0.012 C 
ATOM     10  C   UNL     1      -3.793   6.482  -2.474  0.00  0.00    +0.001 C 
ATOM     11  C   UNL     1      -3.062   7.276  -1.389  0.00  0.00    +0.000 C 
ATOM     12  C   UNL     1      -1.556   7.037  -1.510  0.00  0.00    +0.001 C 
ATOM     13  C   UNL     1      -1.260   5.546  -1.339  0.00  0.00    +0.012 C 
ATOM     14  C   UNL     1      -1.516   5.228  -3.802  0.00  0.00    +0.047 C 
ATOM     15  C   UNL     1      -2.055   4.331  -4.884  0.00  0.00    -0.037 A 
ATOM     16  C   UNL     1      -2.175   2.959  -4.656  0.00  0.00    +0.004 A 
ATOM     17  C   UNL     1      -2.608   2.120  -5.678  0.00  0.00    +0.010 A 
ATOM     18  C   UNL     1      -2.955   2.654  -6.903  0.00  0.00    +0.001 A 
ATOM     19  C   UNL     1      -2.864   4.018  -7.115  0.00  0.00    +0.000 A 
ATOM     20  C   UNL     1      -2.414   4.854  -6.109  0.00  0.00    +0.004 A 
ENDROOT
BRANCH   1  24
ATOM     21  C   UNL     1      -0.561  -3.537  -1.544  0.00  0.00    +0.000 A 
ATOM     22  C   UNL     1      -1.330  -2.864  -0.610  0.00  0.00    +0.001 A 
ATOM     23  C   UNL     1      -1.556  -1.510  -0.744  0.00  0.00    +0.011 A 
ATOM     24  C   UNL     1      -1.006  -0.818  -1.825  0.00  0.00    +0.019 A 
ATOM     25  C   UNL     1      -0.235  -1.503  -2.766  0.00  0.00    +0.011 A 
ATOM     26  C   UNL     1      -0.013  -2.857  -2.617  0.00  0.00    +0.001 A 
ENDBRANCH   1  24
BRANCH   7  27
ATOM     27  N   UNL     1      -0.721   0.920   0.312  0.00  0.00    -0.294 N 
ATOM     28  H   UNL     1      -0.495  -0.059   0.222  0.00  0.00    +0.163 HD
ATOM     29  H   UNL     1       0.053   1.435   0.705  0.00  0.00    +0.163 HD
ENDBRANCH   7  27
TORSDOF 2
