REMARK  Name = ZINC02188779
REMARK  9 active torsions:
REMARK  status: ('A' for Active; 'I' for Inactive)
REMARK    1  A    between atoms: C_1  and  C_2
REMARK    2  A    between atoms: C_2  and  C_37
REMARK    3  A    between atoms: C_6  and  C_26
REMARK    4  A    between atoms: C_8  and  C_24
REMARK    5  A    between atoms: C_9  and  N_23
REMARK    6  A    between atoms: N_10  and  C_11
REMARK    7  A    between atoms: C_12  and  C_21
REMARK    8  A    between atoms: C_29  and  S_32
REMARK    9  A    between atoms: S_32  and  C_33
REMARK                            x       y       z     vdW  Elec       q    Type
REMARK                         _______ _______ _______ _____ _____    ______ ____
ROOT
ATOM      1  C   UNL     1       3.855   0.184  -2.776  0.00  0.00    +0.011 C 
ATOM      2  C   UNL     1       4.556  -0.006  -1.429  0.00  0.00    -0.023 C 
ATOM      3  C   UNL     1       3.640  -0.777  -0.477  0.00  0.00    +0.058 C 
ATOM      4  C   UNL     1       2.375   0.011  -0.242  0.00  0.00    +0.025 C 
ATOM      5  C   UNL     1       2.382   1.361  -0.268  0.00  0.00    +0.025 C 
ATOM      6  C   UNL     1       1.121   2.147  -0.013  0.00  0.00    +0.097 C 
ATOM      7  C   UNL     1      -0.098   1.288  -0.181  0.00  0.00    +0.077 C 
ATOM      8  C   UNL     1      -0.009  -0.067  -0.165  0.00  0.00    +0.107 C 
ATOM      9  N   UNL     1       1.214  -0.677   0.002  0.00  0.00    -0.253 N 
ATOM     10  C   UNL     1       3.564   2.074  -0.534  0.00  0.00    +0.162 C 
ATOM     11  O   UNL     1       3.537   3.289  -0.543  0.00  0.00    -0.292 OA
ATOM     12  C   UNL     1       4.860   1.363  -0.810  0.00  0.00    +0.086 C 
ATOM     13  C   UNL     1       5.861  -0.779  -1.633  0.00  0.00    +0.011 C 
ENDROOT
BRANCH   9  14
ATOM     14  C   UNL     1       1.273  -2.000   0.419  0.00  0.00    +0.095 A 
ATOM     15  C   UNL     1       1.218  -3.150  -0.351  0.00  0.00    +0.084 A 
ATOM     16  C   UNL     1       1.304  -4.431   0.334  0.00  0.00    -0.018 A 
ATOM     17  C   UNL     1       1.421  -4.351   1.678  0.00  0.00    -0.004 A 
ATOM     18  S   UNL     1       1.440  -2.614   2.030  0.00  0.00    -0.076 S 
ATOM     19  C   UNL     1       1.515  -5.478   2.658  0.00  0.00    +0.043 C 
ATOM     20  C   UNL     1       2.576  -6.478   2.178  0.00  0.00    +0.005 C 
ATOM     21  C   UNL     1       1.899  -7.508   1.280  0.00  0.00    +0.001 C 
ATOM     22  C   UNL     1       0.752  -6.859   0.507  0.00  0.00    +0.005 C 
ATOM     23  C   UNL     1       1.280  -5.760  -0.410  0.00  0.00    +0.037 C 
BRANCH  15  24
ATOM     24  C   UNL     1       1.082  -3.080  -1.775  0.00  0.00    +0.102 C 
ATOM     25  N   UNL     1       0.973  -3.025  -2.905  0.00  0.00    -0.191 NA
ENDBRANCH  15  24
ENDBRANCH   9  14
BRANCH   6  26
ATOM     26  C   UNL     1       1.152   2.689   1.393  0.00  0.00    -0.035 A 
ATOM     27  C   UNL     1       1.192   1.818   2.467  0.00  0.00    +0.005 A 
ATOM     28  C   UNL     1       1.226   2.311   3.757  0.00  0.00    +0.015 A 
ATOM     29  C   UNL     1       1.209   3.684   3.975  0.00  0.00    +0.008 A 
ATOM     30  C   UNL     1       1.163   4.555   2.893  0.00  0.00    +0.015 A 
ATOM     31  C   UNL     1       1.135   4.055   1.607  0.00  0.00    +0.005 A 
BRANCH  29  32
ATOM     32  S   UNL     1       1.244   4.317   5.619  0.00  0.00    -0.129 S 
ATOM     33  C   UNL     1       1.300   2.833   6.660  0.00  0.00    +0.090 C 
ENDBRANCH  29  32
ENDBRANCH   6  26
BRANCH   8  34
ATOM     34  N   UNL     1      -1.142  -0.830  -0.314  0.00  0.00    -0.345 N 
ATOM     35  H   UNL     1      -2.013  -0.405  -0.345  0.00  0.00    +0.144 HD
ATOM     36  H   UNL     1      -1.071  -1.795  -0.389  0.00  0.00    +0.144 HD
ENDBRANCH   8  34
BRANCH   7  37
ATOM     37  C   UNL     1      -1.375   1.908  -0.369  0.00  0.00    +0.099 C 
ATOM     38  N   UNL     1      -2.388   2.399  -0.518  0.00  0.00    -0.191 NA
ENDBRANCH   7  37
TORSDOF 6
