REMARK  Name = ZINC63411413
REMARK  7 active torsions:
REMARK  status: ('A' for Active; 'I' for Inactive)
REMARK    1  A    between atoms: C_1  and  C_2
REMARK    2  A    between atoms: C_2  and  C_3
REMARK    3  A    between atoms: C_2  and  O_4
REMARK    4  A    between atoms: O_4  and  C_5
REMARK    5  A    between atoms: C_10  and  C_11
REMARK    6  A    between atoms: N_13  and  N_14
REMARK    7  A    between atoms: C_15  and  C_16
REMARK                            x       y       z     vdW  Elec       q    Type
REMARK                         _______ _______ _______ _____ _____    ______ ____
ROOT
ATOM      1  C   UNL     1       2.056  -1.202   3.528  0.00  0.00    +0.267 C 
ATOM      2  O   UNL     1       2.710  -1.094   2.508  0.00  0.00    -0.268 OA
ATOM      3  N   UNL     1       2.660  -1.545   4.683  0.00  0.00    -0.203 N 
ATOM      4  H   UNL     1       2.138  -1.631   5.496  0.00  0.00    +0.178 HD
ENDROOT
BRANCH   1  10
ATOM      5  C   UNL     1      -0.030  -0.599   2.301  0.00  0.00    +0.133 A 
ATOM      6  C   UNL     1      -1.399  -0.376   2.286  0.00  0.00    +0.047 A 
ATOM      7  C   UNL     1      -2.134  -0.501   3.448  0.00  0.00    +0.019 A 
ATOM      8  C   UNL     1      -1.512  -0.849   4.637  0.00  0.00    +0.019 A 
ATOM      9  C   UNL     1      -0.152  -1.074   4.671  0.00  0.00    +0.032 A 
ATOM     10  C   UNL     1       0.603  -0.957   3.500  0.00  0.00    +0.081 A 
ATOM     11 BR   UNL     1      -2.533  -1.014   6.220  0.00  0.00    -0.050 Br
BRANCH   5  12
ATOM     12  O   UNL     1       0.693  -0.477   1.160  0.00  0.00    -0.489 OA
BRANCH  12  14
ATOM     13  C   UNL     1      -0.294   1.265  -0.193  0.00  0.00    +0.051 C 
ATOM     14  C   UNL     1      -0.034  -0.235  -0.046  0.00  0.00    +0.167 C 
ATOM     15  C   UNL     1       0.781  -0.731  -1.242  0.00  0.00    +0.051 C 
ENDBRANCH  12  14
ENDBRANCH   5  12
ENDBRANCH   1  10
BRANCH   3  16
ATOM     16  N   UNL     1       4.041  -1.778   4.708  0.00  0.00    -0.188 NA
ATOM     17  C   UNL     1       4.628  -2.112   5.831  0.00  0.00    +0.136 C 
BRANCH  17  18
ATOM     18  C   UNL     1       6.010  -2.345   5.857  0.00  0.00    +0.000 C 
ATOM     19  C   UNL     1       6.782  -2.710   6.958  0.00  0.00    +0.004 A 
ATOM     20  C   UNL     1       6.460  -2.950   8.312  0.00  0.00    +0.010 A 
ATOM     21  C   UNL     1       7.439  -3.300   9.184  0.00  0.00    +0.001 A 
ATOM     22  C   UNL     1       8.770  -3.431   8.778  0.00  0.00    +0.002 A 
ATOM     23  C   UNL     1       9.151  -3.216   7.496  0.00  0.00    +0.026 A 
ATOM     24  C   UNL     1       8.183  -2.847   6.524  0.00  0.00    +0.043 A 
ATOM     25  N   UNL     1       8.295  -2.587   5.238  0.00  0.00    -0.380 N 
ATOM     26  C   UNL     1       6.974  -2.258   4.694  0.00  0.00    +0.150 C 
ATOM     27  H   UNL     1       9.121  -2.613   4.730  0.00  0.00    +0.160 HD
ENDBRANCH  17  18
ENDBRANCH   3  16
TORSDOF 5
