REMARK  Name = ZINC63572780
REMARK  5 active torsions:
REMARK  status: ('A' for Active; 'I' for Inactive)
REMARK    1  A    between atoms: C_1  and  C_2
REMARK    2  A    between atoms: C_5  and  C_8
REMARK    3  A    between atoms: N_26  and  C_27
REMARK    4  A    between atoms: C_29  and  C_34
REMARK    5  A    between atoms: C_32  and  C_33
REMARK                            x       y       z     vdW  Elec       q    Type
REMARK                         _______ _______ _______ _____ _____    ______ ____
ROOT
ATOM      1  C   UNL     1      -0.467  -4.551   0.700  0.00  0.00    +0.134 C 
ATOM      2  C   UNL     1      -1.577  -5.436   1.277  0.00  0.00    +0.131 C 
ATOM      3  C   UNL     1      -1.070  -6.871   1.204  0.00  0.00    -0.035 C 
ATOM      4  C   UNL     1      -1.976  -7.553   0.513  0.00  0.00    +0.001 A 
ATOM      5  C   UNL     1      -2.076  -8.982   0.174  0.00  0.00    +0.030 A 
ATOM      6  C   UNL     1      -3.152  -9.347  -0.574  0.00  0.00    +0.042 A 
ATOM      7  C   UNL     1      -4.126  -8.443  -1.012  0.00  0.00    +0.022 A 
ATOM      8  C   UNL     1      -4.115  -7.113  -0.743  0.00  0.00    +0.027 A 
ATOM      9  C   UNL     1      -3.035  -6.611   0.040  0.00  0.00    +0.043 A 
ATOM     10  N   UNL     1      -2.793  -5.383   0.465  0.00  0.00    -0.375 N 
ATOM     11 CL   UNL     1      -3.325 -11.019  -1.007  0.00  0.00    -0.084 Cl
ATOM     12  C   UNL     1       0.262  -7.291   1.776  0.00  0.00    +0.052 C 
ATOM     13  C   UNL     1       1.310  -6.306   1.226  0.00  0.00    +0.114 C 
ATOM     14  N   UNL     1       0.799  -4.936   1.342  0.00  0.00    -0.276 N 
ATOM     15  C   UNL     1       1.496  -4.021   2.045  0.00  0.00    +0.307 C 
ATOM     16  O   UNL     1       1.019  -2.923   2.255  0.00  0.00    -0.252 OA
ATOM     17  N   UNL     1       2.722  -4.324   2.516  0.00  0.00    -0.269 N 
ATOM     18  H   UNL     1       3.138  -5.168   2.280  0.00  0.00    +0.156 HD
ATOM     19  H   UNL     1      -3.315  -4.588   0.276  0.00  0.00    +0.160 HD
ENDROOT
BRANCH  17  20
ATOM     20  C   UNL     1       3.397  -3.421   3.345  0.00  0.00    +0.038 A 
ATOM     21  C   UNL     1       3.140  -2.059   3.245  0.00  0.00    +0.027 A 
ATOM     22  C   UNL     1       3.806  -1.170   4.065  0.00  0.00    -0.049 A 
ATOM     23  C   UNL     1       4.729  -1.634   4.985  0.00  0.00    +0.004 A 
ATOM     24  C   UNL     1       4.988  -2.988   5.086  0.00  0.00    +0.005 A 
ATOM     25  C   UNL     1       4.320  -3.883   4.273  0.00  0.00    -0.029 A 
ATOM     26  C   UNL     1       4.597  -5.360   4.389  0.00  0.00    +0.045 C 
ATOM     27  C   UNL     1       3.528   0.307   3.957  0.00  0.00    +0.044 C 
ENDBRANCH  17  20
BRANCH   1  32
ATOM     28  C   UNL     1      -1.614   1.002   1.817  0.00  0.00    +0.044 C 
ATOM     29  C   UNL     1      -1.315  -0.446   1.526  0.00  0.00    -0.050 A 
ATOM     30  C   UNL     1      -1.643  -1.419   2.451  0.00  0.00    +0.004 A 
ATOM     31  C   UNL     1      -1.369  -2.748   2.183  0.00  0.00    +0.006 A 
ATOM     32  C   UNL     1      -0.767  -3.103   0.991  0.00  0.00    -0.025 A 
ATOM     33  C   UNL     1      -0.439  -2.130   0.066  0.00  0.00    +0.006 A 
ATOM     34  C   UNL     1      -0.717  -0.802   0.331  0.00  0.00    +0.004 A 
ENDBRANCH   1  32
TORSDOF 2
