REMARK  Name = ZINC13746998
REMARK  6 active torsions:
REMARK  status: ('A' for Active; 'I' for Inactive)
REMARK    1  A    between atoms: C_1  and  C_2
REMARK    2  A    between atoms: C_2  and  O_3
REMARK    3  A    between atoms: O_3  and  C_4
REMARK    4  A    between atoms: C_6  and  C_13
REMARK    5  A    between atoms: C_9  and  O_10
REMARK    6  A    between atoms: N_14  and  N_15
REMARK                            x       y       z     vdW  Elec       q    Type
REMARK                         _______ _______ _______ _____ _____    ______ ____
ROOT
ATOM      1  C   UNL     1       2.386  -4.178  -0.045  0.00  0.00    +0.163 A 
ATOM      2  C   UNL     1       2.373  -2.795  -0.042  0.00  0.00    +0.060 A 
ATOM      3  C   UNL     1       1.155  -2.112  -0.020  0.00  0.00    +0.013 A 
ATOM      4  C   UNL     1      -0.045  -2.829  -0.013  0.00  0.00    +0.044 A 
ATOM      5  C   UNL     1      -0.024  -4.209  -0.021  0.00  0.00    +0.077 A 
ATOM      6  C   UNL     1       1.187  -4.887  -0.037  0.00  0.00    +0.174 A 
ATOM      7 BR   UNL     1      -1.647  -5.178  -0.011  0.00  0.00    -0.045 Br
ATOM      8 BR   UNL     1      -1.697  -1.909   0.008  0.00  0.00    -0.048 Br
ENDROOT
BRANCH   6   9
ATOM      9  O   UNL     1       1.204  -6.246  -0.046  0.00  0.00    -0.503 OA
ATOM     10  H   UNL     1       1.200  -6.634  -0.932  0.00  0.00    +0.292 HD
ENDBRANCH   6   9
BRANCH   3  11
ATOM     11  C   UNL     1       1.135  -0.637  -0.012  0.00  0.00    +0.139 C 
ATOM     12  N   UNL     1       0.002  -0.004   0.002  0.00  0.00    -0.186 NA
BRANCH  12  13
ATOM     13  N   UNL     1      -0.017   1.397   0.010  0.00  0.00    -0.191 N 
ATOM     14  C   UNL     1      -1.193   2.055   0.019  0.00  0.00    +0.317 C 
ATOM     15  O   UNL     1      -1.210   3.271   0.026  0.00  0.00    -0.251 OA
ATOM     16  N   UNL     1      -2.351   1.365   0.021  0.00  0.00    -0.312 N 
ATOM     17  H   UNL     1       0.816   1.893   0.004  0.00  0.00    +0.179 HD
ATOM     18  H   UNL     1      -2.338   0.395   0.015  0.00  0.00    +0.147 HD
ATOM     19  H   UNL     1      -3.198   1.839   0.027  0.00  0.00    +0.147 HD
ENDBRANCH  12  13
ENDBRANCH   3  11
BRANCH   1  20
ATOM     20  O   UNL     1       3.571  -4.846  -0.061  0.00  0.00    -0.489 OA
BRANCH  20  22
ATOM     21  C   UNL     1       5.984  -4.975  -0.086  0.00  0.00    +0.048 C 
ATOM     22  C   UNL     1       4.761  -4.055  -0.068  0.00  0.00    +0.226 C 
ENDBRANCH  20  22
ENDBRANCH   1  20
TORSDOF 5
