REMARK  Name = ZINC06659336
REMARK  6 active torsions:
REMARK  status: ('A' for Active; 'I' for Inactive)
REMARK    1  A    between atoms: C_1  and  C_2
REMARK    2  A    between atoms: C_4  and  C_29
REMARK    3  A    between atoms: C_21  and  O_24
REMARK    4  A    between atoms: O_24  and  C_25
REMARK    5  A    between atoms: C_29  and  O_30
REMARK    6  A    between atoms: O_30  and  C_31
REMARK                            x       y       z     vdW  Elec       q    Type
REMARK                         _______ _______ _______ _____ _____    ______ ____
ROOT
ATOM      1  C   UNL     1       0.741   1.192   0.969  0.00  0.00    +0.065 C 
ATOM      2  C   UNL     1       0.617  -0.302   0.813  0.00  0.00    +0.040 A 
ATOM      3  C   UNL     1       0.754  -0.878  -0.441  0.00  0.00    +0.029 A 
ATOM      4  C   UNL     1       0.643  -2.239  -0.597  0.00  0.00    -0.009 A 
ATOM      5  C   UNL     1       0.388  -3.045   0.541  0.00  0.00    +0.035 A 
ATOM      6  C   UNL     1       0.232  -4.490   0.608  0.00  0.00    +0.061 A 
ATOM      7  C   UNL     1      -0.006  -5.036   1.867  0.00  0.00    +0.098 A 
ATOM      8  C   UNL     1      -0.163  -6.414   2.099  0.00  0.00    +0.258 C 
ATOM      9  O   UNL     1      -0.463  -6.856   3.194  0.00  0.00    -0.269 OA
ATOM     10  N   UNL     1       0.041  -7.223   1.022  0.00  0.00    -0.269 N 
ATOM     11  H   UNL     1      -0.162  -8.170   1.078  0.00  0.00    +0.156 HD
ATOM     12  C   UNL     1       0.534  -6.694  -0.139  0.00  0.00    +0.104 C 
ATOM     13  N   UNL     1       0.291  -5.386  -0.475  0.00  0.00    -0.301 N 
ATOM     14  C   UNL     1       1.297  -7.498  -0.997  0.00  0.00    +0.036 C 
ATOM     15  C   UNL     1       1.746  -8.814  -0.765  0.00  0.00    +0.094 C 
ATOM     16  N   UNL     1       2.430  -9.232  -1.800  0.00  0.00    -0.360 N 
ATOM     17  H   UNL     1       2.836 -10.111  -1.861  0.00  0.00    +0.165 HD
ATOM     18  C   UNL     1       2.507  -8.297  -2.773  0.00  0.00    +0.047 A 
ATOM     19  C   UNL     1       1.798  -7.154  -2.337  0.00  0.00    +0.013 A 
ATOM     20  C   UNL     1       1.709  -6.031  -3.154  0.00  0.00    +0.056 A 
ATOM     21  C   UNL     1       2.317  -6.044  -4.396  0.00  0.00    +0.121 A 
ATOM     22  C   UNL     1       3.012  -7.172  -4.826  0.00  0.00    +0.047 A 
ATOM     23  C   UNL     1       3.115  -8.277  -4.034  0.00  0.00    +0.030 A 
ATOM     24  S   UNL     1      -0.044  -3.651   2.956  0.00  0.00    -0.062 S 
ATOM     25  C   UNL     1       0.265  -2.360   1.772  0.00  0.00    +0.111 A 
ATOM     26  N   UNL     1       0.384  -1.054   1.871  0.00  0.00    -0.245 NA
ATOM     27  H   UNL     1       0.169  -5.100  -1.394  0.00  0.00    +0.153 HD
ENDROOT
BRANCH  21  28
ATOM     28  O   UNL     1       2.235  -4.951  -5.200  0.00  0.00    -0.495 OA
ATOM     29  C   UNL     1       2.885  -5.030  -6.470  0.00  0.00    +0.277 C 
ENDBRANCH  21  28
BRANCH   4  30
ATOM     30  C   UNL     1       0.792  -2.866  -1.960  0.00  0.00    +0.195 C 
BRANCH  30  31
ATOM     31  O   UNL     1       0.917  -1.839  -2.945  0.00  0.00    -0.378 OA
ATOM     32  C   UNL     1       1.064  -2.329  -4.280  0.00  0.00    +0.194 C 
ENDBRANCH  30  31
ENDBRANCH   4  30
TORSDOF 3
