REMARK  Name = ZINC08623028
REMARK  11 active torsions:
REMARK  status: ('A' for Active; 'I' for Inactive)
REMARK    1  A    between atoms: C_1  and  C_2
REMARK    2  A    between atoms: C_2  and  C_3
REMARK    3  A    between atoms: C_3  and  C_4
REMARK    4  A    between atoms: C_3  and  C_6
REMARK    5  A    between atoms: C_4  and  C_5
REMARK    6  A    between atoms: C_8  and  C_18
REMARK    7  A    between atoms: C_10  and  C_12
REMARK    8  A    between atoms: C_26  and  C_28
REMARK    9  A    between atoms: C_28  and  N_29
REMARK   10  A    between atoms: N_32  and  C_33
REMARK   11  A    between atoms: C_33  and  C_34
REMARK                            x       y       z     vdW  Elec       q    Type
REMARK                         _______ _______ _______ _____ _____    ______ ____
ROOT
ATOM      1  C   UNL     1      -0.644   1.310  -0.182  0.00  0.00    +0.024 C 
ATOM      2  C   UNL     1       0.084   0.429  -1.202  0.00  0.00    -0.068 C 
ATOM      3  C   UNL     1      -0.763   1.761  -3.040  0.00  0.00    -0.078 C 
ATOM      4  C   UNL     1      -1.514   2.680  -2.072  0.00  0.00    -0.015 C 
ATOM      5  C   UNL     1      -1.915   1.871  -0.832  0.00  0.00    -0.007 C 
ATOM      6  C   UNL     1      -2.797   0.698  -1.277  0.00  0.00    -0.010 C 
ATOM      7  C   UNL     1      -2.010  -0.165  -2.266  0.00  0.00    -0.051 C 
ATOM      8  N   UNL     1      -0.659   0.397  -2.480  0.00  0.00    +0.383 N 
ATOM      9  H   UNL     1      -0.152  -0.199  -3.145  0.00  0.00    -0.081 HD
ENDROOT
BRANCH   1  12
ATOM     10  C   UNL     1      -2.380   0.079   2.936  0.00  0.00    +0.048 A 
ATOM     11  C   UNL     1      -2.072   0.866   1.836  0.00  0.00    +0.047 A 
ATOM     12  C   UNL     1      -1.015   0.485   1.024  0.00  0.00    +0.047 A 
ATOM     13  N   UNL     1      -0.340  -0.613   1.316  0.00  0.00    -0.232 NA
ATOM     14  C   UNL     1      -0.657  -1.341   2.378  0.00  0.00    +0.160 A 
ATOM     15  N   UNL     1      -1.662  -1.005   3.175  0.00  0.00    -0.232 NA
BRANCH  14  16
ATOM     16  C   UNL     1       0.127  -2.565   2.677  0.00  0.00    +0.022 A 
ATOM     17  C   UNL     1       1.189  -2.956   1.857  0.00  0.00    +0.031 A 
ATOM     18  C   UNL     1       1.895  -4.099   2.175  0.00  0.00    +0.111 A 
ATOM     19  N   UNL     1       1.572  -4.823   3.229  0.00  0.00    -0.263 NA
ATOM     20  C   UNL     1       0.574  -4.492   4.025  0.00  0.00    +0.111 A 
ATOM     21  C   UNL     1      -0.181  -3.361   3.784  0.00  0.00    +0.031 A 
ENDBRANCH  14  16
BRANCH  10  22
ATOM     22  C   UNL     1      -3.521   0.454   3.847  0.00  0.00    +0.037 C 
BRANCH  22  24
ATOM     23  C   UNL     1      -4.147   1.743   5.893  0.00  0.00    +0.004 C 
ATOM     24  C   UNL     1      -3.037   1.480   4.874  0.00  0.00    +0.006 C 
ENDBRANCH  22  24
BRANCH  22  25
ATOM     25  C   UNL     1      -4.657   1.057   3.019  0.00  0.00    +0.006 C 
ATOM     26  C   UNL     1      -5.214  -0.004   2.067  0.00  0.00    +0.004 C 
ENDBRANCH  22  25
ENDBRANCH  10  22
ENDBRANCH   1  12
BRANCH   7  27
ATOM     27  C   UNL     1      -1.875  -1.585  -1.711  0.00  0.00    +0.090 C 
BRANCH  27  28
ATOM     28  N   UNL     1      -1.044  -2.385  -2.613  0.00  0.00    -0.301 N 
ATOM     29  C   UNL     1      -0.868  -3.700  -2.378  0.00  0.00    +0.300 C 
ATOM     30  O   UNL     1      -1.471  -4.242  -1.472  0.00  0.00    -0.253 OA
ATOM     31  N   UNL     1      -0.023  -4.415  -3.148  0.00  0.00    -0.296 N 
ATOM     32  H   UNL     1      -0.620  -1.968  -3.380  0.00  0.00    +0.150 HD
ATOM     33  H   UNL     1       0.458  -3.983  -3.871  0.00  0.00    +0.151 HD
BRANCH  31  34
ATOM     34  C   UNL     1       0.168  -5.845  -2.893  0.00  0.00    +0.132 C 
BRANCH  34  35
ATOM     35  C   UNL     1       1.154  -6.405  -3.885  0.00  0.00    -0.016 C 
ATOM     36  C   UNL     1       2.220  -7.040  -3.462  0.00  0.00    +0.005 C 
ENDBRANCH  34  35
ENDBRANCH  31  34
ENDBRANCH  27  28
ENDBRANCH   7  27
TORSDOF 9
