REMARK  Name = ZINC00011544
REMARK  3 active torsions:
REMARK  status: ('A' for Active; 'I' for Inactive)
REMARK    1  A    between atoms: C_1  and  O_2
REMARK    2  A    between atoms: O_2  and  C_3
REMARK    3  A    between atoms: C_20  and  O_22
REMARK                            x       y       z     vdW  Elec       q    Type
REMARK                         _______ _______ _______ _____ _____    ______ ____
ROOT
ATOM      1  C   UNL     1       0.626  -0.618   1.042  0.00  0.00    +0.124 A 
ATOM      2  C   UNL     1       1.194   0.157   2.038  0.00  0.00    +0.046 A 
ATOM      3  C   UNL     1       1.841  -0.423   3.122  0.00  0.00    +0.011 A 
ATOM      4  C   UNL     1       1.891  -1.801   3.158  0.00  0.00    +0.005 A 
ATOM      5  C   UNL     1       1.324  -2.599   2.157  0.00  0.00    +0.129 A 
ATOM      6  C   UNL     1       0.670  -2.008   1.077  0.00  0.00    +0.091 A 
ATOM      7  O   UNL     1       1.514  -3.912   2.410  0.00  0.00    -0.483 OA
ATOM      8  C   UNL     1       1.843  -4.074   3.801  0.00  0.00    +0.218 C 
ATOM      9  C   UNL     1       2.499  -2.733   4.175  0.00  0.00    +0.105 C 
ATOM     10  C   UNL     1       4.010  -2.796   3.957  0.00  0.00    +0.241 C 
ATOM     11  O   UNL     1       4.549  -3.867   4.739  0.00  0.00    -0.491 OA
ATOM     12  C   UNL     1       4.058  -5.102   4.450  0.00  0.00    +0.131 A 
ATOM     13  C   UNL     1       2.754  -5.248   3.990  0.00  0.00    +0.035 A 
ATOM     14  C   UNL     1       2.272  -6.516   3.693  0.00  0.00    +0.014 A 
ATOM     15  C   UNL     1       3.072  -7.628   3.857  0.00  0.00    +0.046 A 
ATOM     16  C   UNL     1       4.372  -7.489   4.323  0.00  0.00    +0.120 A 
ATOM     17  C   UNL     1       4.871  -6.212   4.619  0.00  0.00    +0.091 A 
ENDROOT
BRANCH   1  19
ATOM     18  C   UNL     1      -0.017   1.425   0.010  0.00  0.00    +0.277 C 
ATOM     19  O   UNL     1       0.002  -0.004   0.002  0.00  0.00    -0.495 OA
ENDBRANCH   1  19
BRANCH  16  20
ATOM     20  O   UNL     1       5.160  -8.583   4.488  0.00  0.00    -0.507 OA
ATOM     21  H   UNL     1       5.677  -8.817   3.705  0.00  0.00    +0.292 HD
ENDBRANCH  16  20
TORSDOF 2
