REMARK  Name = ZINC36506678
REMARK  11 active torsions:
REMARK  status: ('A' for Active; 'I' for Inactive)
REMARK    1  A    between atoms: C_1  and  C_2
REMARK    2  A    between atoms: C_2  and  C_3
REMARK    3  A    between atoms: C_2  and  C_4
REMARK    4  A    between atoms: C_2  and  N_5
REMARK    5  A    between atoms: C_6  and  C_8
REMARK    6  A    between atoms: C_8  and  C_10
REMARK    7  A    between atoms: C_8  and  N_24
REMARK    8  A    between atoms: N_24  and  C_25
REMARK    9  A    between atoms: C_25  and  C_26
REMARK   10  A    between atoms: C_31  and  C_33
REMARK   11  A    between atoms: C_33  and  C_34
REMARK                            x       y       z     vdW  Elec       q    Type
REMARK                         _______ _______ _______ _____ _____    ______ ____
ROOT
ATOM      1  C   UNL     1       2.523  -0.455  -2.677  0.00  0.00    +0.193 C 
ENDROOT
BRANCH   1   2
ATOM      2  C   UNL     1       2.194  -1.871  -3.078  0.00  0.00    -0.010 A 
ATOM      3  C   UNL     1       3.142  -2.824  -2.970  0.00  0.00    +0.015 A 
ATOM      4  C   UNL     1       2.883  -4.166  -3.332  0.00  0.00    -0.017 A 
ATOM      5  C   UNL     1       3.875  -5.150  -3.216  0.00  0.00    +0.008 A 
ATOM      6  C   UNL     1       3.598  -6.436  -3.572  0.00  0.00    +0.001 A 
ATOM      7  C   UNL     1       2.342  -6.790  -4.052  0.00  0.00    +0.001 A 
ATOM      8  C   UNL     1       1.354  -5.855  -4.177  0.00  0.00    +0.009 A 
ATOM      9  C   UNL     1       1.607  -4.529  -3.820  0.00  0.00    -0.010 A 
ATOM     10  C   UNL     1       0.577  -3.493  -3.938  0.00  0.00    -0.010 A 
ATOM     11  C   UNL     1       0.897  -2.171  -3.553  0.00  0.00    -0.012 A 
ATOM     12  C   UNL     1      -0.083  -1.174  -3.657  0.00  0.00    +0.009 A 
ATOM     13  C   UNL     1      -1.327  -1.492  -4.120  0.00  0.00    +0.001 A 
ATOM     14  C   UNL     1      -1.639  -2.795  -4.491  0.00  0.00    +0.001 A 
ATOM     15  C   UNL     1      -0.702  -3.786  -4.413  0.00  0.00    +0.009 A 
ENDBRANCH   1   2
BRANCH   1  17
ATOM     16  N   UNL     1       0.747  -0.341  -0.959  0.00  0.00    -0.309 N 
ATOM     17  C   UNL     1       2.053  -0.210  -1.267  0.00  0.00    +0.239 C 
ATOM     18  O   UNL     1       2.849   0.104  -0.408  0.00  0.00    -0.273 OA
ATOM     19  H   UNL     1       0.110  -0.592  -1.646  0.00  0.00    +0.149 HD
BRANCH  16  21
ATOM     20  C   UNL     1       0.624   1.334   0.819  0.00  0.00    +0.031 C 
ATOM     21  C   UNL     1       0.290  -0.103   0.412  0.00  0.00    +0.026 C 
ATOM     22  C   UNL     1       0.992  -1.077   1.360  0.00  0.00    +0.031 C 
ATOM     23  C   UNL     1      -1.223  -0.316   0.490  0.00  0.00    +0.031 C 
ENDBRANCH  16  21
ENDBRANCH   1  17
BRANCH   1  24
ATOM     24  N   UNL     1       3.971  -0.251  -2.752  0.00  0.00    -0.278 N 
ATOM     25  C   UNL     1       4.787  -0.885  -1.886  0.00  0.00    +0.221 C 
ATOM     26  O   UNL     1       4.318  -1.549  -0.986  0.00  0.00    -0.275 OA
BRANCH  24  27
ATOM     27  C   UNL     1       4.534   0.643  -3.767  0.00  0.00    +0.183 C 
BRANCH  27  28
ATOM     28  C   UNL     1       4.590   2.048  -3.224  0.00  0.00    +0.122 A 
ATOM     29  C   UNL     1       5.665   2.633  -2.667  0.00  0.00    +0.046 A 
ATOM     30  C   UNL     1       5.275   3.942  -2.300  0.00  0.00    +0.041 A 
ATOM     31  C   UNL     1       3.985   4.078  -2.656  0.00  0.00    +0.195 A 
ATOM     32  O   UNL     1       3.577   2.930  -3.221  0.00  0.00    -0.466 OA
ENDBRANCH  27  28
ENDBRANCH  24  27
BRANCH  25  33
ATOM     33  C   UNL     1       6.282  -0.768  -2.037  0.00  0.00    +0.131 C 
BRANCH  33  34
ATOM     34  C   UNL     1       6.959  -1.565  -0.951  0.00  0.00    -0.039 A 
ATOM     35  C   UNL     1       7.261  -0.967   0.258  0.00  0.00    +0.004 A 
ATOM     36  C   UNL     1       7.883  -1.698   1.254  0.00  0.00    +0.000 A 
ATOM     37  C   UNL     1       8.201  -3.026   1.040  0.00  0.00    +0.000 A 
ATOM     38  C   UNL     1       7.899  -3.623  -0.169  0.00  0.00    +0.000 A 
ATOM     39  C   UNL     1       7.274  -2.894  -1.163  0.00  0.00    +0.004 A 
ENDBRANCH  33  34
ENDBRANCH  25  33
ENDBRANCH   1  24
TORSDOF 8
