REMARK  Name = ZINC66281120
REMARK  8 active torsions:
REMARK  status: ('A' for Active; 'I' for Inactive)
REMARK    1  A    between atoms: C_1  and  C_2
REMARK    2  A    between atoms: C_2  and  C_4
REMARK    3  A    between atoms: C_2  and  N_18
REMARK    4  A    between atoms: C_4  and  C_5
REMARK    5  A    between atoms: N_7  and  C_8
REMARK    6  A    between atoms: C_8  and  C_9
REMARK    7  A    between atoms: C_9  and  C_12
REMARK    8  A    between atoms: C_19  and  C_21
REMARK                            x       y       z     vdW  Elec       q    Type
REMARK                         _______ _______ _______ _____ _____    ______ ____
ROOT
ATOM      1  C   UNL     1       0.718  -1.600   1.859  0.00  0.00    +0.215 C 
ATOM      2  O   UNL     1       0.054  -2.014   0.932  0.00  0.00    -0.276 OA
ATOM      3  N   UNL     1       1.330  -2.467   2.690  0.00  0.00    -0.314 N 
ATOM      4  H   UNL     1       1.860  -2.135   3.431  0.00  0.00    +0.149 HD
ENDROOT
BRANCH   1   5
ATOM      5  C   UNL     1       0.858  -0.116   2.081  0.00  0.00    +0.117 C 
BRANCH   5   7
ATOM      6  C   UNL     1       0.110   2.137   1.304  0.00  0.00    +0.028 C 
ATOM      7  C   UNL     1       0.071   0.637   1.006  0.00  0.00    +0.079 C 
BRANCH   7   8
ATOM      8  N   UNL     1       0.671   0.383  -0.306  0.00  0.00    -0.312 N 
ATOM      9  C   UNL     1      -0.077   0.492  -1.421  0.00  0.00    +0.216 C 
ATOM     10  O   UNL     1      -1.247   0.800  -1.339  0.00  0.00    -0.276 OA
ATOM     11  H   UNL     1       1.607   0.137  -0.371  0.00  0.00    +0.149 HD
BRANCH   9  12
ATOM     12  C   UNL     1       0.540   0.232  -2.771  0.00  0.00    +0.075 C 
ATOM     13  C   UNL     1       1.694   1.210  -3.002  0.00  0.00    +0.013 C 
ATOM     14  C   UNL     1       2.320   0.945  -4.373  0.00  0.00    +0.001 C 
ATOM     15  C   UNL     1       1.263   1.136  -5.462  0.00  0.00    +0.000 C 
ATOM     16  C   UNL     1       0.110   0.157  -5.231  0.00  0.00    +0.001 C 
ATOM     17  C   UNL     1      -0.516   0.422  -3.861  0.00  0.00    +0.013 C 
ENDBRANCH   9  12
ENDBRANCH   7   8
ENDBRANCH   5   7
ENDBRANCH   1   5
BRANCH   3  18
ATOM     18  C   UNL     1       1.194  -3.909   2.474  0.00  0.00    +0.115 C 
BRANCH  18  19
ATOM     19  C   UNL     1       2.001  -4.662   3.533  0.00  0.00    +0.011 C 
ATOM     20  C   UNL     1       1.323  -5.843   4.231  0.00  0.00    +0.014 C 
ATOM     21  C   UNL     1       1.549  -4.534   4.989  0.00  0.00    +0.014 C 
BRANCH  19  22
ATOM     22  C   UNL     1       3.481  -4.765   3.271  0.00  0.00    -0.040 A 
ATOM     23  C   UNL     1       3.943  -5.493   2.190  0.00  0.00    +0.004 A 
ATOM     24  C   UNL     1       5.301  -5.587   1.949  0.00  0.00    +0.000 A 
ATOM     25  C   UNL     1       6.197  -4.953   2.788  0.00  0.00    +0.000 A 
ATOM     26  C   UNL     1       5.736  -4.224   3.869  0.00  0.00    +0.000 A 
ATOM     27  C   UNL     1       4.378  -4.126   4.107  0.00  0.00    +0.004 A 
ENDBRANCH  19  22
ENDBRANCH  18  19
ENDBRANCH   3  18
TORSDOF 7
