REMARK  Name = ZINC04861025
REMARK  7 active torsions:
REMARK  status: ('A' for Active; 'I' for Inactive)
REMARK    1  A    between atoms: C_1  and  C_2
REMARK    2  A    between atoms: C_2  and  C_3
REMARK    3  A    between atoms: C_3  and  C_4
REMARK    4  A    between atoms: C_3  and  C_6
REMARK    5  A    between atoms: C_4  and  C_5
REMARK    6  A    between atoms: C_13  and  C_14
REMARK    7  A    between atoms: C_13  and  N_58
REMARK                            x       y       z     vdW  Elec       q    Type
REMARK                         _______ _______ _______ _____ _____    ______ ____
ROOT
ATOM      1  C   UNL     1      -2.250   6.589  -4.970  0.00  0.00    -0.003 C 
ENDROOT
BRANCH   1   2
ATOM      2  C   UNL     1      -1.924   5.662  -3.827  0.00  0.00    +0.094 A 
ATOM      3  N   UNL     1      -1.856   4.332  -4.073  0.00  0.00    -0.312 N 
ATOM      4  H   UNL     1      -2.025   4.011  -5.005  0.00  0.00    +0.170 HD
ATOM      5  C   UNL     1      -1.570   3.417  -3.117  0.00  0.00    +0.260 A 
ATOM      6  O   UNL     1      -1.512   2.223  -3.358  0.00  0.00    -0.267 OA
ATOM      7  C   UNL     1      -1.339   3.943  -1.801  0.00  0.00    +0.075 A 
ATOM      8  C   UNL     1      -1.018   3.185  -0.605  0.00  0.00    -0.023 A 
ATOM      9  C   UNL     1      -0.841   3.895   0.534  0.00  0.00    -0.004 A 
ATOM     10  S   UNL     1      -1.091   5.590   0.069  0.00  0.00    -0.073 S 
ATOM     11  C   UNL     1      -1.432   5.343  -1.645  0.00  0.00    +0.116 A 
ATOM     12  N   UNL     1      -1.718   6.182  -2.637  0.00  0.00    -0.229 NA
ATOM     13  C   UNL     1      -0.507   3.362   1.893  0.00  0.00    +0.043 C 
ATOM     14  C   UNL     1      -0.758   1.847   1.895  0.00  0.00    +0.005 C 
ATOM     15  C   UNL     1      -0.105   1.242   0.648  0.00  0.00    +0.005 C 
ATOM     16  C   UNL     1      -0.880   1.665  -0.600  0.00  0.00    +0.037 C 
ENDBRANCH   1   2
BRANCH   1  24
ATOM     17  C   UNL     1      -3.991  11.640  -4.021  0.00  0.00    +0.219 C 
ATOM     18  O   UNL     1      -3.854  12.492  -4.873  0.00  0.00    -0.275 OA
ATOM     19  N   UNL     1      -3.176  10.567  -4.003  0.00  0.00    -0.305 N 
ATOM     20  C   UNL     1      -2.188  10.352  -5.071  0.00  0.00    +0.089 C 
ATOM     21  C   UNL     1      -2.350   8.924  -5.604  0.00  0.00    -0.059 C 
ATOM     22  C   UNL     1      -3.370   8.183  -3.532  0.00  0.00    -0.059 C 
ATOM     23  C   UNL     1      -3.250   9.581  -2.915  0.00  0.00    +0.089 C 
ATOM     24  N   UNL     1      -2.245   7.980  -4.470  0.00  0.00    +0.386 N 
ATOM     25  H   UNL     1      -1.363   8.153  -3.974  0.00  0.00    -0.081 HD
BRANCH  17  26
ATOM     26  C   UNL     1      -5.074  11.782  -2.982  0.00  0.00    +0.075 C 
BRANCH  26  28
ATOM     27  C   UNL     1      -5.607  12.665  -0.707  0.00  0.00    +0.004 C 
ATOM     28  C   UNL     1      -4.554  12.625  -1.816  0.00  0.00    +0.009 C 
ENDBRANCH  26  28
BRANCH  26  29
ATOM     29  C   UNL     1      -6.292  12.467  -3.605  0.00  0.00    +0.009 C 
ATOM     30  C   UNL     1      -6.892  11.560  -4.681  0.00  0.00    +0.004 C 
ENDBRANCH  26  29
ENDBRANCH  17  26
ENDBRANCH   1  24
TORSDOF 5
