REMARK  Name = ZINC34757290
REMARK  8 active torsions:
REMARK  status: ('A' for Active; 'I' for Inactive)
REMARK    1  A    between atoms: C_1  and  C_2
REMARK    2  A    between atoms: C_2  and  C_3
REMARK    3  A    between atoms: C_3  and  C_4
REMARK    4  A    between atoms: C_4  and  S_5
REMARK    5  A    between atoms: S_5  and  C_6
REMARK    6  A    between atoms: N_21  and  C_24
REMARK    7  A    between atoms: C_24  and  C_25
REMARK    8  A    between atoms: N_27  and  C_28
REMARK                            x       y       z     vdW  Elec       q    Type
REMARK                         _______ _______ _______ _____ _____    ______ ____
ROOT
ATOM      1  C   UNL     1       3.400  -4.827  -1.024  0.00  0.00    +0.191 A 
ATOM      2  N   UNL     1       3.735  -5.556  -2.082  0.00  0.00    -0.206 NA
ATOM      3  C   UNL     1       2.859  -5.880  -3.018  0.00  0.00    +0.134 A 
ATOM      4  C   UNL     1       1.514  -5.435  -2.892  0.00  0.00    +0.051 A 
ATOM      5  C   UNL     1       0.383  -5.675  -3.804  0.00  0.00    -0.025 A 
ATOM      6  C   UNL     1      -0.799  -5.141  -3.459  0.00  0.00    -0.004 A 
ATOM      7  S   UNL     1      -0.496  -4.300  -1.921  0.00  0.00    -0.073 S 
ATOM      8  C   UNL     1       1.229  -4.668  -1.749  0.00  0.00    +0.115 A 
ATOM      9  N   UNL     1       2.159  -4.390  -0.854  0.00  0.00    -0.215 NA
ATOM     10  C   UNL     1      -1.877  -5.446  -4.465  0.00  0.00    +0.043 C 
ATOM     11  C   UNL     1      -1.111  -5.894  -5.729  0.00  0.00    +0.010 C 
ATOM     12  C   UNL     1       0.203  -6.427  -5.126  0.00  0.00    +0.037 C 
ATOM     13  N   UNL     1       3.246  -6.642  -4.106  0.00  0.00    -0.318 N 
ATOM     14  C   UNL     1       3.085  -8.104  -4.101  0.00  0.00    +0.088 C 
ATOM     15  C   UNL     1       4.418  -8.741  -4.510  0.00  0.00    -0.059 C 
ATOM     16  N   UNL     1       4.851  -8.182  -5.797  0.00  0.00    +0.387 N 
ATOM     17  C   UNL     1       5.127  -6.747  -5.653  0.00  0.00    -0.059 C 
ATOM     18  C   UNL     1       3.824  -6.012  -5.303  0.00  0.00    +0.088 C 
ATOM     19  H   UNL     1       4.123  -8.317  -6.483  0.00  0.00    -0.081 HD
ENDROOT
BRANCH   1  20
ATOM     20  S   UNL     1       4.625  -4.437   0.180  0.00  0.00    -0.086 S 
BRANCH  20  21
ATOM     21  C   UNL     1       3.730  -3.456   1.416  0.00  0.00    +0.077 C 
BRANCH  21  22
ATOM     22  C   UNL     1       4.690  -3.046   2.535  0.00  0.00    +0.011 C 
BRANCH  22  24
ATOM     23  C   UNL     1       4.894  -1.809   4.696  0.00  0.00    +0.004 C 
ATOM     24  C   UNL     1       3.935  -2.219   3.577  0.00  0.00    -0.003 C 
ENDBRANCH  22  24
ENDBRANCH  21  22
ENDBRANCH  20  21
ENDBRANCH   1  20
BRANCH  16  25
ATOM     25  C   UNL     1       6.071  -8.871  -6.242  0.00  0.00    +0.019 C 
BRANCH  25  26
ATOM     26  C   UNL     1       6.448  -8.386  -7.618  0.00  0.00    +0.201 C 
ATOM     27  O   UNL     1       5.768  -7.550  -8.174  0.00  0.00    -0.278 OA
ATOM     28  N   UNL     1       7.541  -8.883  -8.231  0.00  0.00    -0.287 N 
ATOM     29  H   UNL     1       8.047  -9.598  -7.815  0.00  0.00    +0.155 HD
BRANCH  28  30
ATOM     30  C   UNL     1       7.945  -8.366  -9.466  0.00  0.00    +0.033 A 
ATOM     31  C   UNL     1       9.297  -8.263  -9.769  0.00  0.00    +0.023 A 
ATOM     32  C   UNL     1       9.693  -7.752 -10.990  0.00  0.00    +0.002 A 
ATOM     33  C   UNL     1       8.745  -7.343 -11.910  0.00  0.00    +0.000 A 
ATOM     34  C   UNL     1       7.399  -7.443 -11.611  0.00  0.00    +0.002 A 
ATOM     35  C   UNL     1       6.996  -7.959 -10.395  0.00  0.00    +0.023 A 
ENDBRANCH  28  30
ENDBRANCH  25  26
ENDBRANCH  16  25
TORSDOF 7
