REMARK  Name = ZINC09184754
REMARK  14 active torsions:
REMARK  status: ('A' for Active; 'I' for Inactive)
REMARK    1  A    between atoms: C_1  and  C_2
REMARK    2  A    between atoms: C_2  and  C_3
REMARK    3  A    between atoms: C_3  and  C_4
REMARK    4  A    between atoms: C_4  and  O_5
REMARK    5  A    between atoms: O_5  and  C_6
REMARK    6  A    between atoms: C_9  and  C_14
REMARK    7  A    between atoms: C_11  and  O_12
REMARK    8  A    between atoms: O_12  and  C_13
REMARK    9  A    between atoms: C_17  and  C_28
REMARK   10  A    between atoms: N_24  and  C_25
REMARK   11  A    between atoms: C_25  and  C_26
REMARK   12  A    between atoms: C_26  and  O_27
REMARK   13  A    between atoms: C_30  and  C_35
REMARK   14  A    between atoms: C_33  and  O_34
REMARK                            x       y       z     vdW  Elec       q    Type
REMARK                         _______ _______ _______ _____ _____    ______ ____
ROOT
ATOM      1  C   UNL     1       1.838  -7.959  -2.970  0.00  0.00    +0.141 C 
ATOM      2  C   UNL     1       3.040  -8.558  -2.292  0.00  0.00    +0.035 A 
ATOM      3  C   UNL     1       4.433  -8.587  -2.171  0.00  0.00    +0.102 A 
ATOM      4  N   UNL     1       4.731  -9.485  -1.252  0.00  0.00    -0.173 NA
ATOM      5  N   UNL     1       3.664 -10.025  -0.782  0.00  0.00    -0.272 N 
ATOM      6  H   UNL     1       3.643 -10.711  -0.096  0.00  0.00    +0.189 HD
ATOM      7  C   UNL     1       2.564  -9.490  -1.390  0.00  0.00    +0.126 A 
ATOM      8  C   UNL     1       1.099  -9.509  -1.468  0.00  0.00    +0.266 C 
ATOM      9  O   UNL     1       0.378 -10.224  -0.799  0.00  0.00    -0.268 OA
ATOM     10  N   UNL     1       0.666  -8.623  -2.384  0.00  0.00    -0.283 N 
ENDROOT
BRANCH   3  11
ATOM     11  C   UNL     1       5.399  -7.760  -2.936  0.00  0.00    +0.044 A 
ATOM     12  C   UNL     1       5.241  -7.591  -4.310  0.00  0.00    +0.017 A 
ATOM     13  C   UNL     1       6.142  -6.821  -5.017  0.00  0.00    -0.050 A 
ATOM     14  C   UNL     1       7.202  -6.215  -4.367  0.00  0.00    +0.007 A 
ATOM     15  C   UNL     1       7.368  -6.376  -3.004  0.00  0.00    +0.046 A 
ATOM     16  C   UNL     1       6.468  -7.142  -2.281  0.00  0.00    +0.126 A 
ATOM     17  C   UNL     1       5.971  -6.640  -6.503  0.00  0.00    +0.044 C 
BRANCH  16  18
ATOM     18  O   UNL     1       6.626  -7.296  -0.940  0.00  0.00    -0.506 OA
ATOM     19  H   UNL     1       7.225  -8.014  -0.695  0.00  0.00    +0.292 HD
ENDBRANCH  16  18
ENDBRANCH   3  11
BRANCH   1  23
ATOM     20  C   UNL     1       1.671  -3.752  -2.221  0.00  0.00    +0.162 A 
ATOM     21  C   UNL     1       1.406  -4.652  -1.201  0.00  0.00    +0.050 A 
ATOM     22  C   UNL     1       1.460  -6.011  -1.446  0.00  0.00    +0.009 A 
ATOM     23  C   UNL     1       1.780  -6.476  -2.708  0.00  0.00    -0.019 A 
ATOM     24  C   UNL     1       2.046  -5.584  -3.730  0.00  0.00    +0.055 A 
ATOM     25  C   UNL     1       1.987  -4.221  -3.492  0.00  0.00    +0.162 A 
BRANCH  25  26
ATOM     26  O   UNL     1       2.243  -3.342  -4.498  0.00  0.00    -0.491 OA
ATOM     27  C   UNL     1       2.560  -3.894  -5.777  0.00  0.00    +0.277 C 
ENDBRANCH  25  26
BRANCH  20  28
ATOM     28  O   UNL     1       1.618  -2.415  -1.981  0.00  0.00    -0.488 OA
BRANCH  28  29
ATOM     29  C   UNL     1       1.287  -2.006  -0.652  0.00  0.00    +0.229 C 
BRANCH  29  30
ATOM     30  C   UNL     1       1.276  -0.478  -0.576  0.00  0.00    +0.041 C 
BRANCH  30  32
ATOM     31  C   UNL     1       0.910   1.486   0.923  0.00  0.00    +0.004 C 
ATOM     32  C   UNL     1       0.922  -0.042   0.847  0.00  0.00    -0.000 C 
ENDBRANCH  30  32
ENDBRANCH  29  30
ENDBRANCH  28  29
ENDBRANCH  20  28
ENDBRANCH   1  23
BRANCH  10  33
ATOM     33  C   UNL     1      -0.732  -8.364  -2.736  0.00  0.00    +0.137 C 
BRANCH  33  34
ATOM     34  C   UNL     1      -1.151  -9.292  -3.878  0.00  0.00    +0.175 C 
BRANCH  34  35
ATOM     35  O   UNL     1      -1.120 -10.647  -3.425  0.00  0.00    -0.393 OA
ATOM     36  H   UNL     1      -1.375 -11.293  -4.098  0.00  0.00    +0.209 HD
ENDBRANCH  34  35
ENDBRANCH  33  34
ENDBRANCH  10  33
TORSDOF 11
