REMARK  Name = ZINC49311425
REMARK  7 active torsions:
REMARK  status: ('A' for Active; 'I' for Inactive)
REMARK    1  A    between atoms: C_3  and  C_17
REMARK    2  A    between atoms: C_4  and  O_8
REMARK    3  A    between atoms: O_8  and  C_9
REMARK    4  A    between atoms: C_9  and  C_10
REMARK    5  A    between atoms: C_10  and  O_11
REMARK    6  A    between atoms: O_11  and  C_12
REMARK    7  A    between atoms: C_12  and  C_13
REMARK                            x       y       z     vdW  Elec       q    Type
REMARK                         _______ _______ _______ _____ _____    ______ ____
ROOT
ATOM      1  C   UNL     1      -0.017   1.378   0.010  0.00  0.00    +0.002 A 
ATOM      2  C   UNL     1       1.170   2.088   0.002  0.00  0.00    +0.008 A 
ATOM      3  C   UNL     1       2.378   1.418  -0.013  0.00  0.00    +0.006 A 
ATOM      4  C   UNL     1       2.400   0.031  -0.021  0.00  0.00    +0.138 A 
ATOM      5  C   UNL     1       1.208  -0.680  -0.013  0.00  0.00    +0.060 A 
ATOM      6  C   UNL     1       0.002  -0.004   0.002  0.00  0.00    +0.019 A 
ATOM      7 BR   UNL     1       1.233  -2.571  -0.024  0.00  0.00    -0.047 Br
ENDROOT
BRANCH   3   8
ATOM      8  C   UNL     1       3.670   2.193  -0.023  0.00  0.00    +0.118 C 
ATOM      9 BR   UNL     1       4.251   2.521   1.827  0.00  0.00    -0.087 Br
ENDBRANCH   3   8
BRANCH   4  10
ATOM     10  O   UNL     1       3.587  -0.631  -0.037  0.00  0.00    -0.488 OA
BRANCH  10  11
ATOM     11  C   UNL     1       4.167  -0.953   1.229  0.00  0.00    +0.257 C 
BRANCH  11  12
ATOM     12  C   UNL     1       5.489  -1.691   1.011  0.00  0.00    +0.201 C 
BRANCH  12  13
ATOM     13  O   UNL     1       6.425  -0.815   0.379  0.00  0.00    -0.368 OA
BRANCH  13  14
ATOM     14  C   UNL     1       7.700  -1.408   0.129  0.00  0.00    +0.273 C 
BRANCH  14  15
ATOM     15  C   UNL     1       8.616  -0.385  -0.546  0.00  0.00    +0.413 C 
ATOM     16  F   UNL     1       8.774   0.724   0.292  0.00  0.00    -0.168 F 
ATOM     17  F   UNL     1       9.864  -0.967  -0.791  0.00  0.00    -0.168 F 
ATOM     18  F   UNL     1       8.046   0.023  -1.757  0.00  0.00    -0.168 F 
ENDBRANCH  14  15
ENDBRANCH  13  14
ENDBRANCH  12  13
ENDBRANCH  11  12
ENDBRANCH  10  11
ENDBRANCH   4  10
TORSDOF 7
