REMARK  Name = ZINC39887421
REMARK  7 active torsions:
REMARK  status: ('A' for Active; 'I' for Inactive)
REMARK    1  A    between atoms: C_1  and  C_2
REMARK    2  A    between atoms: C_2  and  C_3
REMARK    3  A    between atoms: C_8  and  N_9
REMARK    4  A    between atoms: C_10  and  C_20
REMARK    5  A    between atoms: C_15  and  C_18
REMARK    6  A    between atoms: N_22  and  C_31
REMARK    7  A    between atoms: C_24  and  C_25
REMARK                            x       y       z     vdW  Elec       q    Type
REMARK                         _______ _______ _______ _____ _____    ______ ____
ROOT
ATOM      1  N   UNL     1       3.479   0.122   0.310  0.00  0.00    -0.269 N 
ATOM      2  C   UNL     1       3.470  -1.016   1.237  0.00  0.00    +0.201 C 
ATOM      3  N   UNL     1       4.693  -1.007   2.042  0.00  0.00    -0.288 N 
ATOM      4  C   UNL     1       5.301   0.155   2.353  0.00  0.00    +0.258 C 
ATOM      5  O   UNL     1       6.294   0.157   3.059  0.00  0.00    -0.269 OA
ATOM      6  C   UNL     1       4.762   1.416   1.838  0.00  0.00    +0.142 C 
ATOM      7  C   UNL     1       3.837   1.359   0.785  0.00  0.00    +0.103 C 
ATOM      8  S   UNL     1       3.156   2.831   0.097  0.00  0.00    -0.033 SA
ATOM      9  H   UNL     1       5.069  -1.845   2.354  0.00  0.00    +0.151 HD
ENDROOT
BRANCH   1  15
ATOM     10  C   UNL     1       4.124  -0.242  -1.988  0.00  0.00    -0.026 A 
ATOM     11  C   UNL     1       3.779  -0.419  -3.313  0.00  0.00    +0.005 A 
ATOM     12  C   UNL     1       2.449  -0.403  -3.691  0.00  0.00    +0.000 A 
ATOM     13  C   UNL     1       1.460  -0.210  -2.744  0.00  0.00    +0.002 A 
ATOM     14  C   UNL     1       1.798  -0.031  -1.417  0.00  0.00    +0.024 A 
ATOM     15  C   UNL     1       3.133  -0.053  -1.033  0.00  0.00    +0.040 A 
BRANCH  10  17
ATOM     16  C   UNL     1       5.962  -1.673  -1.137  0.00  0.00    +0.009 C 
ATOM     17  C   UNL     1       5.574  -0.260  -1.577  0.00  0.00    +0.033 C 
ENDBRANCH  10  17
ENDBRANCH   1  15
BRANCH   2  18
ATOM     18  C   UNL     1       2.272  -0.913   2.145  0.00  0.00    +0.037 A 
ATOM     19  C   UNL     1       1.626   0.224   2.484  0.00  0.00    +0.122 A 
ATOM     20  N   UNL     1       0.606  -0.109   3.317  0.00  0.00    -0.239 N 
ATOM     21  N   UNL     1       0.627  -1.498   3.495  0.00  0.00    -0.166 NA
ATOM     22  C   UNL     1       1.624  -1.987   2.787  0.00  0.00    +0.100 A 
BRANCH  22  23
ATOM     23  C   UNL     1       2.002  -3.418   2.687  0.00  0.00    +0.002 A 
ATOM     24  C   UNL     1       2.369  -3.960   1.457  0.00  0.00    +0.010 A 
ATOM     25  C   UNL     1       2.720  -5.292   1.369  0.00  0.00    +0.001 A 
ATOM     26  C   UNL     1       2.708  -6.089   2.500  0.00  0.00    +0.000 A 
ATOM     27  C   UNL     1       2.344  -5.556   3.724  0.00  0.00    +0.001 A 
ATOM     28  C   UNL     1       1.998  -4.224   3.824  0.00  0.00    +0.010 A 
ENDBRANCH  22  23
BRANCH  20  29
ATOM     29  C   UNL     1      -0.307   0.782   3.896  0.00  0.00    +0.065 A 
ATOM     30  C   UNL     1      -0.349   2.106   3.479  0.00  0.00    +0.028 A 
ATOM     31  C   UNL     1      -1.250   2.981   4.053  0.00  0.00    +0.002 A 
ATOM     32  C   UNL     1      -2.111   2.540   5.041  0.00  0.00    +0.000 A 
ATOM     33  C   UNL     1      -2.072   1.222   5.459  0.00  0.00    +0.002 A 
ATOM     34  C   UNL     1      -1.177   0.341   4.885  0.00  0.00    +0.028 A 
ENDBRANCH  20  29
ENDBRANCH   2  18
BRANCH   6  35
ATOM     35  C   UNL     1       5.171   2.671   2.391  0.00  0.00    +0.107 C 
ATOM     36  N   UNL     1       5.496   3.667   2.830  0.00  0.00    -0.191 NA
ENDBRANCH   6  35
TORSDOF 6
