REMARK  Name = ZINC20727935
REMARK  13 active torsions:
REMARK  status: ('A' for Active; 'I' for Inactive)
REMARK    1  A    between atoms: C_1  and  C_2
REMARK    2  A    between atoms: C_2  and  C_3
REMARK    3  A    between atoms: C_3  and  C_4
REMARK    4  A    between atoms: C_4  and  N_5
REMARK    5  A    between atoms: N_5  and  C_6
REMARK    6  A    between atoms: N_5  and  C_7
REMARK    7  A    between atoms: C_7  and  C_8
REMARK    8  A    between atoms: C_8  and  C_9
REMARK    9  A    between atoms: C_9  and  N_10
REMARK   10  A    between atoms: C_11  and  C_13
REMARK   11  A    between atoms: C_13  and  N_14
REMARK   12  A    between atoms: C_23  and  C_24
REMARK   13  A    between atoms: C_27  and  C_30
REMARK                            x       y       z     vdW  Elec       q    Type
REMARK                         _______ _______ _______ _____ _____    ______ ____
ROOT
ATOM      1  N   UNL     1      -0.095   1.079   4.752  0.00  0.00    -0.257 N 
ATOM      2  C   UNL     1      -0.360  -0.225   5.151  0.00  0.00    +0.051 A 
ATOM      3  C   UNL     1      -0.951  -1.094   4.235  0.00  0.00    +0.024 A 
ATOM      4  C   UNL     1      -1.231  -2.397   4.588  0.00  0.00    +0.002 A 
ATOM      5  C   UNL     1      -0.929  -2.862   5.855  0.00  0.00    +0.001 A 
ATOM      6  C   UNL     1      -0.336  -2.020   6.769  0.00  0.00    +0.017 A 
ATOM      7  C   UNL     1      -0.057  -0.707   6.424  0.00  0.00    +0.034 A 
ATOM      8  S   UNL     1       0.685   0.378   7.606  0.00  0.00    -0.082 S 
ATOM      9  C   UNL     1       1.500   1.545   6.548  0.00  0.00    +0.076 C 
ATOM     10  C   UNL     1       2.716   2.060   6.850  0.00  0.00    +0.028 C 
ATOM     11  C   UNL     1       0.773   1.924   5.315  0.00  0.00    +0.258 C 
ATOM     12  O   UNL     1       0.968   3.014   4.811  0.00  0.00    -0.269 OA
ENDROOT
BRANCH  10  13
ATOM     13  C   UNL     1       3.330   1.778   8.156  0.00  0.00    -0.024 A 
ATOM     14  C   UNL     1       2.526   1.603   9.288  0.00  0.00    +0.008 A 
ATOM     15  C   UNL     1       3.110   1.334  10.508  0.00  0.00    +0.013 A 
ATOM     16  C   UNL     1       4.487   1.246  10.616  0.00  0.00    +0.055 A 
ATOM     17  C   UNL     1       5.289   1.423   9.502  0.00  0.00    +0.013 A 
ATOM     18  C   UNL     1       4.721   1.688   8.274  0.00  0.00    +0.008 A 
BRANCH  16  19
ATOM     19  C   UNL     1       5.116   0.957  11.955  0.00  0.00    +0.417 C 
ATOM     20  F   UNL     1       5.373   2.161  12.619  0.00  0.00    -0.166 F 
ATOM     21  F   UNL     1       4.243   0.178  12.722  0.00  0.00    -0.166 F 
ATOM     22  F   UNL     1       6.316   0.264  11.766  0.00  0.00    -0.166 F 
ENDBRANCH  16  19
ENDBRANCH  10  13
BRANCH   1  23
ATOM     23  C   UNL     1      -0.848   1.580   3.599  0.00  0.00    +0.209 C 
BRANCH  23  25
ATOM     24  N   UNL     1      -0.589   1.656   1.141  0.00  0.00    -0.314 N 
ATOM     25  C   UNL     1      -0.085   1.284   2.334  0.00  0.00    +0.231 C 
ATOM     26  O   UNL     1       0.982   0.711   2.389  0.00  0.00    -0.274 OA
ATOM     27  H   UNL     1      -1.557   2.176   1.091  0.00  0.00    +0.149 HD
BRANCH  24  28
ATOM     28  C   UNL     1       0.152   1.368  -0.089  0.00  0.00    +0.102 C 
BRANCH  28  29
ATOM     29  C   UNL     1      -0.634   1.891  -1.293  0.00  0.00    +0.000 C 
BRANCH  29  30
ATOM     30  C   UNL     1       0.141   1.591  -2.578  0.00  0.00    -0.078 C 
BRANCH  30  31
ATOM     31  N   UNL     1      -0.614   2.093  -3.734  0.00  0.00    +0.378 N 
ATOM     32  C   UNL     1      -1.872   1.353  -3.903  0.00  0.00    -0.096 C 
ATOM     33  H   UNL     1      -0.865   3.147  -3.542  0.00  0.00    -0.082 HD
BRANCH  31  34
ATOM     34  C   UNL     1       0.197   2.038  -4.957  0.00  0.00    -0.079 C 
BRANCH  34  35
ATOM     35  C   UNL     1      -0.520   2.791  -6.079  0.00  0.00    -0.019 C 
BRANCH  35  37
ATOM     36  C   UNL     1      -0.392   3.487  -8.476  0.00  0.00    +0.004 C 
ATOM     37  C   UNL     1       0.326   2.733  -7.353  0.00  0.00    -0.005 C 
ENDBRANCH  35  37
ENDBRANCH  34  35
ENDBRANCH  31  34
ENDBRANCH  30  31
ENDBRANCH  29  30
ENDBRANCH  28  29
ENDBRANCH  24  28
ENDBRANCH  23  25
ENDBRANCH   1  23
TORSDOF 11
