REMARK  Name = ZINC44938168
REMARK  7 active torsions:
REMARK  status: ('A' for Active; 'I' for Inactive)
REMARK    1  A    between atoms: C_1  and  C_2
REMARK    2  A    between atoms: C_5  and  C_8
REMARK    3  A    between atoms: C_8  and  C_10
REMARK    4  A    between atoms: C_8  and  N_16
REMARK    5  A    between atoms: C_17  and  C_19
REMARK    6  A    between atoms: N_23  and  S_31
REMARK    7  A    between atoms: S_31  and  C_34
REMARK                            x       y       z     vdW  Elec       q    Type
REMARK                         _______ _______ _______ _____ _____    ______ ____
ROOT
ATOM      1  N   UNL     1       0.959  -4.758   1.029  0.00  0.00    -0.301 N 
ATOM      2  C   UNL     1       1.534  -5.972   0.919  0.00  0.00    +0.255 C 
ATOM      3  O   UNL     1       1.306  -6.665  -0.050  0.00  0.00    -0.272 OA
ATOM      4  H   UNL     1       1.142  -4.204   1.804  0.00  0.00    +0.150 HD
ENDROOT
BRANCH   2   5
ATOM      5  C   UNL     1       2.460  -6.468   1.999  0.00  0.00    +0.260 C 
ATOM      6  C   UNL     1       3.686  -5.568   2.059  0.00  0.00    +0.075 C 
ATOM      7  C   UNL     1       4.590  -5.894   3.232  0.00  0.00    +0.135 C 
ATOM      8  N   UNL     1       5.135  -7.252   3.096  0.00  0.00    -0.204 N 
ATOM      9  C   UNL     1       4.330  -8.329   3.495  0.00  0.00    +0.092 A 
ATOM     10  C   UNL     1       4.689  -9.122   4.572  0.00  0.00    +0.028 A 
ATOM     11  C   UNL     1       3.873 -10.173   4.950  0.00  0.00    +0.002 A 
ATOM     12  C   UNL     1       2.704 -10.431   4.259  0.00  0.00    +0.004 A 
ATOM     13  C   UNL     1       2.343  -9.643   3.180  0.00  0.00    +0.047 A 
ATOM     14  C   UNL     1       3.157  -8.593   2.795  0.00  0.00    +0.144 A 
ATOM     15  O   UNL     1       2.825  -7.818   1.718  0.00  0.00    -0.478 OA
BRANCH   8  16
ATOM     16  S   UNL     1       6.654  -7.503   2.488  0.00  0.00    +0.043 S 
ATOM     17  O   UNL     1       6.612  -8.812   1.936  0.00  0.00    -0.155 OA
ATOM     18  O   UNL     1       6.905  -6.376   1.660  0.00  0.00    -0.155 OA
ATOM     19  C   UNL     1       7.747  -7.470   3.936  0.00  0.00    +0.218 C 
ENDBRANCH   8  16
ENDBRANCH   2   5
BRANCH   1  20
ATOM     20  C   UNL     1       0.059  -4.275  -0.021  0.00  0.00    +0.134 C 
BRANCH  20  25
ATOM     21  C   UNL     1      -0.018   1.503   0.010  0.00  0.00    +0.044 C 
ATOM     22  C   UNL     1       0.002  -0.004   0.002  0.00  0.00    -0.050 A 
ATOM     23  C   UNL     1       0.006  -0.689  -1.199  0.00  0.00    +0.004 A 
ATOM     24  C   UNL     1       0.025  -2.071  -1.206  0.00  0.00    +0.006 A 
ATOM     25  C   UNL     1       0.040  -2.768  -0.013  0.00  0.00    -0.023 A 
ATOM     26  C   UNL     1       0.037  -2.084   1.188  0.00  0.00    +0.006 A 
ATOM     27  C   UNL     1       0.023  -0.702   1.195  0.00  0.00    +0.004 A 
ENDBRANCH  20  25
BRANCH  20  28
ATOM     28  C   UNL     1      -1.332  -4.797   0.230  0.00  0.00    -0.023 A 
ATOM     29  C   UNL     1      -1.831  -4.840   1.518  0.00  0.00    +0.006 A 
ATOM     30  C   UNL     1      -3.108  -5.318   1.749  0.00  0.00    +0.000 A 
ATOM     31  C   UNL     1      -3.884  -5.754   0.692  0.00  0.00    +0.000 A 
ATOM     32  C   UNL     1      -3.385  -5.710  -0.597  0.00  0.00    +0.000 A 
ATOM     33  C   UNL     1      -2.110  -5.228  -0.828  0.00  0.00    +0.006 A 
ENDBRANCH  20  28
ENDBRANCH   1  20
TORSDOF 5
