REMARK  Name = ZINC40961350
REMARK  11 active torsions:
REMARK  status: ('A' for Active; 'I' for Inactive)
REMARK    1  A    between atoms: C_1  and  C_2
REMARK    2  A    between atoms: C_5  and  C_8
REMARK    3  A    between atoms: N_9  and  N_10
REMARK    4  A    between atoms: C_11  and  C_13
REMARK    5  A    between atoms: C_13  and  C_15
REMARK    6  A    between atoms: C_13  and  O_16
REMARK    7  A    between atoms: O_16  and  C_17
REMARK    8  A    between atoms: C_20  and  C_23
REMARK    9  A    between atoms: C_23  and  C_24
REMARK   10  A    between atoms: C_23  and  C_25
REMARK   11  A    between atoms: C_23  and  C_26
REMARK                            x       y       z     vdW  Elec       q    Type
REMARK                         _______ _______ _______ _____ _____    ______ ____
ROOT
ATOM      1  N   UNL     1       0.375  -6.300   1.119  0.00  0.00    -0.204 N 
ATOM      2  C   UNL     1       0.351  -6.998   2.272  0.00  0.00    +0.273 C 
ATOM      3  O   UNL     1       0.516  -6.427   3.330  0.00  0.00    -0.270 OA
ATOM      4  H   UNL     1       0.242  -6.756   0.274  0.00  0.00    +0.177 HD
ENDROOT
BRANCH   1   6
ATOM      5  C   UNL     1       0.615  -4.244   0.033  0.00  0.00    +0.138 C 
ATOM      6  N   UNL     1       0.592  -4.916   1.143  0.00  0.00    -0.188 NA
BRANCH   5  11
ATOM      7  C   UNL     1       1.502   1.438   0.129  0.00  0.00    +0.044 C 
ATOM      8  C   UNL     1       1.270  -0.051   0.103  0.00  0.00    -0.050 A 
ATOM      9  C   UNL     1       1.082  -0.699  -1.105  0.00  0.00    +0.004 A 
ATOM     10  C   UNL     1       0.869  -2.061  -1.135  0.00  0.00    +0.010 A 
ATOM     11  C   UNL     1       0.843  -2.787   0.057  0.00  0.00    -0.005 A 
ATOM     12  C   UNL     1       1.034  -2.127   1.274  0.00  0.00    +0.010 A 
ATOM     13  C   UNL     1       1.251  -0.765   1.288  0.00  0.00    +0.004 A 
ENDBRANCH   5  11
ENDBRANCH   1   6
BRANCH   2  14
ATOM     14  C   UNL     1       0.118  -8.486   2.247  0.00  0.00    +0.257 C 
ATOM     15  C   UNL     1       1.286  -9.174   1.537  0.00  0.00    +0.062 C 
BRANCH  14  16
ATOM     16  O   UNL     1       0.020  -8.976   3.586  0.00  0.00    -0.480 OA
BRANCH  16  17
ATOM     17  C   UNL     1      -0.678 -10.127   3.773  0.00  0.00    +0.122 A 
ATOM     18  C   UNL     1      -0.912 -10.596   5.057  0.00  0.00    +0.046 A 
ATOM     19  C   UNL     1      -1.622 -11.766   5.245  0.00  0.00    +0.008 A 
ATOM     20  C   UNL     1      -2.099 -12.470   4.154  0.00  0.00    -0.042 A 
ATOM     21  C   UNL     1      -1.866 -12.004   2.873  0.00  0.00    +0.008 A 
ATOM     22  C   UNL     1      -1.162 -10.831   2.680  0.00  0.00    +0.046 A 
BRANCH  20  23
ATOM     23  C   UNL     1      -2.873 -13.746   4.361  0.00  0.00    -0.013 C 
ATOM     24  C   UNL     1      -4.126 -13.454   5.189  0.00  0.00    +0.015 C 
ATOM     25  C   UNL     1      -3.282 -14.320   3.003  0.00  0.00    +0.015 C 
ATOM     26  C   UNL     1      -1.997 -14.759   5.101  0.00  0.00    +0.015 C 
ENDBRANCH  20  23
ENDBRANCH  16  17
ENDBRANCH  14  16
ENDBRANCH   2  14
TORSDOF 6
