REMARK  Name = ZINC21976720
REMARK  8 active torsions:
REMARK  status: ('A' for Active; 'I' for Inactive)
REMARK    1  A    between atoms: C_3  and  C_11
REMARK    2  A    between atoms: C_5  and  O_7
REMARK    3  A    between atoms: O_7  and  C_8
REMARK    4  A    between atoms: N_13  and  C_14
REMARK    5  A    between atoms: C_14  and  C_15
REMARK    6  A    between atoms: C_15  and  O_17
REMARK    7  A    between atoms: O_17  and  C_18
REMARK    8  A    between atoms: C_18  and  C_19
REMARK                            x       y       z     vdW  Elec       q    Type
REMARK                         _______ _______ _______ _____ _____    ______ ____
ROOT
ATOM      1  O   UNL     1       3.161   9.151  -0.064  0.00  0.00    -0.456 OA
ENDROOT
BRANCH   1   2
ATOM      2  C   UNL     1       3.102   7.810  -0.075  0.00  0.00    +0.325 C 
ATOM      3  O   UNL     1       4.119   7.160  -0.020  0.00  0.00    -0.249 OA
BRANCH   2   4
ATOM      4  C   UNL     1       1.767   7.115  -0.156  0.00  0.00    +0.225 C 
BRANCH   4   7
ATOM      5  C   UNL     1       0.910   4.835  -0.218  0.00  0.00    +0.245 C 
ATOM      6  O   UNL     1      -0.215   5.291  -0.281  0.00  0.00    -0.270 OA
ATOM      7  N   UNL     1       1.971   5.665  -0.152  0.00  0.00    -0.301 N 
ATOM      8  H   UNL     1       2.989   5.252  -0.096  0.00  0.00    +0.150 HD
BRANCH   5  11
ATOM      9  C   UNL     1       2.595   1.478  -0.141  0.00  0.00    +0.004 A 
ATOM     10  C   UNL     1       2.407   2.845  -0.144  0.00  0.00    +0.013 A 
ATOM     11  C   UNL     1       1.116   3.371  -0.215  0.00  0.00    +0.040 A 
ATOM     12  C   UNL     1       0.020   2.510  -0.284  0.00  0.00    +0.059 A 
ATOM     13  C   UNL     1       0.221   1.140  -0.286  0.00  0.00    +0.128 A 
ATOM     14  C   UNL     1       1.508   0.626  -0.210  0.00  0.00    +0.046 A 
BRANCH  13  15
ATOM     15  O   UNL     1      -0.844   0.298  -0.359  0.00  0.00    -0.434 OA
BRANCH  15  16
ATOM     16  C   UNL     1      -0.564  -1.103  -0.352  0.00  0.00    +0.541 C 
ATOM     17  F   UNL     1       0.244  -1.423  -1.449  0.00  0.00    -0.166 F 
ATOM     18  F   UNL     1       0.102  -1.440   0.831  0.00  0.00    -0.166 F 
ENDBRANCH  15  16
ENDBRANCH  13  15
ENDBRANCH   5  11
ENDBRANCH   4   7
ENDBRANCH   2   4
ENDBRANCH   1   2
BRANCH   1  19
ATOM     19  C   UNL     1       4.481   9.752   0.016  0.00  0.00    +0.308 C 
BRANCH  19  20
ATOM     20  C   UNL     1       4.349  11.253   0.017  0.00  0.00    +0.170 A 
ATOM     21  N   UNL     1       4.365  11.904  -1.133  0.00  0.00    -0.214 NA
ATOM     22  C   UNL     1       4.249  13.220  -1.199  0.00  0.00    +0.128 A 
ATOM     23  C   UNL     1       4.113  13.964   0.006  0.00  0.00    +0.051 A 
ATOM     24  C   UNL     1       3.973  15.415   0.173  0.00  0.00    -0.025 A 
ATOM     25  C   UNL     1       3.865  15.871   1.438  0.00  0.00    -0.004 A 
ATOM     26  S   UNL     1       3.933  14.425   2.463  0.00  0.00    -0.073 S 
ATOM     27  C   UNL     1       4.111  13.203   1.191  0.00  0.00    +0.114 A 
ATOM     28  N   UNL     1       4.227  11.889   1.167  0.00  0.00    -0.221 NA
ATOM     29  C   UNL     1       3.732  17.292   1.891  0.00  0.00    +0.043 C 
ATOM     30  C   UNL     1       2.631  17.985   1.077  0.00  0.00    +0.005 C 
ATOM     31  C   UNL     1       3.268  18.599  -0.165  0.00  0.00    +0.001 C 
ATOM     32  C   UNL     1       4.437  17.734  -0.635  0.00  0.00    +0.005 C 
ATOM     33  C   UNL     1       3.946  16.348  -1.034  0.00  0.00    +0.037 C 
ATOM     34  N   UNL     1       4.264  13.865  -2.423  0.00  0.00    -0.343 N 
ATOM     35  H   UNL     1       4.168  14.960  -2.469  0.00  0.00    +0.144 HD
ATOM     36  H   UNL     1       4.373  13.283  -3.350  0.00  0.00    +0.144 HD
ENDBRANCH  19  20
ENDBRANCH   1  19
TORSDOF 8
