REMARK  Name = ZINC06790480
REMARK  4 active torsions:
REMARK  status: ('A' for Active; 'I' for Inactive)
REMARK    1  A    between atoms: C_7  and  C_11
REMARK    2  A    between atoms: C_11  and  C_12
REMARK    3  A    between atoms: C_12  and  C_13
REMARK    4  A    between atoms: C_18  and  C_21
REMARK                            x       y       z     vdW  Elec       q    Type
REMARK                         _______ _______ _______ _____ _____    ______ ____
ROOT
ATOM      1  C   UNL     1      -2.892  -2.031  -1.417  0.00  0.00    +0.219 C 
ATOM      2  O   UNL     1      -3.309  -2.477  -0.369  0.00  0.00    -0.275 OA
ATOM      3  N   UNL     1      -3.502  -2.352  -2.576  0.00  0.00    -0.265 N 
ATOM      4  C   UNL     1      -4.607  -3.194  -2.569  0.00  0.00    +0.165 A 
ATOM      5  N   UNL     1      -5.336  -3.623  -3.583  0.00  0.00    -0.225 NA
ATOM      6  C   UNL     1      -6.368  -4.432  -3.394  0.00  0.00    +0.080 A 
ATOM      7  C   UNL     1      -6.685  -4.830  -2.125  0.00  0.00    +0.076 A 
ATOM      8  S   UNL     1      -5.415  -3.988  -1.188  0.00  0.00    -0.060 S 
ATOM      9  H   UNL     1      -3.168  -1.995  -3.414  0.00  0.00    +0.157 HD
ENDROOT
BRANCH   6  10
ATOM     10  C   UNL     1      -7.172  -4.901  -4.548  0.00  0.00    +0.004 A 
ATOM     11  C   UNL     1      -6.845  -4.493  -5.840  0.00  0.00    +0.013 A 
ATOM     12  C   UNL     1      -7.595  -4.931  -6.912  0.00  0.00    +0.042 A 
ATOM     13  C   UNL     1      -8.672  -5.777  -6.707  0.00  0.00    +0.158 A 
ATOM     14  C   UNL     1      -9.003  -6.187  -5.423  0.00  0.00    +0.159 A 
ATOM     15  C   UNL     1      -8.254  -5.756  -4.345  0.00  0.00    +0.051 A 
ATOM     16  F   UNL     1     -10.055  -7.011  -5.228  0.00  0.00    -0.202 F 
ATOM     17  F   UNL     1      -9.404  -6.204  -7.760  0.00  0.00    -0.202 F 
ENDBRANCH   6  10
BRANCH   1  18
ATOM     18  C   UNL     1      -1.693  -1.118  -1.424  0.00  0.00    +0.101 C 
BRANCH  18  19
ATOM     19  C   UNL     1      -1.197  -0.917   0.009  0.00  0.00    +0.046 C 
BRANCH  19  26
ATOM     20  C   UNL     1      -0.716   3.746   0.030  0.00  0.00    +0.001 A 
ATOM     21  C   UNL     1       0.611   4.153   0.019  0.00  0.00    +0.002 A 
ATOM     22  C   UNL     1       1.630   3.226   0.004  0.00  0.00    +0.026 A 
ATOM     23  C   UNL     1       1.329   1.868  -0.001  0.00  0.00    +0.047 A 
ATOM     24  C   UNL     1      -0.018   1.461   0.010  0.00  0.00    +0.003 A 
ATOM     25  C   UNL     1      -1.035   2.417   0.030  0.00  0.00    +0.010 A 
ATOM     26  C   UNL     1       0.002  -0.004   0.002  0.00  0.00    -0.022 A 
ATOM     27  C   UNL     1       1.291  -0.379  -0.012  0.00  0.00    +0.087 A 
ATOM     28  N   UNL     1       2.098   0.726  -0.014  0.00  0.00    -0.360 N 
ATOM     29  H   UNL     1       3.068   0.708  -0.024  0.00  0.00    +0.165 HD
ENDBRANCH  19  26
ENDBRANCH  18  19
ENDBRANCH   1  18
TORSDOF 4
