REMARK  Name = ZINC39526205
REMARK  5 active torsions:
REMARK  status: ('A' for Active; 'I' for Inactive)
REMARK    1  A    between atoms: C_1  and  C_2
REMARK    2  A    between atoms: C_2  and  O_3
REMARK    3  A    between atoms: O_3  and  C_4
REMARK    4  A    between atoms: C_15  and  O_18
REMARK    5  A    between atoms: O_18  and  C_19
REMARK                            x       y       z     vdW  Elec       q    Type
REMARK                         _______ _______ _______ _____ _____    ______ ____
ROOT
ATOM      1  C   UNL     1      -1.356  -1.925   0.090  0.00  0.00    +0.198 C 
ATOM      2  C   UNL     1      -2.740  -2.441  -0.311  0.00  0.00    +0.049 C 
ATOM      3  C   UNL     1      -2.760  -3.968  -0.207  0.00  0.00    +0.006 C 
ATOM      4  C   UNL     1      -2.398  -4.379   1.223  0.00  0.00    +0.023 C 
ATOM      5  C   UNL     1      -1.025  -3.807   1.581  0.00  0.00    +0.036 C 
ATOM      6  N   UNL     1      -1.057  -2.344   1.466  0.00  0.00    -0.214 NA
ATOM      7  I   UNL     1       0.701  -1.516   2.119  0.00  0.00    +0.024 I 
ATOM      8  C   UNL     1      -0.669  -4.198   3.017  0.00  0.00    +0.023 C 
ATOM      9  C   UNL     1      -0.638  -5.723   3.138  0.00  0.00    +0.004 C 
ATOM     10  C   UNL     1       0.413  -6.289   2.180  0.00  0.00    +0.032 C 
ATOM     11  C   UNL     1       0.058  -5.897   0.744  0.00  0.00    +0.120 C 
ATOM     12  C   UNL     1       0.027  -4.372   0.624  0.00  0.00    +0.054 C 
ENDROOT
BRANCH  11  13
ATOM     13  O   UNL     1       1.041  -6.425  -0.149  0.00  0.00    -0.380 OA
ATOM     14  C   UNL     1       0.738  -7.734  -0.638  0.00  0.00    +0.194 C 
ENDBRANCH  11  13
BRANCH   1  15
ATOM     15  O   UNL     1      -1.339  -0.499   0.012  0.00  0.00    -0.361 OA
BRANCH  15  17
ATOM     16  C   UNL     1      -2.152   1.656   0.745  0.00  0.00    +0.034 C 
ATOM     17  C   UNL     1      -2.349   0.139   0.796  0.00  0.00    +0.158 C 
ENDBRANCH  15  17
ENDBRANCH   1  15
TORSDOF 3
