REMARK  Name = ZINC14142363
REMARK  8 active torsions:
REMARK  status: ('A' for Active; 'I' for Inactive)
REMARK    1  A    between atoms: C_1  and  C_2
REMARK    2  A    between atoms: C_2  and  C_4
REMARK    3  A    between atoms: C_2  and  N_54
REMARK    4  A    between atoms: C_9  and  C_10
REMARK    5  A    between atoms: C_9  and  N_54
REMARK    6  A    between atoms: N_12  and  C_13
REMARK    7  A    between atoms: C_16  and  S_19
REMARK    8  A    between atoms: S_19  and  N_22
REMARK                            x       y       z     vdW  Elec       q    Type
REMARK                         _______ _______ _______ _____ _____    ______ ____
ROOT
ATOM      1  C   UNL     1       0.500  -3.572  -1.492  0.00  0.00    +0.033 A 
ATOM      2  C   UNL     1      -0.282  -3.598  -0.345  0.00  0.00    +0.025 A 
ATOM      3  C   UNL     1      -1.407  -2.802  -0.259  0.00  0.00    +0.030 A 
ATOM      4  C   UNL     1      -1.755  -1.979  -1.315  0.00  0.00    +0.106 A 
ATOM      5  C   UNL     1      -0.981  -1.954  -2.461  0.00  0.00    +0.030 A 
ATOM      6  C   UNL     1       0.148  -2.744  -2.550  0.00  0.00    +0.025 A 
ENDROOT
BRANCH   1   9
ATOM      7  C   UNL     1       1.663  -5.583  -0.980  0.00  0.00    +0.200 C 
ATOM      8  O   UNL     1       0.664  -6.012  -0.444  0.00  0.00    -0.278 OA
ATOM      9  N   UNL     1       1.641  -4.377  -1.581  0.00  0.00    -0.287 N 
ATOM     10  H   UNL     1       2.416  -4.067  -2.076  0.00  0.00    +0.155 HD
BRANCH   7  11
ATOM     11  C   UNL     1       2.930  -6.399  -0.975  0.00  0.00    +0.016 C 
BRANCH  11  12
ATOM     12  N   UNL     1       2.687  -7.665  -0.258  0.00  0.00    +0.389 N 
ATOM     13  H   UNL     1       2.401  -7.459   0.706  0.00  0.00    -0.084 HD
ATOM     14  H   UNL     1       1.940  -8.185  -0.733  0.00  0.00    -0.084 HD
BRANCH  12  16
ATOM     15  C   UNL     1       4.001  -9.305  -1.527  0.00  0.00    -0.008 C 
ATOM     16  C   UNL     1       3.913  -8.486  -0.237  0.00  0.00    -0.037 C 
BRANCH  16  17
ATOM     17  C   UNL     1       3.865  -9.416   0.947  0.00  0.00    -0.024 A 
ATOM     18  C   UNL     1       4.865  -9.784   1.785  0.00  0.00    +0.009 A 
ATOM     19  C   UNL     1       4.586 -10.658   2.818  0.00  0.00    +0.008 A 
ATOM     20  C   UNL     1       3.323 -11.130   2.957  0.00  0.00    +0.045 A 
ATOM     21  S   UNL     1       2.478 -10.328   1.605  0.00  0.00    -0.103 S 
ENDBRANCH  16  17
ENDBRANCH  12  16
ENDBRANCH  11  12
ENDBRANCH   7  11
ENDBRANCH   1   9
BRANCH   4  22
ATOM     22  S   UNL     1      -3.191  -0.964  -1.202  0.00  0.00    +0.061 S 
ATOM     23  O   UNL     1      -4.049  -1.579  -0.250  0.00  0.00    -0.153 OA
ATOM     24  O   UNL     1      -3.603  -0.694  -2.535  0.00  0.00    -0.153 OA
BRANCH  22  25
ATOM     25  N   UNL     1      -2.719   0.483  -0.549  0.00  0.00    -0.177 NA
ATOM     26  C   UNL     1      -2.290   1.558  -1.396  0.00  0.00    +0.109 C 
ATOM     27  C   UNL     1      -0.783   1.585  -1.752  0.00  0.00    +0.017 C 
ATOM     28  C   UNL     1       0.066   1.232  -0.506  0.00  0.00    +0.001 C 
ATOM     29  C   UNL     1      -0.519   1.853   0.730  0.00  0.00    +0.001 C 
ATOM     30  C   UNL     1      -1.342   0.750   1.387  0.00  0.00    +0.017 C 
ATOM     31  C   UNL     1      -2.732   0.690   0.938  0.00  0.00    +0.109 C 
ENDBRANCH  22  25
ENDBRANCH   4  22
TORSDOF 7
