REMARK  Name = ZINC67479504
REMARK  7 active torsions:
REMARK  status: ('A' for Active; 'I' for Inactive)
REMARK    1  A    between atoms: C_1  and  C_2
REMARK    2  A    between atoms: C_5  and  C_28
REMARK    3  A    between atoms: C_14  and  C_16
REMARK    4  A    between atoms: C_16  and  C_18
REMARK    5  A    between atoms: C_16  and  O_19
REMARK    6  A    between atoms: O_19  and  C_20
REMARK    7  A    between atoms: C_24  and  C_26
REMARK                            x       y       z     vdW  Elec       q    Type
REMARK                         _______ _______ _______ _____ _____    ______ ____
ROOT
ATOM      1  C   UNL     1      -1.457   1.029   0.338  0.00  0.00    +0.028 C 
ATOM      2  C   UNL     1      -1.222  -0.348   0.963  0.00  0.00    +0.080 C 
ATOM      3  C   UNL     1      -2.496  -0.820   1.675  0.00  0.00    +0.040 C 
ATOM      4  C   UNL     1      -2.260  -2.224   2.231  0.00  0.00    +0.108 C 
ATOM      5  C   UNL     1      -0.994  -2.264   3.045  0.00  0.00    -0.014 A 
ATOM      6  C   UNL     1      -0.823  -3.281   3.969  0.00  0.00    +0.006 A 
ATOM      7  C   UNL     1       0.329  -3.346   4.729  0.00  0.00    +0.000 A 
ATOM      8  C   UNL     1       1.320  -2.394   4.571  0.00  0.00    +0.002 A 
ATOM      9  C   UNL     1       1.157  -1.377   3.652  0.00  0.00    +0.024 A 
ATOM     10  C   UNL     1      -0.003  -1.308   2.888  0.00  0.00    +0.041 A 
ATOM     11  N   UNL     1      -0.151  -0.263   1.966  0.00  0.00    -0.265 N 
ATOM     12  C   UNL     1       0.673   0.803   2.000  0.00  0.00    +0.260 C 
ATOM     13  O   UNL     1       0.684   1.591   1.077  0.00  0.00    -0.271 OA
ENDROOT
BRANCH   4  14
ATOM     14  C   UNL     1      -3.425  -2.615   3.104  0.00  0.00    +0.218 C 
ATOM     15  O   UNL     1      -4.069  -1.761   3.675  0.00  0.00    -0.275 OA
ATOM     16  N   UNL     1      -3.750  -3.915   3.251  0.00  0.00    -0.329 N 
ATOM     17  H   UNL     1      -3.190  -4.603   2.858  0.00  0.00    +0.145 HD
ATOM     18  H   UNL     1      -4.544  -4.163   3.750  0.00  0.00    +0.145 HD
ENDBRANCH   4  14
BRANCH  12  19
ATOM     19  C   UNL     1       1.581   1.017   3.183  0.00  0.00    +0.256 C 
ATOM     20  C   UNL     1       2.985   0.510   2.847  0.00  0.00    +0.062 C 
BRANCH  19  21
ATOM     21  O   UNL     1       1.639   2.410   3.494  0.00  0.00    -0.480 OA
BRANCH  21  22
ATOM     22  C   UNL     1       1.949   2.745   4.774  0.00  0.00    +0.123 A 
ATOM     23  C   UNL     1       2.279   1.754   5.690  0.00  0.00    +0.046 A 
ATOM     24  C   UNL     1       2.596   2.088   6.993  0.00  0.00    +0.005 A 
ATOM     25  C   UNL     1       2.586   3.408   7.394  0.00  0.00    +0.019 A 
ATOM     26  C   UNL     1       2.256   4.412   6.480  0.00  0.00    +0.055 A 
ATOM     27  C   UNL     1       1.942   4.073   5.163  0.00  0.00    +0.064 A 
BRANCH  26  28
ATOM     28  C   UNL     1       2.245   5.783   6.892  0.00  0.00    +0.099 C 
ATOM     29  N   UNL     1       2.236   6.871   7.219  0.00  0.00    -0.191 NA
ENDBRANCH  26  28
ENDBRANCH  21  22
ENDBRANCH  19  21
ENDBRANCH  12  19
TORSDOF 5
