REMARK  Name = ZINC47858428
REMARK  8 active torsions:
REMARK  status: ('A' for Active; 'I' for Inactive)
REMARK    1  A    between atoms: C_1  and  C_2
REMARK    2  A    between atoms: C_2  and  S_3
REMARK    3  A    between atoms: S_3  and  C_4
REMARK    4  A    between atoms: C_9  and  N_10
REMARK    5  A    between atoms: N_13  and  C_14
REMARK    6  A    between atoms: C_14  and  C_15
REMARK    7  A    between atoms: C_15  and  N_16
REMARK    8  A    between atoms: C_18  and  C_23
REMARK                            x       y       z     vdW  Elec       q    Type
REMARK                         _______ _______ _______ _____ _____    ______ ____
ROOT
ATOM      1  N   UNL     1      -3.917  -2.650   0.025  0.00  0.00    -0.268 N 
ATOM      2  C   UNL     1      -5.000  -3.446  -0.070  0.00  0.00    +0.304 C 
ATOM      3  O   UNL     1      -4.867  -4.655  -0.078  0.00  0.00    -0.253 OA
ATOM      4  N   UNL     1      -6.230  -2.903  -0.157  0.00  0.00    -0.298 N 
ATOM      5  H   UNL     1      -4.026  -1.691   0.114  0.00  0.00    +0.156 HD
ATOM      6  H   UNL     1      -6.336  -1.939  -0.151  0.00  0.00    +0.150 HD
ENDROOT
BRANCH   1  12
ATOM      7  C   UNL     1      -1.561  -2.533   0.584  0.00  0.00    +0.029 A 
ATOM      8  C   UNL     1      -0.293  -3.095   0.557  0.00  0.00    +0.016 A 
ATOM      9  C   UNL     1      -0.091  -4.318  -0.055  0.00  0.00    +0.001 A 
ATOM     10  C   UNL     1      -1.151  -4.985  -0.642  0.00  0.00    +0.002 A 
ATOM     11  C   UNL     1      -2.418  -4.432  -0.620  0.00  0.00    +0.024 A 
ATOM     12  C   UNL     1      -2.631  -3.209  -0.003  0.00  0.00    +0.048 A 
BRANCH   7  13
ATOM     13  S   UNL     1      -1.821  -0.975   1.363  0.00  0.00    -0.124 S 
BRANCH  13  15
ATOM     14  C   UNL     1      -0.258   0.851   2.670  0.00  0.00    +0.015 C 
ATOM     15  C   UNL     1      -0.175  -0.503   1.962  0.00  0.00    +0.071 C 
ENDBRANCH  13  15
ENDBRANCH   7  13
ENDBRANCH   1  12
BRANCH   4  16
ATOM     16  C   UNL     1      -7.408  -3.768  -0.261  0.00  0.00    +0.124 C 
BRANCH  16  17
ATOM     17  C   UNL     1      -8.668  -2.906  -0.346  0.00  0.00    +0.121 C 
BRANCH  17  18
ATOM     18  N   UNL     1      -9.846  -3.771  -0.450  0.00  0.00    -0.327 N 
ATOM     19  C   UNL     1     -11.109  -3.213  -0.539  0.00  0.00    +0.136 A 
ATOM     20  C   UNL     1     -12.237  -4.047  -0.633  0.00  0.00    +0.091 A 
ATOM     21  C   UNL     1     -13.504  -3.459  -0.721  0.00  0.00    +0.024 A 
ATOM     22  C   UNL     1     -13.590  -2.078  -0.713  0.00  0.00    +0.021 A 
ATOM     23  C   UNL     1     -12.435  -1.324  -0.618  0.00  0.00    +0.113 A 
ATOM     24  N   UNL     1     -11.250  -1.897  -0.530  0.00  0.00    -0.239 NA
ATOM     25  H   UNL     1      -9.740  -4.735  -0.456  0.00  0.00    +0.148 HD
BRANCH  20  26
ATOM     26  C   UNL     1     -12.092  -5.471  -0.638  0.00  0.00    +0.103 C 
ATOM     27  N   UNL     1     -11.977  -6.602  -0.642  0.00  0.00    -0.191 NA
ENDBRANCH  20  26
ENDBRANCH  17  18
ENDBRANCH  16  17
ENDBRANCH   4  16
TORSDOF 7
