REMARK  Name = ZINC12498377
REMARK  7 active torsions:
REMARK  status: ('A' for Active; 'I' for Inactive)
REMARK    1  A    between atoms: C_1  and  O_2
REMARK    2  A    between atoms: O_2  and  C_3
REMARK    3  A    between atoms: C_3  and  C_5
REMARK    4  A    between atoms: C_5  and  C_33
REMARK    5  A    between atoms: C_10  and  C_12
REMARK    6  A    between atoms: C_15  and  O_18
REMARK    7  A    between atoms: N_21  and  C_24
REMARK                            x       y       z     vdW  Elec       q    Type
REMARK                         _______ _______ _______ _____ _____    ______ ____
ROOT
ATOM      1  C   UNL     1      -1.293  -0.775   0.010  0.00  0.00    +0.070 C 
ATOM      2  C   UNL     1      -1.099  -2.099   0.623  0.00  0.00    +0.090 C 
ATOM      3  C   UNL     1      -1.238  -1.792   2.169  0.00  0.00    +0.078 C 
ATOM      4  C   UNL     1      -2.552  -1.009   2.062  0.00  0.00    -0.026 C 
ATOM      5  C   UNL     1      -1.270  -3.231   2.607  0.00  0.00    +0.229 C 
ATOM      6  O   UNL     1      -1.915  -3.705   3.517  0.00  0.00    -0.275 OA
ATOM      7  N   UNL     1      -0.422  -3.892   1.764  0.00  0.00    -0.210 N 
ATOM      8  C   UNL     1      -0.128  -3.171   0.634  0.00  0.00    +0.229 C 
ATOM      9  O   UNL     1       0.749  -3.385  -0.175  0.00  0.00    -0.275 OA
ATOM     10  N   UNL     1      -2.294  -0.113   0.895  0.00  0.00    +0.398 N 
ATOM     11  H   UNL     1      -3.166   0.042   0.377  0.00  0.00    -0.083 HD
ATOM     12  H   UNL     1      -1.925   0.787   1.223  0.00  0.00    -0.083 HD
ENDROOT
BRANCH   7  13
ATOM     13  C   UNL     1       0.093  -5.171   2.026  0.00  0.00    +0.048 A 
ATOM     14  C   UNL     1       0.946  -5.776   1.113  0.00  0.00    +0.028 A 
ATOM     15  C   UNL     1       1.459  -7.033   1.373  0.00  0.00    +0.051 A 
ATOM     16  C   UNL     1       1.114  -7.697   2.538  0.00  0.00    +0.166 A 
ATOM     17  C   UNL     1       0.254  -7.095   3.454  0.00  0.00    +0.168 A 
ATOM     18  C   UNL     1      -0.254  -5.833   3.196  0.00  0.00    +0.073 A 
ATOM     19  O   UNL     1       0.074  -7.944   4.507  0.00  0.00    -0.453 OA
ATOM     20  C   UNL     1       1.150  -8.897   4.422  0.00  0.00    +0.466 C 
ATOM     21  O   UNL     1       1.472  -8.925   3.019  0.00  0.00    -0.453 OA
ENDBRANCH   7  13
BRANCH   4  22
ATOM     22  C   UNL     1      -2.804  -0.214   3.318  0.00  0.00    -0.060 A 
ATOM     23  C   UNL     1      -2.154   0.990   3.514  0.00  0.00    +0.005 A 
ATOM     24  C   UNL     1      -2.388   1.723   4.662  0.00  0.00    +0.045 A 
ATOM     25  C   UNL     1      -3.266   1.244   5.623  0.00  0.00    +0.117 A 
ATOM     26  C   UNL     1      -3.912   0.032   5.426  0.00  0.00    +0.045 A 
ATOM     27  C   UNL     1      -3.680  -0.694   4.274  0.00  0.00    +0.005 A 
BRANCH  25  28
ATOM     28  O   UNL     1      -3.494   1.961   6.755  0.00  0.00    -0.507 OA
ATOM     29  H   UNL     1      -2.893   1.748   7.482  0.00  0.00    +0.292 HD
ENDBRANCH  25  28
ENDBRANCH   4  22
BRANCH   1  30
ATOM     30  C   UNL     1      -1.830  -0.916  -1.391  0.00  0.00    -0.047 A 
ATOM     31  C   UNL     1      -1.474  -2.008  -2.160  0.00  0.00    +0.003 A 
ATOM     32  C   UNL     1      -1.971  -2.140  -3.444  0.00  0.00    +0.000 A 
ATOM     33  C   UNL     1      -2.814  -1.175  -3.961  0.00  0.00    +0.000 A 
ATOM     34  C   UNL     1      -3.165  -0.080  -3.193  0.00  0.00    +0.000 A 
ATOM     35  C   UNL     1      -2.673   0.049  -1.908  0.00  0.00    +0.003 A 
ENDBRANCH   1  30
BRANCH   1  36
ATOM     36  C   UNL     1       0.002  -0.004   0.002  0.00  0.00    +0.301 C 
ATOM     37  O   UNL     1       1.056  -0.594  -0.011  0.00  0.00    -0.252 OA
BRANCH  36  39
ATOM     38  C   UNL     1       1.268   2.015   0.001  0.00  0.00    +0.280 C 
ATOM     39  O   UNL     1      -0.016   1.338   0.009  0.00  0.00    -0.469 OA
ENDBRANCH  36  39
ENDBRANCH   1  36
TORSDOF 6
