REMARK  Name = ZINC32202576
REMARK  5 active torsions:
REMARK  status: ('A' for Active; 'I' for Inactive)
REMARK    1  A    between atoms: C_3  and  O_8
REMARK    2  A    between atoms: O_8  and  C_9
REMARK    3  A    between atoms: C_9  and  C_11
REMARK    4  A    between atoms: C_9  and  C_13
REMARK    5  A    between atoms: C_11  and  N_12
REMARK                            x       y       z     vdW  Elec       q    Type
REMARK                         _______ _______ _______ _____ _____    ______ ____
ROOT
ATOM      1  C   UNL     1      -3.660  -0.811   0.066  0.00  0.00    +0.186 C 
ENDROOT
BRANCH   1   2
ATOM      2  C   UNL     1      -2.344  -0.086   0.183  0.00  0.00    -0.006 A 
ATOM      3  C   UNL     1      -2.320   1.296   0.238  0.00  0.00    +0.011 A 
ATOM      4  C   UNL     1      -1.115   1.964   0.341  0.00  0.00    +0.050 A 
ATOM      5  C   UNL     1       0.073   1.251   0.396  0.00  0.00    +0.162 A 
ATOM      6  C   UNL     1       0.049  -0.138   0.343  0.00  0.00    +0.162 A 
ATOM      7  C   UNL     1      -1.164  -0.802   0.235  0.00  0.00    +0.056 A 
ATOM      8  O   UNL     1       1.203  -0.857   0.396  0.00  0.00    -0.485 OA
ATOM      9  C   UNL     1       2.416  -0.148   0.126  0.00  0.00    +0.270 C 
ATOM     10  C   UNL     1       2.392   1.166   0.919  0.00  0.00    +0.270 C 
ATOM     11  O   UNL     1       1.252   1.923   0.496  0.00  0.00    -0.485 OA
ENDBRANCH   1   2
BRANCH   1  12
ATOM     12  O   UNL     1      -4.661  -0.103   0.801  0.00  0.00    -0.486 OA
BRANCH  12  15
ATOM     13  C   UNL     1      -7.715  -0.966   2.581  0.00  0.00    +0.005 A 
ATOM     14  C   UNL     1      -6.692  -0.214   2.033  0.00  0.00    +0.046 A 
ATOM     15  C   UNL     1      -5.665  -0.841   1.344  0.00  0.00    +0.123 A 
ATOM     16  C   UNL     1      -5.659  -2.222   1.216  0.00  0.00    +0.065 A 
ATOM     17  C   UNL     1      -6.681  -2.970   1.770  0.00  0.00    +0.044 A 
ATOM     18  C   UNL     1      -7.708  -2.342   2.453  0.00  0.00    +0.020 A 
ATOM     19 CL   UNL     1      -6.676  -4.699   1.611  0.00  0.00    -0.083 Cl
ENDBRANCH  12  15
ENDBRANCH   1  12
BRANCH   1  20
ATOM     20  C   UNL     1      -4.069  -0.891  -1.406  0.00  0.00    -0.036 C 
BRANCH  20  21
ATOM     21  N   UNL     1      -5.352  -1.598  -1.520  0.00  0.00    +0.381 N 
ATOM     22  H   UNL     1      -5.646  -1.655  -2.579  0.00  0.00    -0.090 HD
ATOM     23  H   UNL     1      -6.122  -1.053  -0.955  0.00  0.00    -0.090 HD
ATOM     24  H   UNL     1      -5.248  -2.614  -1.113  0.00  0.00    -0.090 HD
ENDBRANCH  20  21
ENDBRANCH   1  20
TORSDOF 5
