REMARK  Name = ZINC12383064
REMARK  5 active torsions:
REMARK  status: ('A' for Active; 'I' for Inactive)
REMARK    1  A    between atoms: C_1  and  C_2
REMARK    2  A    between atoms: C_2  and  C_3
REMARK    3  A    between atoms: C_2  and  C_4
REMARK    4  A    between atoms: C_7  and  S_10
REMARK    5  A    between atoms: S_10  and  N_13
REMARK                            x       y       z     vdW  Elec       q    Type
REMARK                         _______ _______ _______ _____ _____    ______ ____
ROOT
ATOM      1  S   UNL     1       1.232  -2.441  -0.022  0.00  0.00    +0.074 S 
ATOM      2  O   UNL     1       2.488  -2.833   0.514  0.00  0.00    -0.150 OA
ATOM      3  O   UNL     1      -0.002  -2.866   0.538  0.00  0.00    -0.150 OA
ENDROOT
BRANCH   1   4
ATOM      4  N   UNL     1       1.224  -2.922  -1.607  0.00  0.00    -0.194 N 
ATOM      5  C   UNL     1       2.300  -2.624  -2.428  0.00  0.00    +0.178 A 
ATOM      6  N   UNL     1       3.405  -1.969  -2.139  0.00  0.00    -0.228 NA
ATOM      7  C   UNL     1       4.363  -1.762  -3.041  0.00  0.00    +0.054 A 
ATOM      8  C   UNL     1       4.127  -2.255  -4.283  0.00  0.00    +0.014 A 
ATOM      9  S   UNL     1       2.534  -3.010  -4.106  0.00  0.00    -0.056 S 
ATOM     10  C   UNL     1       5.007  -2.169  -5.484  0.00  0.00    +0.044 C 
ATOM     11  C   UNL     1       6.088  -1.110  -5.214  0.00  0.00    +0.006 C 
ATOM     12  C   UNL     1       6.684  -1.359  -3.825  0.00  0.00    +0.006 C 
ATOM     13  C   UNL     1       5.659  -1.016  -2.744  0.00  0.00    +0.056 C 
ATOM     14  H   UNL     1       0.465  -3.413  -1.960  0.00  0.00    +0.176 HD
ENDBRANCH   1   4
BRANCH   1  18
ATOM     15  C   UNL     1       1.171   2.086   0.002  0.00  0.00    -0.045 A 
ATOM     16  C   UNL     1      -0.017   1.378   0.010  0.00  0.00    +0.006 A 
ATOM     17  C   UNL     1       0.002  -0.004   0.002  0.00  0.00    +0.029 A 
ATOM     18  C   UNL     1       1.208  -0.679  -0.013  0.00  0.00    +0.109 A 
ATOM     19  C   UNL     1       2.396   0.029  -0.022  0.00  0.00    +0.029 A 
ATOM     20  C   UNL     1       2.377   1.411  -0.015  0.00  0.00    +0.006 A 
BRANCH  15  22
ATOM     21  C   UNL     1       1.876   4.106   1.255  0.00  0.00    +0.012 C 
ATOM     22  C   UNL     1       1.151   3.592   0.010  0.00  0.00    +0.013 C 
ATOM     23  C   UNL     1       1.853   4.119  -1.243  0.00  0.00    +0.012 C 
ENDBRANCH  15  22
ENDBRANCH   1  18
TORSDOF 3
