REMARK  Name = ZINC03376144
REMARK  8 active torsions:
REMARK  status: ('A' for Active; 'I' for Inactive)
REMARK    1  A    between atoms: C_1  and  C_2
REMARK    2  A    between atoms: N_11  and  C_15
REMARK    3  A    between atoms: C_15  and  C_16
REMARK    4  A    between atoms: C_16  and  O_18
REMARK    5  A    between atoms: O_18  and  C_19
REMARK    6  A    between atoms: C_19  and  C_21
REMARK    7  A    between atoms: C_19  and  C_22
REMARK    8  A    between atoms: N_24  and  C_25
REMARK                            x       y       z     vdW  Elec       q    Type
REMARK                         _______ _______ _______ _____ _____    ______ ____
ROOT
ATOM      1  C   UNL     1      -3.254  -1.896   2.419  0.00  0.00    +0.326 C 
ATOM      2  O   UNL     1      -2.342  -2.233   1.702  0.00  0.00    -0.249 OA
ENDROOT
BRANCH   1   3
ATOM      3  C   UNL     1      -3.293  -0.499   2.981  0.00  0.00    +0.238 C 
BRANCH   3  13
ATOM      4  C   UNL     1      -1.512   3.545   2.585  0.00  0.00    +0.010 C 
ATOM      5  C   UNL     1      -0.758   3.084   1.336  0.00  0.00    +0.018 C 
ATOM      6  C   UNL     1      -1.485   3.588   0.087  0.00  0.00    +0.006 C 
ATOM      7  C   UNL     1      -0.741   3.110  -1.162  0.00  0.00    +0.000 C 
ATOM      8  C   UNL     1      -0.709   1.580  -1.184  0.00  0.00    +0.003 C 
ATOM      9  C   UNL     1       0.021   1.069   0.061  0.00  0.00    +0.035 C 
ATOM     10  C   UNL     1      -0.700   1.561   1.311  0.00  0.00    +0.115 C 
ATOM     11  C   UNL     1      -2.093   0.979   1.379  0.00  0.00    +0.247 C 
ATOM     12  O   UNL     1      -2.994   1.135   0.583  0.00  0.00    -0.273 OA
ATOM     13  N   UNL     1      -2.123   0.249   2.514  0.00  0.00    -0.213 N 
ATOM     14  C   UNL     1      -0.952   0.293   3.160  0.00  0.00    +0.310 C 
ATOM     15  O   UNL     1      -0.735  -0.286   4.206  0.00  0.00    -0.252 OA
ATOM     16  N   UNL     1      -0.041   1.051   2.520  0.00  0.00    -0.285 N 
ATOM     17  H   UNL     1       0.871   1.225   2.802  0.00  0.00    +0.151 HD
ENDBRANCH   3  13
ENDBRANCH   1   3
BRANCH   1  18
ATOM     18  O   UNL     1      -4.232  -2.767   2.715  0.00  0.00    -0.451 OA
BRANCH  18  19
ATOM     19  C   UNL     1      -4.128  -4.095   2.138  0.00  0.00    +0.259 C 
ATOM     20  C   UNL     1      -3.349  -5.005   3.090  0.00  0.00    +0.062 C 
BRANCH  19  21
ATOM     21  C   UNL     1      -5.510  -4.659   1.924  0.00  0.00    +0.258 C 
ATOM     22  O   UNL     1      -6.485  -4.005   2.227  0.00  0.00    -0.271 OA
ATOM     23  N   UNL     1      -5.661  -5.889   1.395  0.00  0.00    -0.281 N 
ATOM     24  H   UNL     1      -4.886  -6.380   1.079  0.00  0.00    +0.155 HD
BRANCH  23  25
ATOM     25  C   UNL     1      -6.937  -6.460   1.303  0.00  0.00    +0.052 A 
ATOM     26  C   UNL     1      -7.944  -6.054   2.168  0.00  0.00    +0.026 A 
ATOM     27  C   UNL     1      -9.201  -6.618   2.075  0.00  0.00    +0.022 A 
ATOM     28  C   UNL     1      -9.458  -7.587   1.121  0.00  0.00    +0.042 A 
ATOM     29  C   UNL     1      -8.456  -7.994   0.258  0.00  0.00    +0.041 A 
ATOM     30  C   UNL     1      -7.198  -7.429   0.342  0.00  0.00    +0.064 A 
ATOM     31 CL   UNL     1      -5.943  -7.934  -0.746  0.00  0.00    -0.082 Cl
ATOM     32 CL   UNL     1     -11.040  -8.294   1.008  0.00  0.00    -0.083 Cl
ENDBRANCH  23  25
ENDBRANCH  19  21
ENDBRANCH  18  19
ENDBRANCH   1  18
TORSDOF 6
