REMARK  Name = ZINC38701339
REMARK  9 active torsions:
REMARK  status: ('A' for Active; 'I' for Inactive)
REMARK    1  A    between atoms: C_1  and  C_2
REMARK    2  A    between atoms: C_2  and  O_3
REMARK    3  A    between atoms: O_3  and  C_4
REMARK    4  A    between atoms: C_7  and  C_10
REMARK    5  A    between atoms: C_15  and  O_24
REMARK    6  A    between atoms: C_19  and  N_23
REMARK    7  A    between atoms: C_20  and  C_21
REMARK    8  A    between atoms: O_24  and  C_25
REMARK    9  A    between atoms: C_25  and  C_27
REMARK                            x       y       z     vdW  Elec       q    Type
REMARK                         _______ _______ _______ _____ _____    ______ ____
ROOT
ATOM      1  C   UNL     1       1.120  -6.005  -1.793  0.00  0.00    +0.098 C 
ATOM      2  C   UNL     1       2.572  -6.398  -1.860  0.00  0.00    +0.008 A 
ATOM      3  C   UNL     1       3.342  -6.356  -0.711  0.00  0.00    +0.012 A 
ATOM      4  C   UNL     1       4.675  -6.714  -0.754  0.00  0.00    +0.047 A 
ATOM      5  C   UNL     1       5.247  -7.117  -1.953  0.00  0.00    +0.135 A 
ATOM      6  C   UNL     1       4.479  -7.160  -3.104  0.00  0.00    +0.093 A 
ATOM      7  C   UNL     1       3.138  -6.800  -3.060  0.00  0.00    +0.138 A 
ATOM      8  O   UNL     1       2.400  -6.847  -4.196  0.00  0.00    -0.441 OA
ATOM      9  C   UNL     1       1.059  -6.886  -4.122  0.00  0.00    +0.199 C 
ATOM     10  C   UNL     1       0.394  -6.500  -3.011  0.00  0.00    +0.098 C 
ENDROOT
BRANCH   1  14
ATOM     11  C   UNL     1       0.815  -1.747  -1.595  0.00  0.00    +0.121 A 
ATOM     12  C   UNL     1       0.308  -2.528  -0.567  0.00  0.00    +0.046 A 
ATOM     13  C   UNL     1       0.407  -3.905  -0.634  0.00  0.00    +0.008 A 
ATOM     14  C   UNL     1       1.012  -4.503  -1.723  0.00  0.00    -0.034 A 
ATOM     15  C   UNL     1       1.519  -3.727  -2.749  0.00  0.00    +0.008 A 
ATOM     16  C   UNL     1       1.417  -2.351  -2.690  0.00  0.00    +0.046 A 
BRANCH  11  17
ATOM     17  O   UNL     1       0.718  -0.393  -1.533  0.00  0.00    -0.492 OA
BRANCH  17  19
ATOM     18  C   UNL     1       0.070   1.685  -0.484  0.00  0.00    +0.048 C 
ATOM     19  C   UNL     1       0.086   0.159  -0.376  0.00  0.00    +0.225 C 
ENDBRANCH  17  19
ENDBRANCH  11  17
ENDBRANCH   1  14
BRANCH   9  20
ATOM     20  N   UNL     1       0.345  -7.330  -5.208  0.00  0.00    -0.328 N 
ATOM     21  H   UNL     1       0.809  -7.609  -6.012  0.00  0.00    +0.145 HD
ATOM     22  H   UNL     1      -0.624  -7.364  -5.170  0.00  0.00    +0.145 HD
ENDBRANCH   9  20
BRANCH  10  23
ATOM     23  C   UNL     1      -1.037  -6.566  -2.998  0.00  0.00    +0.101 C 
ATOM     24  N   UNL     1      -2.171  -6.617  -2.987  0.00  0.00    -0.191 NA
ENDBRANCH  10  23
BRANCH   5  25
ATOM     25  O   UNL     1       6.559  -7.469  -1.996  0.00  0.00    -0.422 OA
BRANCH  25  26
ATOM     26  C   UNL     1       6.930  -8.611  -1.381  0.00  0.00    +0.353 C 
ATOM     27  O   UNL     1       6.086  -9.343  -0.900  0.00  0.00    -0.244 OA
BRANCH  26  28
ATOM     28  C   UNL     1       8.349  -8.968  -1.292  0.00  0.00    +0.116 A 
ATOM     29  C   UNL     1       8.912 -10.069  -0.721  0.00  0.00    +0.070 A 
ATOM     30  C   UNL     1      10.310 -10.230  -0.740  0.00  0.00    +0.008 A 
ATOM     31  C   UNL     1      11.079 -11.296  -0.204  0.00  0.00    +0.010 A 
ATOM     32  C   UNL     1      12.432 -11.296  -0.308  0.00  0.00    +0.001 A 
ATOM     33  C   UNL     1      13.116 -10.263  -0.938  0.00  0.00    +0.001 A 
ATOM     34  C   UNL     1      12.407  -9.207  -1.473  0.00  0.00    +0.016 A 
ATOM     35  C   UNL     1      11.032  -9.192  -1.375  0.00  0.00    +0.022 A 
ATOM     36  S   UNL     1       9.762  -8.072  -1.910  0.00  0.00    -0.080 S 
ATOM     37 CL   UNL     1       7.908 -11.271   0.028  0.00  0.00    -0.082 Cl
ENDBRANCH  26  28
ENDBRANCH  25  26
ENDBRANCH   5  25
TORSDOF 8
