REMARK  Name = ZINC28746775
REMARK  7 active torsions:
REMARK  status: ('A' for Active; 'I' for Inactive)
REMARK    1  A    between atoms: C_1  and  C_2
REMARK    2  A    between atoms: C_5  and  C_8
REMARK    3  A    between atoms: C_8  and  C_9
REMARK    4  A    between atoms: C_9  and  C_10
REMARK    5  A    between atoms: N_13  and  C_16
REMARK    6  A    between atoms: C_16  and  N_17
REMARK    7  A    between atoms: C_23  and  C_26
REMARK                            x       y       z     vdW  Elec       q    Type
REMARK                         _______ _______ _______ _____ _____    ______ ____
ROOT
ATOM      1  C   UNL     1       1.528  -6.296  -0.041  0.00  0.00    -0.014 C 
ATOM      2  C   UNL     1       0.941  -6.823   1.272  0.00  0.00    -0.015 C 
ATOM      3  C   UNL     1       1.037  -8.351   1.290  0.00  0.00    -0.076 C 
ATOM      4  N   UNL     1       2.443  -8.758   1.183  0.00  0.00    +0.390 N 
ATOM      5  C   UNL     1       2.992  -8.318  -0.105  0.00  0.00    -0.076 C 
ATOM      6  C   UNL     1       2.972  -6.789  -0.177  0.00  0.00    -0.015 C 
ATOM      7  H   UNL     1       2.972  -8.339   1.934  0.00  0.00    -0.079 HD
ENDROOT
BRANCH   1   8
ATOM      8  C   UNL     1       1.508  -4.767  -0.032  0.00  0.00    +0.008 C 
BRANCH   8   9
ATOM      9  C   UNL     1       0.059  -4.275  -0.021  0.00  0.00    +0.035 C 
BRANCH   9  14
ATOM     10  C   UNL     1      -0.018   1.503   0.010  0.00  0.00    +0.044 C 
ATOM     11  C   UNL     1       0.002  -0.004   0.002  0.00  0.00    -0.050 A 
ATOM     12  C   UNL     1       0.006  -0.689  -1.199  0.00  0.00    +0.003 A 
ATOM     13  C   UNL     1       0.025  -2.071  -1.206  0.00  0.00    +0.004 A 
ATOM     14  C   UNL     1       0.040  -2.768  -0.013  0.00  0.00    -0.047 A 
ATOM     15  C   UNL     1       0.037  -2.084   1.188  0.00  0.00    +0.004 A 
ATOM     16  C   UNL     1       0.023  -0.702   1.195  0.00  0.00    +0.003 A 
ENDBRANCH   9  14
ENDBRANCH   8   9
ENDBRANCH   1   8
BRANCH   4  17
ATOM     17  C   UNL     1       2.536 -10.220   1.280  0.00  0.00    +0.043 C 
BRANCH  17  18
ATOM     18  N   UNL     1       3.946 -10.620   1.293  0.00  0.00    -0.241 N 
ATOM     19  C   UNL     1       4.666 -10.896   0.186  0.00  0.00    +0.245 C 
ATOM     20  O   UNL     1       4.286 -10.862  -0.965  0.00  0.00    -0.273 OA
ATOM     21  C   UNL     1       6.048 -11.256   0.682  0.00  0.00    +0.112 C 
ATOM     22  C   UNL     1       7.081 -10.278   0.135  0.00  0.00    +0.035 C 
ATOM     23  C   UNL     1       8.467 -10.641   0.673  0.00  0.00    +0.006 C 
ATOM     24  C   UNL     1       8.818 -12.070   0.252  0.00  0.00    -0.014 C 
ATOM     25  C   UNL     1       7.786 -13.041   0.828  0.00  0.00    +0.006 C 
ATOM     26  C   UNL     1       6.397 -12.687   0.290  0.00  0.00    +0.035 C 
ATOM     27  C   UNL     1      10.208 -12.430   0.780  0.00  0.00    +0.007 C 
ATOM     28  N   UNL     1       5.945 -11.132   2.142  0.00  0.00    -0.285 N 
ATOM     29  C   UNL     1       4.680 -10.751   2.404  0.00  0.00    +0.308 C 
ATOM     30  O   UNL     1       4.253 -10.552   3.524  0.00  0.00    -0.252 OA
ATOM     31  H   UNL     1       6.650 -11.291   2.789  0.00  0.00    +0.151 HD
ENDBRANCH  17  18
ENDBRANCH   4  17
TORSDOF 5
