REMARK  Name = ZINC08845790
REMARK  7 active torsions:
REMARK  status: ('A' for Active; 'I' for Inactive)
REMARK    1  A    between atoms: C_1  and  C_2
REMARK    2  A    between atoms: C_2  and  N_3
REMARK    3  A    between atoms: C_4  and  C_6
REMARK    4  A    between atoms: C_10  and  N_11
REMARK    5  A    between atoms: C_12  and  C_14
REMARK    6  A    between atoms: C_16  and  C_20
REMARK    7  A    between atoms: C_25  and  O_26
REMARK                            x       y       z     vdW  Elec       q    Type
REMARK                         _______ _______ _______ _____ _____    ______ ____
ROOT
ATOM      1  N   UNL     1      -3.171  -2.442   2.499  0.00  0.00    -0.274 N 
ATOM      2  C   UNL     1      -3.963  -2.743   3.547  0.00  0.00    +0.266 C 
ATOM      3  O   UNL     1      -5.090  -3.158   3.358  0.00  0.00    -0.268 OA
ATOM      4  H   UNL     1      -2.272  -2.111   2.650  0.00  0.00    +0.156 HD
ENDROOT
BRANCH   1   9
ATOM      5  C   UNL     1      -2.976  -2.347   0.018  0.00  0.00    +0.069 A 
ATOM      6  C   UNL     1      -3.696  -2.607  -1.216  0.00  0.00    -0.023 A 
ATOM      7  C   UNL     1      -4.951  -3.071  -1.036  0.00  0.00    -0.004 A 
ATOM      8  S   UNL     1      -5.152  -3.154   0.719  0.00  0.00    -0.077 S 
ATOM      9  C   UNL     1      -3.642  -2.604   1.206  0.00  0.00    +0.085 A 
ATOM     10  C   UNL     1      -5.939  -3.430  -2.103  0.00  0.00    +0.043 C 
ATOM     11  C   UNL     1      -5.450  -2.837  -3.433  0.00  0.00    +0.005 C 
ATOM     12  C   UNL     1      -3.969  -3.180  -3.614  0.00  0.00    +0.005 C 
ATOM     13  C   UNL     1      -3.125  -2.392  -2.610  0.00  0.00    +0.037 C 
BRANCH   5  15
ATOM     14  N   UNL     1      -1.372  -0.511   0.012  0.00  0.00    -0.312 N 
ATOM     15  C   UNL     1      -1.601  -1.839   0.007  0.00  0.00    +0.247 C 
ATOM     16  O   UNL     1      -0.665  -2.618  -0.006  0.00  0.00    -0.270 OA
ATOM     17  H   UNL     1      -2.118   0.109   0.023  0.00  0.00    +0.149 HD
BRANCH  14  19
ATOM     18  C   UNL     1      -0.019   1.526   0.010  0.00  0.00    +0.024 C 
ATOM     19  C   UNL     1       0.002  -0.004   0.002  0.00  0.00    +0.101 C 
ENDBRANCH  14  19
ENDBRANCH   5  15
ENDBRANCH   1   9
BRANCH   2  20
ATOM     20  C   UNL     1      -3.462  -2.571   4.920  0.00  0.00    +0.121 A 
ATOM     21  C   UNL     1      -4.147  -2.841   6.090  0.00  0.00    +0.062 A 
ATOM     22  C   UNL     1      -3.252  -2.518   7.127  0.00  0.00    +0.097 A 
ATOM     23  N   UNL     1      -2.137  -2.094   6.571  0.00  0.00    -0.173 NA
ATOM     24  N   UNL     1      -2.227  -2.119   5.290  0.00  0.00    -0.272 N 
ATOM     25  H   UNL     1      -1.524  -1.854   4.677  0.00  0.00    +0.189 HD
BRANCH  22  26
ATOM     26  C   UNL     1      -3.518  -2.633   8.582  0.00  0.00    +0.045 A 
ATOM     27  C   UNL     1      -4.749  -3.104   9.033  0.00  0.00    +0.033 A 
ATOM     28  C   UNL     1      -4.991  -3.210  10.389  0.00  0.00    +0.042 A 
ATOM     29  C   UNL     1      -4.015  -2.848  11.302  0.00  0.00    +0.023 A 
ATOM     30  C   UNL     1      -2.791  -2.379  10.863  0.00  0.00    +0.047 A 
ATOM     31  C   UNL     1      -2.533  -2.275   9.506  0.00  0.00    +0.126 A 
ATOM     32 CL   UNL     1      -6.525  -3.797  10.950  0.00  0.00    -0.084 Cl
BRANCH  31  33
ATOM     33  O   UNL     1      -1.327  -1.820   9.075  0.00  0.00    -0.506 OA
ATOM     34  H   UNL     1      -1.288  -0.861   8.959  0.00  0.00    +0.292 HD
ENDBRANCH  31  33
ENDBRANCH  22  26
ENDBRANCH   2  20
TORSDOF 6
