REMARK  Name = ZINC08503454
REMARK  12 active torsions:
REMARK  status: ('A' for Active; 'I' for Inactive)
REMARK    1  A    between atoms: C_1  and  C_2
REMARK    2  A    between atoms: C_2  and  C_21
REMARK    3  A    between atoms: N_5  and  C_9
REMARK    4  A    between atoms: C_9  and  C_10
REMARK    5  A    between atoms: N_12  and  C_13
REMARK    6  A    between atoms: C_13  and  C_14
REMARK    7  A    between atoms: C_13  and  C_15
REMARK    8  A    between atoms: C_13  and  C_16
REMARK    9  A    between atoms: C_16  and  C_17
REMARK   10  A    between atoms: C_17  and  C_18
REMARK   11  A    between atoms: C_17  and  C_19
REMARK   12  A    between atoms: C_17  and  C_20
REMARK                            x       y       z     vdW  Elec       q    Type
REMARK                         _______ _______ _______ _____ _____    ______ ____
ROOT
ATOM      1  C   UNL     1      -4.106   0.630  -3.037  0.00  0.00    +0.047 C 
ATOM      2  C   UNL     1      -3.554  -0.775  -2.783  0.00  0.00    +0.135 C 
ATOM      3  C   UNL     1      -4.577  -1.626  -2.057  0.00  0.00    +0.251 C 
ATOM      4  O   UNL     1      -5.680  -1.940  -2.450  0.00  0.00    -0.272 OA
ATOM      5  N   UNL     1      -4.005  -1.961  -0.884  0.00  0.00    -0.215 N 
ATOM      6  C   UNL     1      -2.776  -1.445  -0.769  0.00  0.00    +0.310 C 
ATOM      7  O   UNL     1      -2.062  -1.610   0.201  0.00  0.00    -0.252 OA
ATOM      8  N   UNL     1      -2.418  -0.724  -1.847  0.00  0.00    -0.281 N 
ATOM      9  H   UNL     1      -1.576  -0.262  -1.982  0.00  0.00    +0.152 HD
ENDROOT
BRANCH   2  10
ATOM     10  C   UNL     1      -3.144  -1.424  -4.080  0.00  0.00    -0.015 A 
ATOM     11  C   UNL     1      -4.071  -2.187  -4.789  0.00  0.00    +0.007 A 
ATOM     12  C   UNL     1      -3.733  -2.787  -5.963  0.00  0.00    +0.009 A 
ATOM     13  C   UNL     1      -2.431  -2.636  -6.471  0.00  0.00    -0.018 A 
ATOM     14  C   UNL     1      -2.046  -3.240  -7.680  0.00  0.00    +0.008 A 
ATOM     15  C   UNL     1      -0.776  -3.072  -8.142  0.00  0.00    +0.001 A 
ATOM     16  C   UNL     1       0.150  -2.309  -7.433  0.00  0.00    +0.001 A 
ATOM     17  C   UNL     1      -0.188  -1.709  -6.259  0.00  0.00    +0.008 A 
ATOM     18  C   UNL     1      -1.490  -1.860  -5.751  0.00  0.00    -0.018 A 
ATOM     19  C   UNL     1      -1.877  -1.252  -4.544  0.00  0.00    +0.014 A 
ENDBRANCH   2  10
BRANCH   5  20
ATOM     20  C   UNL     1      -4.650  -2.787   0.140  0.00  0.00    +0.213 C 
BRANCH  20  21
ATOM     21  C   UNL     1      -4.326  -4.238  -0.108  0.00  0.00    +0.231 C 
ATOM     22  O   UNL     1      -3.626  -4.551  -1.048  0.00  0.00    -0.274 OA
ATOM     23  N   UNL     1      -4.815  -5.188   0.714  0.00  0.00    -0.309 N 
ATOM     24  H   UNL     1      -5.375  -4.937   1.465  0.00  0.00    +0.149 HD
BRANCH  23  25
ATOM     25  C   UNL     1      -4.500  -6.598   0.473  0.00  0.00    +0.029 C 
ATOM     26  C   UNL     1      -4.938  -6.984  -0.942  0.00  0.00    +0.031 C 
ATOM     27  C   UNL     1      -2.993  -6.816   0.617  0.00  0.00    +0.031 C 
BRANCH  25  28
ATOM     28  C   UNL     1      -5.241  -7.467   1.491  0.00  0.00    +0.031 C 
BRANCH  28  29
ATOM     29  C   UNL     1      -4.667  -7.218   2.887  0.00  0.00    -0.036 C 
ATOM     30  C   UNL     1      -4.648  -5.715   3.170  0.00  0.00    +0.010 C 
ATOM     31  C   UNL     1      -5.538  -7.923   3.929  0.00  0.00    +0.010 C 
ATOM     32  C   UNL     1      -3.242  -7.769   2.958  0.00  0.00    +0.010 C 
ENDBRANCH  28  29
ENDBRANCH  25  28
ENDBRANCH  23  25
ENDBRANCH  20  21
ENDBRANCH   5  20
TORSDOF 6
