REMARK  Name = ZINC04703511
REMARK  4 active torsions:
REMARK  status: ('A' for Active; 'I' for Inactive)
REMARK    1  A    between atoms: C_9  and  O_24
REMARK    2  A    between atoms: C_10  and  C_11
REMARK    3  A    between atoms: N_12  and  N_13
REMARK    4  A    between atoms: C_17  and  C_20
REMARK                            x       y       z     vdW  Elec       q    Type
REMARK                         _______ _______ _______ _____ _____    ______ ____
ROOT
ATOM      1  C   UNL     1       4.982   0.093  -0.046  0.00  0.00    +0.142 C 
ATOM      2  N   UNL     1       6.110  -0.555  -0.060  0.00  0.00    -0.189 NA
ENDROOT
BRANCH   1  12
ATOM      3  C   UNL     1      -0.016   1.357   0.009  0.00  0.00    +0.001 A 
ATOM      4  C   UNL     1       1.168   2.091   0.002  0.00  0.00    +0.001 A 
ATOM      5  C   UNL     1       2.379   1.466  -0.013  0.00  0.00    +0.009 A 
ATOM      6  C   UNL     1       2.435   0.067  -0.021  0.00  0.00    -0.006 A 
ATOM      7  C   UNL     1       1.233  -0.683  -0.013  0.00  0.00    -0.017 A 
ATOM      8  C   UNL     1       0.002  -0.004   0.002  0.00  0.00    +0.008 A 
ATOM      9  C   UNL     1       1.292  -2.087  -0.021  0.00  0.00    +0.012 A 
ATOM     10  C   UNL     1       2.488  -2.733  -0.036  0.00  0.00    +0.046 A 
ATOM     11  C   UNL     1       3.697  -2.040  -0.044  0.00  0.00    +0.126 A 
ATOM     12  C   UNL     1       3.711  -0.645  -0.037  0.00  0.00    +0.044 A 
BRANCH  11  13
ATOM     13  O   UNL     1       4.868  -2.727  -0.059  0.00  0.00    -0.506 OA
ATOM     14  H   UNL     1       5.199  -2.921  -0.946  0.00  0.00    +0.292 HD
ENDBRANCH  11  13
ENDBRANCH   1  12
BRANCH   2  15
ATOM     15  N   UNL     1       7.321   0.149  -0.069  0.00  0.00    -0.221 N 
ATOM     16  C   UNL     1       8.526  -0.543  -0.084  0.00  0.00    +0.138 A 
ATOM     17  C   UNL     1       9.726   0.162  -0.087  0.00  0.00    +0.045 A 
ATOM     18  C   UNL     1      10.918  -0.540  -0.102  0.00  0.00    +0.017 A 
ATOM     19  C   UNL     1      10.870  -1.928  -0.113  0.00  0.00    +0.073 A 
ATOM     20  C   UNL     1       9.643  -2.563  -0.110  0.00  0.00    +0.125 A 
ATOM     21  N   UNL     1       8.522  -1.868  -0.090  0.00  0.00    -0.238 NA
ATOM     22  H   UNL     1       7.319   1.119  -0.065  0.00  0.00    +0.176 HD
BRANCH  19  23
ATOM     23  C   UNL     1      12.143  -2.734  -0.130  0.00  0.00    +0.419 C 
ATOM     24  F   UNL     1      12.547  -2.994   1.184  0.00  0.00    -0.166 F 
ATOM     25  F   UNL     1      11.922  -3.943  -0.798  0.00  0.00    -0.166 F 
ATOM     26  F   UNL     1      13.143  -2.012  -0.791  0.00  0.00    -0.166 F 
ENDBRANCH  19  23
ENDBRANCH   2  15
TORSDOF 4
