REMARK  Name = ZINC00194911
REMARK  8 active torsions:
REMARK  status: ('A' for Active; 'I' for Inactive)
REMARK    1  A    between atoms: C_1  and  C_2
REMARK    2  A    between atoms: C_5  and  C_7
REMARK    3  A    between atoms: C_12  and  C_16
REMARK    4  A    between atoms: C_12  and  C_17
REMARK    5  A    between atoms: C_19  and  C_25
REMARK    6  A    between atoms: C_20  and  C_21
REMARK    7  A    between atoms: C_21  and  O_23
REMARK    8  A    between atoms: O_23  and  C_24
REMARK                            x       y       z     vdW  Elec       q    Type
REMARK                         _______ _______ _______ _____ _____    ______ ____
ROOT
ATOM      1  C   UNL     1       1.684  -3.245  -0.023  0.00  0.00    +0.128 C 
ATOM      2  C   UNL     1       2.543  -3.203   1.216  0.00  0.00    +0.027 C 
ATOM      3  C   UNL     1       3.861  -3.483   1.151  0.00  0.00    +0.016 C 
ATOM      4  C   UNL     1       4.724  -3.455   2.389  0.00  0.00    +0.058 C 
ATOM      5  C   UNL     1       4.177  -2.419   3.373  0.00  0.00    -0.023 C 
ATOM      6  C   UNL     1       2.728  -2.786   3.711  0.00  0.00    +0.086 C 
ATOM      7  C   UNL     1       1.933  -2.862   2.436  0.00  0.00    +0.162 C 
ATOM      8  O   UNL     1       0.742  -2.624   2.462  0.00  0.00    -0.292 OA
ATOM      9  C   UNL     1       5.021  -2.427   4.649  0.00  0.00    +0.011 C 
ATOM     10  C   UNL     1       4.219  -1.030   2.733  0.00  0.00    +0.011 C 
ATOM     11  N   UNL     1       4.447  -3.799  -0.046  0.00  0.00    -0.321 N 
ATOM     12  C   UNL     1       3.841  -3.467  -1.226  0.00  0.00    +0.016 C 
ATOM     13  C   UNL     1       2.527  -3.191  -1.263  0.00  0.00    +0.068 C 
ATOM     14  C   UNL     1       4.654  -3.410  -2.494  0.00  0.00    +0.061 C 
ATOM     15  H   UNL     1       5.299  -4.261  -0.057  0.00  0.00    +0.152 HD
ENDROOT
BRANCH   1  20
ATOM     16  C   UNL     1      -0.018   1.503   0.010  0.00  0.00    +0.086 C 
ATOM     17  C   UNL     1       0.002  -0.004   0.002  0.00  0.00    +0.102 A 
ATOM     18  C   UNL     1      -1.078  -0.805   0.003  0.00  0.00    +0.044 A 
ATOM     19  C   UNL     1      -0.601  -2.136  -0.007  0.00  0.00    +0.046 A 
ATOM     20  C   UNL     1       0.742  -2.069  -0.013  0.00  0.00    +0.117 A 
ATOM     21  O   UNL     1       1.102  -0.775  -0.013  0.00  0.00    -0.464 OA
ENDBRANCH   1  20
BRANCH  13  22
ATOM     22  C   UNL     1       1.927  -2.843  -2.495  0.00  0.00    +0.337 C 
ATOM     23  O   UNL     1       2.600  -2.795  -3.508  0.00  0.00    -0.245 OA
BRANCH  22  24
ATOM     24  O   UNL     1       0.608  -2.563  -2.548  0.00  0.00    -0.465 OA
ATOM     25  C   UNL     1       0.068  -2.220  -3.826  0.00  0.00    +0.280 C 
ENDBRANCH  22  24
ENDBRANCH  13  22
TORSDOF 3
