REMARK  Name = ZINC17219446
REMARK  8 active torsions:
REMARK  status: ('A' for Active; 'I' for Inactive)
REMARK    1  A    between atoms: C_1  and  C_2
REMARK    2  A    between atoms: C_2  and  O_4
REMARK    3  A    between atoms: O_4  and  C_5
REMARK    4  A    between atoms: C_9  and  C_35
REMARK    5  A    between atoms: C_14  and  C_34
REMARK    6  A    between atoms: C_15  and  C_27
REMARK    7  A    between atoms: C_29  and  O_32
REMARK    8  A    between atoms: O_32  and  C_33
REMARK                            x       y       z     vdW  Elec       q    Type
REMARK                         _______ _______ _______ _____ _____    ______ ____
ROOT
ATOM      1  C   UNL     1      -3.060   1.321   1.610  0.00  0.00    +0.180 C 
ATOM      2  C   UNL     1      -3.309   2.826   1.552  0.00  0.00    +0.046 C 
ATOM      3  C   UNL     1      -2.016   3.603   1.336  0.00  0.00    +0.015 C 
ATOM      4  C   UNL     1      -1.333   3.172   0.023  0.00  0.00    -0.008 C 
ATOM      5  C   UNL     1      -0.044   3.939  -0.136  0.00  0.00    +0.003 C 
ATOM      6  C   UNL     1      -0.196   5.279  -0.838  0.00  0.00    +0.005 C 
ATOM      7  C   UNL     1      -0.098   5.205  -2.349  0.00  0.00    +0.008 C 
ATOM      8  C   UNL     1       1.124   4.456  -2.857  0.00  0.00    -0.020 C 
ATOM      9  C   UNL     1       0.852   4.015  -4.322  0.00  0.00    +0.051 C 
ATOM     10  C   UNL     1      -0.055   2.777  -4.176  0.00  0.00    +0.011 C 
ATOM     11  C   UNL     1       0.349   2.118  -2.838  0.00  0.00    +0.005 C 
ATOM     12  C   UNL     1       1.296   3.103  -2.148  0.00  0.00    -0.001 C 
ATOM     13  C   UNL     1       1.150   3.176  -0.655  0.00  0.00    +0.000 C 
ATOM     14  C   UNL     1       1.295   1.807  -0.001  0.00  0.00    +0.031 C 
ATOM     15  C   UNL     1      -0.013   1.077   0.008  0.00  0.00    -0.027 C 
ATOM     16  C   UNL     1      -1.158   1.681   0.086  0.00  0.00    -0.064 C 
ATOM     17  C   UNL     1      -2.404   0.841   0.312  0.00  0.00    +0.075 C 
ATOM     18  C   UNL     1       2.395   5.307  -2.765  0.00  0.00    +0.012 C 
ATOM     19  C   UNL     1      -2.307   3.487  -1.110  0.00  0.00    +0.016 C 
ENDROOT
BRANCH   9  20
ATOM     20  C   UNL     1       0.173   5.096  -5.123  0.00  0.00    +0.086 A 
ATOM     21  N   UNL     1       0.570   5.670  -6.236  0.00  0.00    -0.210 NA
ATOM     22  C   UNL     1      -0.149   6.607  -6.820  0.00  0.00    +0.222 A 
ATOM     23  C   UNL     1      -1.319   6.981  -6.234  0.00  0.00    +0.114 A 
ATOM     24  S   UNL     1      -1.329   5.906  -4.806  0.00  0.00    -0.076 S 
BRANCH  22  25
ATOM     25  O   UNL     1       0.270   7.190  -7.977  0.00  0.00    -0.479 OA
ATOM     26  C   UNL     1       1.511   6.735  -8.520  0.00  0.00    +0.279 C 
ENDBRANCH  22  25
ENDBRANCH   9  20
BRANCH   1  27
ATOM     27  O   UNL     1      -2.193   1.012   2.733  0.00  0.00    -0.461 OA
BRANCH  27  29
ATOM     28  C   UNL     1      -1.485  -0.580   4.482  0.00  0.00    +0.136 C 
ATOM     29  C   UNL     1      -2.350  -0.189   3.311  0.00  0.00    +0.304 C 
ATOM     30  O   UNL     1      -3.184  -0.956   2.893  0.00  0.00    -0.251 OA
ENDBRANCH  27  29
ENDBRANCH   1  27
TORSDOF 4
