REMARK  Name = ZINC13978795
REMARK  11 active torsions:
REMARK  status: ('A' for Active; 'I' for Inactive)
REMARK    1  A    between atoms: C_1  and  O_2
REMARK    2  A    between atoms: O_2  and  C_3
REMARK    3  A    between atoms: C_6  and  O_9
REMARK    4  A    between atoms: O_9  and  C_10
REMARK    5  A    between atoms: C_10  and  C_11
REMARK    6  A    between atoms: N_13  and  C_14
REMARK    7  A    between atoms: C_14  and  N_16
REMARK    8  A    between atoms: N_16  and  N_17
REMARK    9  A    between atoms: C_18  and  C_20
REMARK   10  A    between atoms: C_20  and  O_21
REMARK   11  A    between atoms: O_21  and  C_22
REMARK                            x       y       z     vdW  Elec       q    Type
REMARK                         _______ _______ _______ _____ _____    ______ ____
ROOT
ATOM      1  N   UNL     1       2.955  11.678   0.032  0.00  0.00    -0.245 N 
ATOM      2  H   UNL     1       2.054  12.037   0.042  0.00  0.00    +0.172 HD
ENDROOT
BRANCH   1   3
ATOM      3  N   UNL     1       3.156  10.292   0.023  0.00  0.00    -0.232 N 
ATOM      4  C   UNL     1       2.098   9.457   0.029  0.00  0.00    +0.267 C 
ATOM      5  O   UNL     1       0.972   9.906   0.042  0.00  0.00    -0.271 OA
ATOM      6  H   UNL     1       4.057   9.933   0.012  0.00  0.00    +0.173 HD
BRANCH   4   7
ATOM      7  C   UNL     1       2.315   7.966   0.019  0.00  0.00    +0.326 C 
BRANCH   7   8
ATOM      8  O   UNL     1       1.050   7.301   0.028  0.00  0.00    -0.483 OA
BRANCH   8   9
ATOM      9  C   UNL     1       1.067   5.942   0.021  0.00  0.00    +0.122 A 
ATOM     10  C   UNL     1       2.292   5.268   0.006  0.00  0.00    +0.046 A 
ATOM     11  C   UNL     1       2.342   3.909  -0.000  0.00  0.00    +0.012 A 
ATOM     12  C   UNL     1       1.148   3.167   0.008  0.00  0.00    -0.018 A 
ATOM     13  C   UNL     1       1.163   1.762   0.000  0.00  0.00    +0.008 A 
ATOM     14  C   UNL     1      -0.013   1.076   0.008  0.00  0.00    +0.001 A 
ATOM     15  C   UNL     1      -1.235   1.746   0.017  0.00  0.00    +0.001 A 
ATOM     16  C   UNL     1      -1.288   3.105   0.030  0.00  0.00    +0.008 A 
ATOM     17  C   UNL     1      -0.095   3.849   0.023  0.00  0.00    -0.014 A 
ATOM     18  C   UNL     1      -0.112   5.253   0.029  0.00  0.00    +0.054 A 
ENDBRANCH   8   9
ENDBRANCH   7   8
ENDBRANCH   4   7
ENDBRANCH   1   3
BRANCH   1  19
ATOM     19  C   UNL     1       4.013  12.513   0.026  0.00  0.00    +0.153 C 
ATOM     20  S   UNL     1       3.767  14.207   0.036  0.00  0.00    -0.017 S 
BRANCH  19  23
ATOM     21  C   UNL     1       6.323  12.849   0.005  0.00  0.00    +0.256 C 
ATOM     22  O   UNL     1       6.149  14.048   0.012  0.00  0.00    -0.272 OA
ATOM     23  N   UNL     1       5.265  12.014   0.011  0.00  0.00    -0.264 N 
ATOM     24  H   UNL     1       5.404  11.054   0.005  0.00  0.00    +0.157 HD
BRANCH  21  25
ATOM     25  C   UNL     1       7.723  12.290  -0.012  0.00  0.00    +0.324 C 
BRANCH  25  26
ATOM     26  O   UNL     1       8.665  13.366  -0.015  0.00  0.00    -0.483 OA
BRANCH  26  30
ATOM     27  C   UNL     1      12.666  12.352  -0.059  0.00  0.00    +0.120 A 
ATOM     28  C   UNL     1      12.289  13.687  -0.049  0.00  0.00    +0.049 A 
ATOM     29  C   UNL     1      10.950  14.026  -0.034  0.00  0.00    +0.049 A 
ATOM     30  C   UNL     1       9.983  13.032  -0.030  0.00  0.00    +0.121 A 
ATOM     31  C   UNL     1      10.360  11.697  -0.035  0.00  0.00    +0.049 A 
ATOM     32  C   UNL     1      11.699  11.358  -0.054  0.00  0.00    +0.049 A 
BRANCH  27  34
ATOM     33  C   UNL     1      14.301  10.625  -0.082  0.00  0.00    +0.277 C 
ATOM     34  O   UNL     1      13.984  12.019  -0.073  0.00  0.00    -0.495 OA
ENDBRANCH  27  34
ENDBRANCH  26  30
ENDBRANCH  25  26
ENDBRANCH  21  25
ENDBRANCH  19  23
ENDBRANCH   1  19
TORSDOF 10
