REMARK  Name = ZINC14457052
REMARK  8 active torsions:
REMARK  status: ('A' for Active; 'I' for Inactive)
REMARK    1  A    between atoms: C_1  and  C_2
REMARK    2  A    between atoms: C_2  and  O_3
REMARK    3  A    between atoms: O_3  and  C_4
REMARK    4  A    between atoms: C_4  and  C_6
REMARK    5  A    between atoms: C_19  and  C_22
REMARK    6  A    between atoms: C_25  and  O_29
REMARK    7  A    between atoms: C_26  and  O_28
REMARK    8  A    between atoms: O_29  and  C_30
REMARK                            x       y       z     vdW  Elec       q    Type
REMARK                         _______ _______ _______ _____ _____    ______ ____
ROOT
ATOM      1  C   UNL     1       1.001   3.545  -0.041  0.00  0.00    +0.059 A 
ATOM      2  C   UNL     1       1.134   2.153  -0.055  0.00  0.00    +0.017 A 
ATOM      3  C   UNL     1       0.017   1.367  -0.037  0.00  0.00    +0.024 A 
ATOM      4  C   UNL     1      -1.250   1.944  -0.010  0.00  0.00    +0.031 A 
ATOM      5  C   UNL     1      -1.399   3.326   0.011  0.00  0.00    -0.019 A 
ATOM      6  C   UNL     1      -0.269   4.124  -0.008  0.00  0.00    +0.021 A 
ATOM      7  C   UNL     1      -2.741   3.986   0.047  0.00  0.00    +0.049 C 
ATOM      8  C   UNL     1      -3.042   4.544   1.418  0.00  0.00    -0.023 C 
ATOM      9  C   UNL     1      -4.315   4.404   1.696  0.00  0.00    -0.030 C 
ATOM     10  C   UNL     1      -5.040   3.736   0.543  0.00  0.00    +0.033 C 
ATOM     11  C   UNL     1      -3.899   3.007  -0.226  0.00  0.00    +0.029 C 
ATOM     12  C   UNL     1      -3.631   1.673   0.477  0.00  0.00    +0.105 C 
ATOM     13  N   UNL     1      -2.365   1.121  -0.016  0.00  0.00    -0.336 N 
ATOM     14  H   UNL     1      -2.309   0.201  -0.320  0.00  0.00    +0.147 HD
ENDROOT
BRANCH  12  15
ATOM     15  C   UNL     1      -3.541   1.896   1.965  0.00  0.00    -0.023 A 
ATOM     16  C   UNL     1      -4.679   1.811   2.745  0.00  0.00    +0.009 A 
ATOM     17  C   UNL     1      -4.600   2.009   4.111  0.00  0.00    +0.050 A 
ATOM     18  C   UNL     1      -3.381   2.305   4.699  0.00  0.00    +0.161 A 
ATOM     19  C   UNL     1      -2.237   2.397   3.913  0.00  0.00    +0.159 A 
ATOM     20  C   UNL     1      -2.321   2.191   2.545  0.00  0.00    +0.054 A 
BRANCH  19  21
ATOM     21  O   UNL     1      -1.038   2.687   4.486  0.00  0.00    -0.503 OA
ATOM     22  H   UNL     1      -0.842   3.632   4.531  0.00  0.00    +0.292 HD
ENDBRANCH  19  21
BRANCH  18  23
ATOM     23  O   UNL     1      -3.303   2.506   6.042  0.00  0.00    -0.491 OA
ATOM     24  C   UNL     1      -4.518   2.396   6.786  0.00  0.00    +0.277 C 
ENDBRANCH  18  23
ENDBRANCH  12  15
BRANCH   1  25
ATOM     25  C   UNL     1       2.201   4.400  -0.060  0.00  0.00    +0.339 C 
ATOM     26  O   UNL     1       2.085   5.610  -0.048  0.00  0.00    -0.245 OA
BRANCH  25  27
ATOM     27  O   UNL     1       3.426   3.841  -0.092  0.00  0.00    -0.461 OA
BRANCH  27  29
ATOM     28  C   UNL     1       5.859   3.933  -0.146  0.00  0.00    +0.048 C 
ATOM     29  C   UNL     1       4.563   4.744  -0.110  0.00  0.00    +0.229 C 
ENDBRANCH  27  29
ENDBRANCH  25  27
ENDBRANCH   1  25
TORSDOF 6
