REMARK  Name = ZINC09151092
REMARK  10 active torsions:
REMARK  status: ('A' for Active; 'I' for Inactive)
REMARK    1  A    between atoms: C_1  and  O_2
REMARK    2  A    between atoms: O_2  and  C_3
REMARK    3  A    between atoms: C_3  and  C_5
REMARK    4  A    between atoms: C_5  and  N_6
REMARK    5  A    between atoms: C_10  and  S_28
REMARK    6  A    between atoms: N_15  and  C_16
REMARK    7  A    between atoms: C_16  and  C_18
REMARK    8  A    between atoms: C_21  and  S_24
REMARK    9  A    between atoms: S_24  and  C_27
REMARK   10  A    between atoms: S_28  and  N_31
REMARK                            x       y       z     vdW  Elec       q    Type
REMARK                         _______ _______ _______ _____ _____    ______ ____
ROOT
ATOM      1  N   UNL     1       2.244  -1.980  -8.304  0.00  0.00    -0.310 N 
ATOM      2  C   UNL     1       3.266  -1.809  -9.219  0.00  0.00    +0.058 A 
ATOM      3  C   UNL     1       3.176  -1.713 -10.617  0.00  0.00    +0.029 A 
ATOM      4  C   UNL     1       4.304  -1.543 -11.383  0.00  0.00    +0.030 A 
ATOM      5  C   UNL     1       5.560  -1.462 -10.805  0.00  0.00    +0.106 A 
ATOM      6  C   UNL     1       5.678  -1.553  -9.429  0.00  0.00    +0.045 A 
ATOM      7  C   UNL     1       4.550  -1.723  -8.661  0.00  0.00    +0.041 A 
ATOM      8  S   UNL     1       4.248  -1.877  -6.919  0.00  0.00    -0.052 S 
ATOM      9  C   UNL     1       2.524  -2.051  -6.974  0.00  0.00    +0.167 A 
ATOM     10  N   UNL     1       1.679  -2.211  -5.962  0.00  0.00    -0.152 NA
ENDROOT
BRANCH   5  11
ATOM     11  S   UNL     1       6.991  -1.243 -11.809  0.00  0.00    +0.056 S 
ATOM     12  O   UNL     1       6.551  -0.641 -13.018  0.00  0.00    -0.153 OA
ATOM     13  O   UNL     1       7.982  -0.651 -10.980  0.00  0.00    -0.153 OA
BRANCH  11  14
ATOM     14  N   UNL     1       7.546  -2.752 -12.206  0.00  0.00    -0.204 NA
ATOM     15  H   UNL     1       8.010  -2.893 -13.046  0.00  0.00    +0.144 HD
ATOM     16  H   UNL     1       7.407  -3.496 -11.598  0.00  0.00    +0.144 HD
ENDBRANCH  11  14
ENDBRANCH   5  11
BRANCH  10  17
ATOM     17  C   UNL     1       2.140  -2.259  -4.708  0.00  0.00    +0.269 C 
ATOM     18  O   UNL     1       3.335  -2.157  -4.494  0.00  0.00    -0.268 OA
BRANCH  17  19
ATOM     19  C   UNL     1       1.198  -2.437  -3.579  0.00  0.00    +0.039 A 
ATOM     20  C   UNL     1       1.675  -2.488  -2.269  0.00  0.00    +0.015 A 
ATOM     21  C   UNL     1       0.793  -2.654  -1.222  0.00  0.00    +0.027 A 
ATOM     22  C   UNL     1      -0.564  -2.769  -1.468  0.00  0.00    +0.088 A 
ATOM     23  C   UNL     1      -1.043  -2.725  -2.765  0.00  0.00    +0.027 A 
ATOM     24  C   UNL     1      -0.171  -2.555  -3.821  0.00  0.00    +0.015 A 
BRANCH  22  25
ATOM     25  S   UNL     1      -1.684  -2.981  -0.125  0.00  0.00    -0.006 S 
ATOM     26  O   UNL     1      -0.911  -3.589   0.900  0.00  0.00    -0.170 OA
ATOM     27  O   UNL     1      -2.801  -3.657  -0.687  0.00  0.00    -0.170 OA
ATOM     28  C   UNL     1      -2.153  -1.298   0.361  0.00  0.00    +0.200 C 
ENDBRANCH  22  25
ENDBRANCH  17  19
ENDBRANCH  10  17
BRANCH   1  29
ATOM     29  C   UNL     1       0.858  -2.083  -8.766  0.00  0.00    +0.244 C 
BRANCH  29  30
ATOM     30  C   UNL     1       0.144  -3.152  -7.978  0.00  0.00    +0.327 C 
ATOM     31  O   UNL     1       0.768  -3.875  -7.238  0.00  0.00    -0.249 OA
BRANCH  30  33
ATOM     32  C   UNL     1      -1.805  -4.349  -7.309  0.00  0.00    +0.280 C 
ATOM     33  O   UNL     1      -1.185  -3.300  -8.098  0.00  0.00    -0.467 OA
ENDBRANCH  30  33
ENDBRANCH  29  30
ENDBRANCH   1  29
TORSDOF 8
