REMARK  Name = ZINC00862711
REMARK  2 active torsions:
REMARK  status: ('A' for Active; 'I' for Inactive)
REMARK    1  A    between atoms: C_7  and  N_11
REMARK    2  A    between atoms: C_8  and  C_9
REMARK                            x       y       z     vdW  Elec       q    Type
REMARK                         _______ _______ _______ _____ _____    ______ ____
ROOT
ATOM      1  C   UNL     1      -0.044   1.488  -0.004  0.00  0.00    +0.001 C 
ATOM      2  C   UNL     1       1.369   2.064  -0.068  0.00  0.00    +0.005 C 
ATOM      3  C   UNL     1       2.072   1.606  -1.342  0.00  0.00    +0.037 C 
ATOM      4  C   UNL     1       2.798   0.294  -1.087  0.00  0.00    -0.018 A 
ATOM      5  C   UNL     1       2.409  -0.589  -0.141  0.00  0.00    -0.004 A 
ATOM      6  S   UNL     1       3.561  -1.927  -0.273  0.00  0.00    -0.076 S 
ATOM      7  C   UNL     1       4.532  -1.349  -1.513  0.00  0.00    +0.099 A 
ATOM      8  C   UNL     1       3.972  -0.127  -1.837  0.00  0.00    +0.084 A 
ATOM      9  C   UNL     1       1.268  -0.455   0.818  0.00  0.00    +0.043 C 
ATOM     10  C   UNL     1       0.009  -0.035   0.048  0.00  0.00    +0.005 C 
ENDROOT
BRANCH   7  11
ATOM     11  N   UNL     1       5.646  -1.958  -2.084  0.00  0.00    -0.202 N 
ATOM     12  C   UNL     1       5.564  -2.815  -3.121  0.00  0.00    +0.231 C 
ATOM     13  O   UNL     1       4.589  -3.014  -3.814  0.00  0.00    -0.274 OA
ATOM     14  C   UNL     1       6.937  -3.492  -3.262  0.00  0.00    +0.092 C 
ATOM     15  C   UNL     1       6.868  -4.713  -2.341  0.00  0.00    +0.042 C 
ATOM     16  C   UNL     1       8.165  -5.030  -1.682  0.00  0.00    -0.011 C 
ATOM     17  C   UNL     1       9.161  -4.212  -1.578  0.00  0.00    +0.015 C 
ATOM     18  C   UNL     1       9.155  -2.834  -2.162  0.00  0.00    +0.060 C 
ATOM     19  C   UNL     1       7.815  -2.381  -2.663  0.00  0.00    +0.093 C 
ATOM     20  C   UNL     1       6.908  -1.741  -1.653  0.00  0.00    +0.231 C 
ATOM     21  O   UNL     1       7.242  -1.150  -0.649  0.00  0.00    -0.274 OA
ATOM     22 CL   UNL     1      10.575  -4.738  -0.720  0.00  0.00    -0.089 Cl
ENDBRANCH   7  11
BRANCH   8  23
ATOM     23  C   UNL     1       4.526   0.693  -2.872  0.00  0.00    +0.102 C 
ATOM     24  N   UNL     1       4.966   1.344  -3.693  0.00  0.00    -0.191 NA
ENDBRANCH   8  23
TORSDOF 2
