REMARK  Name = ZINC59179628
REMARK  13 active torsions:
REMARK  status: ('A' for Active; 'I' for Inactive)
REMARK    1  A    between atoms: C_1  and  C_2
REMARK    2  A    between atoms: C_5  and  C_29
REMARK    3  A    between atoms: C_6  and  O_8
REMARK    4  A    between atoms: O_8  and  C_9
REMARK    5  A    between atoms: C_9  and  C_10
REMARK    6  A    between atoms: C_13  and  S_15
REMARK    7  A    between atoms: S_15  and  C_16
REMARK    8  A    between atoms: C_16  and  C_17
REMARK    9  A    between atoms: N_19  and  C_20
REMARK   10  A    between atoms: C_22  and  C_28
REMARK   11  A    between atoms: C_23  and  C_27
REMARK   12  A    between atoms: C_29  and  C_30
REMARK   13  A    between atoms: C_29  and  C_31
REMARK                            x       y       z     vdW  Elec       q    Type
REMARK                         _______ _______ _______ _____ _____    ______ ____
ROOT
ATOM      1  C   UNL     1       0.064  -2.894   4.780  0.00  0.00    +0.255 A 
ATOM      2  N   UNL     1       1.122  -3.348   5.386  0.00  0.00    -0.108 NA
ATOM      3  N   UNL     1       0.768  -4.119   6.353  0.00  0.00    -0.101 NA
ATOM      4  C   UNL     1      -0.541  -4.185   6.398  0.00  0.00    +0.278 A 
ATOM      5  O   UNL     1      -1.014  -3.406   5.407  0.00  0.00    -0.412 OA
ENDROOT
BRANCH   1   6
ATOM      6  C   UNL     1       0.046  -1.961   3.598  0.00  0.00    +0.326 C 
BRANCH   6   7
ATOM      7  O   UNL     1       0.058  -2.723   2.389  0.00  0.00    -0.482 OA
BRANCH   7  13
ATOM      8  C   UNL     1      -0.019   1.569   0.067  0.00  0.00    +0.044 C 
ATOM      9  C   UNL     1       0.007   0.063   0.050  0.00  0.00    -0.047 A 
ATOM     10  C   UNL     1       0.017  -0.614  -1.156  0.00  0.00    +0.004 A 
ATOM     11  C   UNL     1       0.041  -1.996  -1.176  0.00  0.00    +0.008 A 
ATOM     12  C   UNL     1       0.055  -2.705   0.010  0.00  0.00    -0.003 A 
ATOM     13  C   UNL     1       0.045  -2.028   1.221  0.00  0.00    +0.125 A 
ATOM     14  C   UNL     1       0.027  -0.641   1.238  0.00  0.00    +0.049 A 
BRANCH  12  15
ATOM     15  C   UNL     1       0.080  -4.211  -0.012  0.00  0.00    +0.016 C 
ATOM     16  C   UNL     1      -1.161  -4.732  -0.739  0.00  0.00    +0.012 C 
ATOM     17  C   UNL     1       1.337  -4.690  -0.742  0.00  0.00    +0.012 C 
ENDBRANCH  12  15
ENDBRANCH   7  13
ENDBRANCH   6   7
ENDBRANCH   1   6
BRANCH   4  18
ATOM     18  S   UNL     1      -1.502  -5.114   7.546  0.00  0.00    -0.056 S 
BRANCH  18  19
ATOM     19  C   UNL     1      -0.266  -5.918   8.602  0.00  0.00    +0.175 C 
BRANCH  19  20
ATOM     20  C   UNL     1      -0.964  -6.756   9.643  0.00  0.00    +0.228 C 
ATOM     21  O   UNL     1      -2.175  -6.806   9.669  0.00  0.00    -0.275 OA
ATOM     22  N   UNL     1      -0.241  -7.450  10.544  0.00  0.00    -0.284 N 
ATOM     23  H   UNL     1       0.726  -7.476  10.475  0.00  0.00    +0.155 HD
BRANCH  22  24
ATOM     24  C   UNL     1      -0.886  -8.135  11.581  0.00  0.00    +0.048 A 
ATOM     25  C   UNL     1      -2.141  -7.723  12.011  0.00  0.00    +0.028 A 
ATOM     26  C   UNL     1      -2.775  -8.401  13.034  0.00  0.00    -0.046 A 
ATOM     27  C   UNL     1      -2.163  -9.488  13.630  0.00  0.00    -0.046 A 
ATOM     28  C   UNL     1      -0.913  -9.901  13.204  0.00  0.00    +0.020 A 
ATOM     29  C   UNL     1      -0.276  -9.231  12.178  0.00  0.00    +0.039 A 
ATOM     30 BR   UNL     1       1.430  -9.800  11.591  0.00  0.00    -0.048 Br
ATOM     31  C   UNL     1      -2.858 -10.225  14.746  0.00  0.00    +0.044 C 
ATOM     32  C   UNL     1      -4.137  -7.955  13.501  0.00  0.00    +0.044 C 
ENDBRANCH  22  24
ENDBRANCH  19  20
ENDBRANCH  18  19
ENDBRANCH   4  18
TORSDOF 8
