REMARK  Name = ZINC16488137
REMARK  8 active torsions:
REMARK  status: ('A' for Active; 'I' for Inactive)
REMARK    1  A    between atoms: C_4  and  N_7
REMARK    2  A    between atoms: N_7  and  N_8
REMARK    3  A    between atoms: C_10  and  C_24
REMARK    4  A    between atoms: N_16  and  N_17
REMARK    5  A    between atoms: N_17  and  C_18
REMARK    6  A    between atoms: C_24  and  C_26
REMARK    7  A    between atoms: C_24  and  O_28
REMARK    8  A    between atoms: C_26  and  O_27
REMARK                            x       y       z     vdW  Elec       q    Type
REMARK                         _______ _______ _______ _____ _____    ______ ____
ROOT
ATOM      1  N   UNL     1       3.639  -2.048  -0.044  0.00  0.00    -0.181 NA
ATOM      2  C   UNL     1       4.775  -2.681  -0.059  0.00  0.00    +0.136 C 
ATOM      3  C   UNL     1       4.997  -4.177  -0.075  0.00  0.00    +0.260 C 
ATOM      4  O   UNL     1       6.408  -4.392  -0.088  0.00  0.00    -0.448 OA
ATOM      5  C   UNL     1       7.073  -3.228  -0.081  0.00  0.00    +0.362 C 
ATOM      6  O   UNL     1       8.284  -3.122  -0.089  0.00  0.00    -0.243 OA
ATOM      7  C   UNL     1       6.132  -2.098  -0.070  0.00  0.00    +0.192 C 
ATOM      8  N   UNL     1       6.439  -0.819  -0.067  0.00  0.00    -0.173 NA
ENDROOT
BRANCH   1   9
ATOM      9  N   UNL     1       3.619  -0.647  -0.036  0.00  0.00    -0.237 N 
ATOM     10  H   UNL     1       4.451  -0.150  -0.042  0.00  0.00    +0.174 HD
BRANCH   9  14
ATOM     11  C   UNL     1      -0.017   1.379   0.010  0.00  0.00    +0.000 A 
ATOM     12  C   UNL     1       1.169   2.090   0.002  0.00  0.00    +0.002 A 
ATOM     13  C   UNL     1       2.377   1.421  -0.013  0.00  0.00    +0.025 A 
ATOM     14  C   UNL     1       2.400   0.032  -0.021  0.00  0.00    +0.048 A 
ATOM     15  C   UNL     1       1.206  -0.680  -0.013  0.00  0.00    +0.025 A 
ATOM     16  C   UNL     1       0.002  -0.004   0.002  0.00  0.00    +0.002 A 
ENDBRANCH   9  14
ENDBRANCH   1   9
BRANCH   8  17
ATOM     17  N   UNL     1       7.782  -0.420  -0.078  0.00  0.00    -0.237 N 
ATOM     18  H   UNL     1       8.486  -1.088  -0.089  0.00  0.00    +0.174 HD
BRANCH  17  19
ATOM     19  C   UNL     1       8.108   0.936  -0.075  0.00  0.00    +0.048 A 
ATOM     20  C   UNL     1       7.101   1.894  -0.055  0.00  0.00    +0.025 A 
ATOM     21  C   UNL     1       7.427   3.236  -0.051  0.00  0.00    +0.002 A 
ATOM     22  C   UNL     1       8.753   3.627  -0.068  0.00  0.00    +0.000 A 
ATOM     23  C   UNL     1       9.758   2.677  -0.089  0.00  0.00    +0.002 A 
ATOM     24  C   UNL     1       9.440   1.333  -0.087  0.00  0.00    +0.025 A 
ENDBRANCH  17  19
ENDBRANCH   8  17
BRANCH   3  25
ATOM     25  C   UNL     1       4.381  -4.809   1.175  0.00  0.00    +0.187 C 
BRANCH  25  26
ATOM     26  O   UNL     1       2.978  -4.542   1.201  0.00  0.00    -0.385 OA
ATOM     27  H   UNL     1       2.496  -4.891   0.438  0.00  0.00    +0.210 HD
ENDBRANCH  25  26
BRANCH  25  28
ATOM     28  C   UNL     1       4.612  -6.322   1.148  0.00  0.00    +0.191 C 
BRANCH  28  29
ATOM     29  O   UNL     1       4.141  -6.897   2.368  0.00  0.00    -0.392 OA
ATOM     30  H   UNL     1       4.255  -7.856   2.421  0.00  0.00    +0.210 HD
ENDBRANCH  28  29
ENDBRANCH  25  28
ENDBRANCH   3  25
TORSDOF 8
