REMARK  Name = ZINC25679987
REMARK  9 active torsions:
REMARK  status: ('A' for Active; 'I' for Inactive)
REMARK    1  A    between atoms: C_1  and  C_2
REMARK    2  A    between atoms: C_2  and  C_4
REMARK    3  A    between atoms: C_2  and  N_12
REMARK    4  A    between atoms: C_13  and  C_15
REMARK    5  A    between atoms: C_15  and  N_16
REMARK    6  A    between atoms: N_16  and  C_17
REMARK    7  A    between atoms: N_16  and  C_18
REMARK    8  A    between atoms: C_18  and  C_19
REMARK    9  A    between atoms: C_21  and  N_26
REMARK                            x       y       z     vdW  Elec       q    Type
REMARK                         _______ _______ _______ _____ _____    ______ ____
ROOT
ATOM      1  C   UNL     1      -0.822   3.023   1.213  0.00  0.00    +0.019 C 
ENDROOT
BRANCH   1   3
ATOM      2  N   UNL     1      -1.996   4.756  -0.105  0.00  0.00    -0.310 N 
ATOM      3  C   UNL     1      -1.735   3.449   0.092  0.00  0.00    +0.197 C 
ATOM      4  O   UNL     1      -2.234   2.615  -0.633  0.00  0.00    -0.278 OA
ATOM      5  H   UNL     1      -1.543   5.513   0.552  0.00  0.00    +0.149 HD
BRANCH   2   7
ATOM      6  C   UNL     1      -2.078   5.286  -2.492  0.00  0.00    +0.033 C 
ATOM      7  C   UNL     1      -2.882   5.170  -1.196  0.00  0.00    +0.103 C 
BRANCH   7   8
ATOM      8  C   UNL     1      -3.496   6.506  -0.865  0.00  0.00    +0.008 A 
ATOM      9  C   UNL     1      -2.853   7.365   0.006  0.00  0.00    +0.011 A 
ATOM     10  C   UNL     1      -3.412   8.593   0.306  0.00  0.00    +0.039 A 
ATOM     11  C   UNL     1      -4.623   8.959  -0.256  0.00  0.00    +0.126 A 
ATOM     12  C   UNL     1      -5.271   8.097  -1.124  0.00  0.00    +0.077 A 
ATOM     13  C   UNL     1      -4.707   6.870  -1.428  0.00  0.00    +0.131 A 
ATOM     14  F   UNL     1      -5.339   6.027  -2.275  0.00  0.00    -0.205 F 
ATOM     15  F   UNL     1      -5.172  10.157   0.041  0.00  0.00    -0.205 F 
ENDBRANCH   7   8
ENDBRANCH   2   7
ENDBRANCH   1   3
BRANCH   1  16
ATOM     16  N   UNL     1      -0.700   1.560   1.217  0.00  0.00    +0.386 N 
ATOM     17  C   UNL     1      -0.013   1.086   0.008  0.00  0.00    -0.095 C 
ATOM     18  H   UNL     1      -1.715   1.136   1.216  0.00  0.00    -0.081 HD
BRANCH  16  19
ATOM     19  C   UNL     1      -0.016   1.091   2.429  0.00  0.00    -0.041 C 
BRANCH  19  20
ATOM     20  C   UNL     1      -0.125  -0.409   2.520  0.00  0.00    -0.043 A 
ATOM     21  C   UNL     1       0.969  -1.201   2.224  0.00  0.00    +0.036 A 
ATOM     22  C   UNL     1       0.871  -2.577   2.312  0.00  0.00    +0.126 A 
ATOM     23  C   UNL     1      -0.325  -3.163   2.686  0.00  0.00    +0.034 A 
ATOM     24  C   UNL     1      -1.421  -2.372   2.976  0.00  0.00    +0.022 A 
ATOM     25  C   UNL     1      -1.321  -0.995   2.893  0.00  0.00    +0.042 A 
ATOM     26 CL   UNL     1      -2.697  -0.002   3.259  0.00  0.00    -0.083 Cl
BRANCH  22  27
ATOM     27  N   UNL     1       2.043  -3.424   1.999  0.00  0.00    +0.056 N 
ATOM     28  O   UNL     1       1.956  -4.636   2.072  0.00  0.00    -0.126 OA
ATOM     29  O   UNL     1       3.096  -2.908   1.670  0.00  0.00    -0.126 OA
ENDBRANCH  22  27
ENDBRANCH  19  20
ENDBRANCH  16  19
ENDBRANCH   1  16
TORSDOF 7
