REMARK  Name = ZINC03137427
REMARK  6 active torsions:
REMARK  status: ('A' for Active; 'I' for Inactive)
REMARK    1  A    between atoms: C_6  and  N_7
REMARK    2  A    between atoms: N_7  and  C_8
REMARK    3  A    between atoms: C_8  and  N_10
REMARK    4  A    between atoms: N_10  and  C_11
REMARK    5  A    between atoms: C_11  and  C_13
REMARK    6  A    between atoms: C_11  and  N_17
REMARK                            x       y       z     vdW  Elec       q    Type
REMARK                         _______ _______ _______ _____ _____    ______ ____
ROOT
ATOM      1  C   UNL     1       2.317   4.172   0.104  0.00  0.00    +0.136 C 
ATOM      2  S   UNL     1       3.812   3.337   0.086  0.00  0.00    -0.019 S 
ENDROOT
BRANCH   1   3
ATOM      3  N   UNL     1       1.161   3.485   0.010  0.00  0.00    -0.297 N 
ATOM      4  H   UNL     1       0.319   3.961  -0.061  0.00  0.00    +0.154 HD
BRANCH   3  10
ATOM      5  C   UNL     1       2.010   1.401   0.888  0.00  0.00    +0.024 A 
ATOM      6  C   UNL     1       2.023   0.021   0.889  0.00  0.00    +0.016 A 
ATOM      7  C   UNL     1       1.206  -0.681   0.020  0.00  0.00    +0.013 A 
ATOM      8  C   UNL     1       0.374  -0.002  -0.852  0.00  0.00    +0.016 A 
ATOM      9  C   UNL     1       0.357   1.379  -0.857  0.00  0.00    +0.024 A 
ATOM     10  C   UNL     1       1.176   2.086   0.013  0.00  0.00    +0.033 A 
ATOM     11  I   UNL     1       1.230  -2.776   0.025  0.00  0.00    -0.044 I 
ENDBRANCH   3  10
ENDBRANCH   1   3
BRANCH   1  12
ATOM     12  N   UNL     1       2.297   5.515   0.213  0.00  0.00    -0.305 N 
ATOM     13  H   UNL     1       1.450   5.987   0.224  0.00  0.00    +0.150 HD
BRANCH  12  14
ATOM     14  C   UNL     1       3.553   6.261   0.316  0.00  0.00    +0.211 C 
BRANCH  14  15
ATOM     15  C   UNL     1       3.501   7.478  -0.611  0.00  0.00    +0.225 C 
ATOM     16 CL   UNL     1       2.129   8.542  -0.128  0.00  0.00    -0.080 Cl
ATOM     17 CL   UNL     1       5.048   8.396  -0.484  0.00  0.00    -0.080 Cl
ATOM     18 CL   UNL     1       3.265   6.928  -2.312  0.00  0.00    -0.080 Cl
ENDBRANCH  14  15
BRANCH  14  19
ATOM     19  N   UNL     1       3.745   6.707   1.698  0.00  0.00    -0.296 N 
ATOM     20  C   UNL     1       4.643   6.087   2.488  0.00  0.00    +0.327 C 
ATOM     21  O   UNL     1       5.292   5.159   2.055  0.00  0.00    -0.279 OA
ATOM     22  H   UNL     1       3.225   7.450   2.044  0.00  0.00    +0.150 HD
ENDBRANCH  14  19
ENDBRANCH  12  14
ENDBRANCH   1  12
TORSDOF 6
