REMARK  Name = ZINC05840752
REMARK  13 active torsions:
REMARK  status: ('A' for Active; 'I' for Inactive)
REMARK    1  A    between atoms: C_1  and  C_2
REMARK    2  A    between atoms: C_2  and  C_3
REMARK    3  A    between atoms: C_2  and  C_4
REMARK    4  A    between atoms: C_2  and  C_5
REMARK    5  A    between atoms: C_8  and  O_11
REMARK    6  A    between atoms: O_11  and  C_12
REMARK    7  A    between atoms: C_12  and  C_13
REMARK    8  A    between atoms: C_13  and  N_62
REMARK    9  A    between atoms: C_14  and  C_15
REMARK   10  A    between atoms: C_14  and  N_62
REMARK   11  A    between atoms: C_15  and  C_17
REMARK   12  A    between atoms: C_15  and  O_31
REMARK   13  A    between atoms: C_17  and  N_18
REMARK                            x       y       z     vdW  Elec       q    Type
REMARK                         _______ _______ _______ _____ _____    ______ ____
ROOT
ATOM      1  C   UNL     1       1.353   1.550  -0.003  0.00  0.00    -0.049 C 
ENDROOT
BRANCH   1   2
ATOM      2  N   UNL     1      -0.015   0.998   0.015  0.00  0.00    +0.383 N 
ATOM      3  H   UNL     1       0.032  -0.025  -0.054  0.00  0.00    -0.086 HD
ATOM      4  H   UNL     1      -0.475   1.261   0.894  0.00  0.00    -0.086 HD
BRANCH   2   5
ATOM      5  C   UNL     1      -0.795   1.527  -1.120  0.00  0.00    -0.041 C 
BRANCH   5   6
ATOM      6  C   UNL     1      -2.207   0.938  -1.076  0.00  0.00    +0.210 C 
BRANCH   6   7
ATOM      7  O   UNL     1      -2.879   1.399   0.098  0.00  0.00    -0.494 OA
BRANCH   7  11
ATOM      8  C   UNL     1      -6.745   0.084   0.681  0.00  0.00    -0.042 A 
ATOM      9  C   UNL     1      -6.159   0.933   1.602  0.00  0.00    +0.008 A 
ATOM     10  C   UNL     1      -4.864   1.375   1.409  0.00  0.00    +0.046 A 
ATOM     11  C   UNL     1      -4.153   0.966   0.290  0.00  0.00    +0.120 A 
ATOM     12  C   UNL     1      -4.745   0.119  -0.635  0.00  0.00    +0.046 A 
ATOM     13  C   UNL     1      -6.038  -0.325  -0.434  0.00  0.00    +0.008 A 
BRANCH   8  15
ATOM     14  C   UNL     1      -9.103   0.805   0.945  0.00  0.00    +0.015 C 
ATOM     15  C   UNL     1      -8.158  -0.397   0.895  0.00  0.00    -0.013 C 
ATOM     16  C   UNL     1      -8.563  -1.316  -0.259  0.00  0.00    +0.015 C 
ATOM     17  C   UNL     1      -8.241  -1.166   2.214  0.00  0.00    +0.015 C 
ENDBRANCH   8  15
ENDBRANCH   7  11
ENDBRANCH   6   7
ENDBRANCH   5   6
ENDBRANCH   2   5
ENDBRANCH   1   2
BRANCH   1  18
ATOM     18  C   UNL     1       2.136   0.985   1.184  0.00  0.00    +0.117 C 
BRANCH  18  19
ATOM     19  O   UNL     1       2.292  -0.427   1.022  0.00  0.00    -0.392 OA
ATOM     20  H   UNL     1       2.767  -0.681   0.219  0.00  0.00    +0.210 HD
ENDBRANCH  18  19
BRANCH  18  21
ATOM     21  C   UNL     1       3.515   1.646   1.246  0.00  0.00    +0.151 C 
BRANCH  21  22
ATOM     22  N   UNL     1       4.219   1.194   2.448  0.00  0.00    -0.337 N 
ATOM     23  C   UNL     1       4.162   1.820   3.680  0.00  0.00    +0.050 A 
ATOM     24  C   UNL     1       3.491   2.955   4.124  0.00  0.00    +0.026 A 
ATOM     25  C   UNL     1       3.616   3.362   5.435  0.00  0.00    +0.002 A 
ATOM     26  C   UNL     1       4.408   2.650   6.322  0.00  0.00    +0.001 A 
ATOM     27  C   UNL     1       5.075   1.518   5.903  0.00  0.00    +0.010 A 
ATOM     28  C   UNL     1       4.961   1.099   4.580  0.00  0.00    +0.008 A 
ATOM     29  C   UNL     1       5.535  -0.027   3.821  0.00  0.00    +0.008 A 
ATOM     30  C   UNL     1       5.042   0.083   2.512  0.00  0.00    +0.050 A 
ATOM     31  C   UNL     1       5.421  -0.858   1.560  0.00  0.00    +0.026 A 
ATOM     32  C   UNL     1       6.273  -1.885   1.906  0.00  0.00    +0.002 A 
ATOM     33  C   UNL     1       6.759  -1.992   3.199  0.00  0.00    +0.001 A 
ATOM     34  C   UNL     1       6.394  -1.070   4.157  0.00  0.00    +0.010 A 
ENDBRANCH  21  22
ENDBRANCH  18  21
ENDBRANCH   1  18
TORSDOF 10
