REMARK  Name = ZINC15170572
REMARK  7 active torsions:
REMARK  status: ('A' for Active; 'I' for Inactive)
REMARK    1  A    between atoms: C_1  and  O_2
REMARK    2  A    between atoms: O_2  and  C_3
REMARK    3  A    between atoms: C_5  and  C_24
REMARK    4  A    between atoms: C_8  and  O_9
REMARK    5  A    between atoms: O_9  and  C_10
REMARK    6  A    between atoms: C_13  and  C_19
REMARK    7  A    between atoms: C_15  and  N_16
REMARK                            x       y       z     vdW  Elec       q    Type
REMARK                         _______ _______ _______ _____ _____    ______ ____
ROOT
ATOM      1  C   UNL     1      -0.200  -4.105   0.086  0.00  0.00    +0.160 A 
ATOM      2  C   UNL     1      -1.446  -4.716   0.093  0.00  0.00    +0.069 A 
ATOM      3  C   UNL     1      -1.540  -6.091   0.193  0.00  0.00    +0.056 A 
ATOM      4  C   UNL     1      -0.392  -6.859   0.286  0.00  0.00    +0.075 A 
ATOM      5  C   UNL     1       0.850  -6.252   0.280  0.00  0.00    +0.050 A 
ATOM      6  C   UNL     1       0.949  -4.878   0.174  0.00  0.00    +0.169 A 
ATOM      7 CL   UNL     1      -3.098  -6.857   0.201  0.00  0.00    -0.083 Cl
ENDROOT
BRANCH   4   8
ATOM      8  C   UNL     1      -0.496  -8.358   0.395  0.00  0.00    +0.419 C 
ATOM      9  F   UNL     1       0.787  -8.910   0.476  0.00  0.00    -0.166 F 
ATOM     10  F   UNL     1      -1.221  -8.693   1.544  0.00  0.00    -0.166 F 
ATOM     11  F   UNL     1      -1.150  -8.864  -0.734  0.00  0.00    -0.166 F 
ENDBRANCH   4   8
BRANCH   6  12
ATOM     12  N   UNL     1       2.280  -4.230   0.161  0.00  0.00    +0.060 N 
ATOM     13  O   UNL     1       3.281  -4.904   0.238  0.00  0.00    -0.126 OA
ATOM     14  O   UNL     1       2.366  -3.027   0.074  0.00  0.00    -0.126 OA
ENDBRANCH   6  12
BRANCH   1  15
ATOM     15  O   UNL     1      -0.105  -2.753  -0.012  0.00  0.00    -0.450 OA
BRANCH  15  21
ATOM     16  C   UNL     1      -1.866  -1.743   1.236  0.00  0.00    +0.163 A 
ATOM     17  C   UNL     1      -3.032  -1.002   1.266  0.00  0.00    +0.068 A 
ATOM     18  C   UNL     1      -3.598  -0.547   0.073  0.00  0.00    +0.055 A 
ATOM     19  C   UNL     1      -2.983  -0.843  -1.147  0.00  0.00    +0.023 A 
ATOM     20  C   UNL     1      -1.820  -1.582  -1.170  0.00  0.00    +0.051 A 
ATOM     21  C   UNL     1      -1.254  -2.030   0.016  0.00  0.00    +0.170 A 
BRANCH  16  23
ATOM     22  C   UNL     1      -1.992  -1.856   3.608  0.00  0.00    +0.277 C 
ATOM     23  O   UNL     1      -1.312  -2.187   2.395  0.00  0.00    -0.491 OA
ENDBRANCH  16  23
BRANCH  18  24
ATOM     24  C   UNL     1      -4.807   0.221   0.099  0.00  0.00    +0.099 C 
ATOM     25  N   UNL     1      -5.765   0.830   0.119  0.00  0.00    -0.191 NA
ENDBRANCH  18  24
ENDBRANCH  15  21
ENDBRANCH   1  15
TORSDOF 6
