REMARK  Name = ZINC64774072
REMARK  7 active torsions:
REMARK  status: ('A' for Active; 'I' for Inactive)
REMARK    1  A    between atoms: C_6  and  C_7
REMARK    2  A    between atoms: C_7  and  S_8
REMARK    3  A    between atoms: S_8  and  C_9
REMARK    4  A    between atoms: C_15  and  C_23
REMARK    5  A    between atoms: C_26  and  O_29
REMARK    6  A    between atoms: O_29  and  C_30
REMARK    7  A    between atoms: C_30  and  C_31
REMARK                            x       y       z     vdW  Elec       q    Type
REMARK                         _______ _______ _______ _____ _____    ______ ____
ROOT
ATOM      1  C   UNL     1      -3.420  -2.051  -2.128  0.00  0.00    +0.182 C 
ATOM      2  N   UNL     1      -3.634  -2.289  -0.845  0.00  0.00    -0.154 NA
ATOM      3  C   UNL     1      -4.684  -2.993  -0.419  0.00  0.00    +0.249 C 
ATOM      4  O   UNL     1      -4.887  -3.184   0.764  0.00  0.00    -0.273 OA
ATOM      5  C   UNL     1      -5.612  -3.543  -1.483  0.00  0.00    +0.148 C 
ATOM      6  C   UNL     1      -7.031  -3.060  -1.178  0.00  0.00    +0.047 C 
ATOM      7  C   UNL     1      -8.000  -3.747  -2.143  0.00  0.00    +0.105 C 
ATOM      8  C   UNL     1      -7.514  -3.640  -3.560  0.00  0.00    +0.219 C 
ATOM      9  O   UNL     1      -8.309  -3.813  -4.459  0.00  0.00    -0.275 OA
ATOM     10  N   UNL     1      -6.239  -3.360  -3.876  0.00  0.00    -0.273 N 
ATOM     11  C   UNL     1      -5.315  -3.110  -2.908  0.00  0.00    +0.117 C 
ATOM     12  N   UNL     1      -4.237  -2.411  -3.125  0.00  0.00    -0.212 NA
ATOM     13  H   UNL     1      -5.966  -3.349  -4.806  0.00  0.00    +0.156 HD
ENDROOT
BRANCH   6  14
ATOM     14  C   UNL     1      -7.107  -1.565  -1.358  0.00  0.00    -0.042 A 
ATOM     15  C   UNL     1      -7.147  -1.025  -2.630  0.00  0.00    +0.007 A 
ATOM     16  C   UNL     1      -7.216   0.345  -2.797  0.00  0.00    +0.046 A 
ATOM     17  C   UNL     1      -7.245   1.178  -1.688  0.00  0.00    +0.121 A 
ATOM     18  C   UNL     1      -7.204   0.632  -0.413  0.00  0.00    +0.046 A 
ATOM     19  C   UNL     1      -7.141  -0.738  -0.251  0.00  0.00    +0.007 A 
BRANCH  17  20
ATOM     20  O   UNL     1      -7.312   2.525  -1.850  0.00  0.00    -0.483 OA
BRANCH  20  21
ATOM     21  C   UNL     1      -7.338   3.321  -0.664  0.00  0.00    +0.324 C 
BRANCH  21  22
ATOM     22  C   UNL     1      -7.413   4.779  -1.038  0.00  0.00    +0.248 C 
ATOM     23  O   UNL     1      -7.442   5.104  -2.206  0.00  0.00    -0.272 OA
ATOM     24  N   UNL     1      -7.449   5.721  -0.075  0.00  0.00    -0.327 N 
ATOM     25  H   UNL     1      -7.426   5.461   0.859  0.00  0.00    +0.145 HD
ATOM     26  H   UNL     1      -7.497   6.659  -0.316  0.00  0.00    +0.145 HD
ENDBRANCH  21  22
ENDBRANCH  20  21
ENDBRANCH  17  20
ENDBRANCH   6  14
BRANCH   1  27
ATOM     27  S   UNL     1      -1.947  -1.185  -2.558  0.00  0.00    -0.084 S 
BRANCH  27  28
ATOM     28  C   UNL     1      -1.133  -0.884  -0.965  0.00  0.00    +0.112 C 
BRANCH  28  34
ATOM     29  C   UNL     1       0.166   1.242  -1.196  0.00  0.00    +0.006 A 
ATOM     30  C   UNL     1       1.349   1.925  -1.405  0.00  0.00    +0.020 A 
ATOM     31  C   UNL     1       2.525   1.226  -1.610  0.00  0.00    +0.041 A 
ATOM     32  C   UNL     1       2.515  -0.158  -1.607  0.00  0.00    +0.020 A 
ATOM     33  C   UNL     1       1.331  -0.840  -1.398  0.00  0.00    +0.006 A 
ATOM     34  C   UNL     1       0.157  -0.140  -1.193  0.00  0.00    -0.037 A 
ATOM     35 CL   UNL     1       4.011   2.083  -1.873  0.00  0.00    -0.084 Cl
ENDBRANCH  28  34
ENDBRANCH  27  28
ENDBRANCH   1  27
TORSDOF 7
