REMARK  Name = ZINC59166770
REMARK  8 active torsions:
REMARK  status: ('A' for Active; 'I' for Inactive)
REMARK    1  A    between atoms: C_1  and  O_2
REMARK    2  A    between atoms: O_2  and  C_3
REMARK    3  A    between atoms: C_6  and  C_10
REMARK    4  A    between atoms: C_7  and  O_9
REMARK    5  A    between atoms: C_10  and  C_11
REMARK    6  A    between atoms: C_11  and  C_12
REMARK    7  A    between atoms: N_14  and  N_15
REMARK    8  A    between atoms: C_16  and  C_17
REMARK                            x       y       z     vdW  Elec       q    Type
REMARK                         _______ _______ _______ _____ _____    ______ ____
ROOT
ATOM      1  C   UNL     1       4.732  -3.533   5.083  0.00  0.00    +0.233 C 
ATOM      2  O   UNL     1       4.129  -3.744   6.114  0.00  0.00    -0.274 OA
ATOM      3  N   UNL     1       6.023  -3.904   4.969  0.00  0.00    -0.207 N 
ATOM      4  H   UNL     1       6.505  -3.736   4.145  0.00  0.00    +0.177 HD
ENDROOT
BRANCH   3   5
ATOM      5  N   UNL     1       6.668  -4.534   6.042  0.00  0.00    -0.188 NA
ATOM      6  C   UNL     1       7.911  -4.892   5.932  0.00  0.00    +0.138 C 
BRANCH   6   7
ATOM      7  C   UNL     1       8.589  -5.554   7.061  0.00  0.00    -0.005 A 
ATOM      8  C   UNL     1       7.894  -5.804   8.248  0.00  0.00    +0.010 A 
ATOM      9  C   UNL     1       8.527  -6.422   9.301  0.00  0.00    +0.009 A 
ATOM     10  C   UNL     1       9.868  -6.803   9.189  0.00  0.00    -0.014 A 
ATOM     11  C   UNL     1      10.558  -6.553   8.003  0.00  0.00    -0.035 A 
ATOM     12  C   UNL     1       9.928  -5.941   6.946  0.00  0.00    +0.014 A 
ATOM     13  C   UNL     1      11.966  -7.069   8.179  0.00  0.00    +0.071 C 
ATOM     14  C   UNL     1      12.029  -7.641   9.574  0.00  0.00    -0.035 A 
ATOM     15  C   UNL     1      10.774  -7.472  10.155  0.00  0.00    -0.014 A 
ATOM     16  C   UNL     1      10.557  -7.919  11.460  0.00  0.00    +0.009 A 
ATOM     17  C   UNL     1      11.582  -8.521  12.161  0.00  0.00    +0.001 A 
ATOM     18  C   UNL     1      12.825  -8.683  11.576  0.00  0.00    +0.000 A 
ATOM     19  C   UNL     1      13.047  -8.243  10.283  0.00  0.00    +0.004 A 
ENDBRANCH   6   7
ENDBRANCH   3   5
BRANCH   1  20
ATOM     20  C   UNL     1       4.039  -2.856   3.929  0.00  0.00    +0.102 C 
BRANCH  20  21
ATOM     21  C   UNL     1       2.593  -2.541   4.316  0.00  0.00    +0.048 C 
BRANCH  21  25
ATOM     22  C   UNL     1       0.626  -0.618   1.042  0.00  0.00    +0.124 A 
ATOM     23  C   UNL     1       1.202   0.139   2.051  0.00  0.00    +0.046 A 
ATOM     24  C   UNL     1       1.837  -0.484   3.108  0.00  0.00    +0.011 A 
ATOM     25  C   UNL     1       1.899  -1.864   3.163  0.00  0.00    -0.005 A 
ATOM     26  C   UNL     1       1.324  -2.626   2.156  0.00  0.00    +0.123 A 
ATOM     27  C   UNL     1       0.682  -2.002   1.097  0.00  0.00    +0.091 A 
BRANCH  22  29
ATOM     28  C   UNL     1      -0.017   1.425   0.010  0.00  0.00    +0.277 C 
ATOM     29  O   UNL     1       0.002  -0.004   0.002  0.00  0.00    -0.495 OA
ENDBRANCH  22  29
BRANCH  26  30
ATOM     30  O   UNL     1       1.386  -3.982   2.210  0.00  0.00    -0.506 OA
ATOM     31  H   UNL     1       0.642  -4.392   2.673  0.00  0.00    +0.292 HD
ENDBRANCH  26  30
ENDBRANCH  21  25
ENDBRANCH  20  21
ENDBRANCH   1  20
TORSDOF 7
