REMARK  Name = ZINC40530171
REMARK  9 active torsions:
REMARK  status: ('A' for Active; 'I' for Inactive)
REMARK    1  A    between atoms: C_1  and  C_2
REMARK    2  A    between atoms: C_2  and  O_3
REMARK    3  A    between atoms: O_3  and  C_4
REMARK    4  A    between atoms: C_8  and  C_10
REMARK    5  A    between atoms: C_15  and  O_24
REMARK    6  A    between atoms: C_19  and  N_23
REMARK    7  A    between atoms: C_20  and  C_21
REMARK    8  A    between atoms: O_24  and  C_25
REMARK    9  A    between atoms: C_25  and  C_27
REMARK                            x       y       z     vdW  Elec       q    Type
REMARK                         _______ _______ _______ _____ _____    ______ ____
ROOT
ATOM      1  C   UNL     1      -4.352  -4.319  -0.018  0.00  0.00    +0.098 C 
ATOM      2  C   UNL     1      -4.526  -5.170  -1.248  0.00  0.00    +0.008 A 
ATOM      3  C   UNL     1      -4.846  -4.567  -2.453  0.00  0.00    +0.012 A 
ATOM      4  C   UNL     1      -5.011  -5.332  -3.591  0.00  0.00    +0.047 A 
ATOM      5  C   UNL     1      -4.854  -6.710  -3.530  0.00  0.00    +0.135 A 
ATOM      6  C   UNL     1      -4.533  -7.315  -2.326  0.00  0.00    +0.093 A 
ATOM      7  C   UNL     1      -4.368  -6.545  -1.182  0.00  0.00    +0.138 A 
ATOM      8  O   UNL     1      -4.055  -7.153  -0.011  0.00  0.00    -0.441 OA
ATOM      9  C   UNL     1      -4.267  -6.516   1.153  0.00  0.00    +0.199 C 
ATOM     10  C   UNL     1      -4.415  -5.175   1.215  0.00  0.00    +0.098 C 
ENDROOT
BRANCH   1  15
ATOM     11  C   UNL     1      -1.723  -1.606  -0.129  0.00  0.00    +0.121 A 
ATOM     12  C   UNL     1      -0.557  -2.357  -0.184  0.00  0.00    +0.045 A 
ATOM     13  C   UNL     1      -0.624  -3.736  -0.185  0.00  0.00    +0.004 A 
ATOM     14  C   UNL     1      -1.852  -4.370  -0.131  0.00  0.00    +0.005 A 
ATOM     15  C   UNL     1      -3.015  -3.625  -0.077  0.00  0.00    -0.031 A 
ATOM     16  C   UNL     1      -2.953  -2.244  -0.070  0.00  0.00    +0.050 A 
BRANCH  11  17
ATOM     17  O   UNL     1      -1.660  -0.249  -0.128  0.00  0.00    -0.492 OA
BRANCH  17  19
ATOM     18  C   UNL     1      -0.488   1.864  -0.179  0.00  0.00    +0.048 C 
ATOM     19  C   UNL     1      -0.359   0.340  -0.191  0.00  0.00    +0.225 C 
ENDBRANCH  17  19
ENDBRANCH  11  17
ENDBRANCH   1  15
BRANCH   9  20
ATOM     20  N   UNL     1      -4.335  -7.250   2.311  0.00  0.00    -0.328 N 
ATOM     21  H   UNL     1      -4.230  -8.214   2.281  0.00  0.00    +0.145 HD
ATOM     22  H   UNL     1      -4.488  -6.805   3.159  0.00  0.00    +0.145 HD
ENDBRANCH   9  20
BRANCH  10  23
ATOM     23  C   UNL     1      -4.638  -4.557   2.487  0.00  0.00    +0.101 C 
ATOM     24  N   UNL     1      -4.814  -4.067   3.497  0.00  0.00    -0.191 NA
ENDBRANCH  10  23
BRANCH   5  25
ATOM     25  O   UNL     1      -5.016  -7.463  -4.649  0.00  0.00    -0.422 OA
BRANCH  25  26
ATOM     26  C   UNL     1      -4.093  -7.354  -5.624  0.00  0.00    +0.344 C 
ATOM     27  O   UNL     1      -3.099  -6.680  -5.446  0.00  0.00    -0.245 OA
BRANCH  26  28
ATOM     28  C   UNL     1      -4.291  -8.054  -6.910  0.00  0.00    +0.061 A 
ATOM     29  C   UNL     1      -5.436  -8.826  -7.120  0.00  0.00    +0.015 A 
ATOM     30  C   UNL     1      -5.615  -9.477  -8.322  0.00  0.00    +0.002 A 
ATOM     31  C   UNL     1      -4.662  -9.368  -9.320  0.00  0.00    +0.020 A 
ATOM     32  C   UNL     1      -3.525  -8.605  -9.119  0.00  0.00    +0.042 A 
ATOM     33  C   UNL     1      -3.336  -7.943  -7.922  0.00  0.00    +0.035 A 
ATOM     34 CL   UNL     1      -2.336  -8.475 -10.378  0.00  0.00    -0.084 Cl
ENDBRANCH  26  28
ENDBRANCH  25  26
ENDBRANCH   5  25
TORSDOF 8
