REMARK  Name = ZINC04226639
REMARK  4 active torsions:
REMARK  status: ('A' for Active; 'I' for Inactive)
REMARK    1  A    between atoms: C_1  and  N_2
REMARK    2  A    between atoms: N_2  and  C_3
REMARK    3  A    between atoms: N_2  and  C_17
REMARK    4  A    between atoms: C_6  and  C_15
REMARK                            x       y       z     vdW  Elec       q    Type
REMARK                         _______ _______ _______ _____ _____    ______ ____
ROOT
ATOM      1  C   UNL     1      -0.036   1.379   0.046  0.00  0.00    +0.044 A 
ATOM      2  C   UNL     1      -1.269   2.074   0.083  0.00  0.00    +0.020 A 
ATOM      3  C   UNL     1      -2.489   1.390   0.088  0.00  0.00    +0.027 A 
ATOM      4  C   UNL     1      -3.674   2.110   0.129  0.00  0.00    +0.064 A 
ATOM      5  C   UNL     1      -3.649   3.516   0.170  0.00  0.00    +0.017 A 
ATOM      6  C   UNL     1      -2.473   4.192   0.172  0.00  0.00    +0.027 A 
ATOM      7  C   UNL     1      -1.253   3.489   0.131  0.00  0.00    +0.048 A 
ATOM      8  C   UNL     1       1.071   3.511   0.094  0.00  0.00    +0.021 A 
ATOM      9  C   UNL     1       1.135   2.125   0.049  0.00  0.00    -0.007 A 
ATOM     10  C   UNL     1       2.579   1.678   0.008  0.00  0.00    +0.039 C 
ATOM     11  C   UNL     1       3.378   2.931  -0.408  0.00  0.00    +0.011 C 
ATOM     12  C   UNL     1       2.477   4.080   0.088  0.00  0.00    +0.054 C 
ATOM     13  N   UNL     1      -0.088   4.224   0.136  0.00  0.00    -0.358 N 
ATOM     14  H   UNL     1      -0.094   5.250   0.170  0.00  0.00    +0.166 HD
ENDROOT
BRANCH   4  15
ATOM     15  C   UNL     1      -4.966   1.398   0.129  0.00  0.00    +0.387 C 
ATOM     16  O   UNL     1      -4.991   0.184   0.093  0.00  0.00    -0.241 OA
ATOM     17  O   UNL     1      -6.119   2.095   0.169  0.00  0.00    -0.241 OA
ENDBRANCH   4  15
BRANCH   1  19
ATOM     18  C   UNL     1       0.549  -0.476  -1.277  0.00  0.00    +0.129 C 
ATOM     19  N   UNL     1       0.002  -0.004   0.002  0.00  0.00    -0.328 N 
BRANCH  19  20
ATOM     20  C   UNL     1       0.766  -0.546   1.133  0.00  0.00    +0.096 C 
ATOM     21  C   UNL     1       0.050  -0.196   2.448  0.00  0.00    +0.046 C 
ATOM     22  C   UNL     1       0.694  -1.034   3.589  0.00  0.00    +0.168 C 
ATOM     23  S   UNL     1       0.911  -2.653   2.736  0.00  0.00    -0.029 S 
ATOM     24  O   UNL     1      -0.232  -3.461   2.979  0.00  0.00    -0.174 OA
ATOM     25  O   UNL     1       2.204  -3.163   3.033  0.00  0.00    -0.174 OA
ATOM     26  C   UNL     1       0.880  -2.083   0.988  0.00  0.00    +0.188 C 
ENDBRANCH  19  20
ENDBRANCH   1  19
TORSDOF 3
