REMARK  Name = ZINC02166155
REMARK  6 active torsions:
REMARK  status: ('A' for Active; 'I' for Inactive)
REMARK    1  A    between atoms: C_4  and  C_7
REMARK    2  A    between atoms: N_9  and  C_10
REMARK    3  A    between atoms: C_10  and  C_12
REMARK    4  A    between atoms: C_10  and  C_24
REMARK    5  A    between atoms: N_26  and  N_27
REMARK    6  A    between atoms: C_28  and  C_29
REMARK                            x       y       z     vdW  Elec       q    Type
REMARK                         _______ _______ _______ _____ _____    ______ ____
ROOT
ATOM      1  C   UNL     1       6.132  -0.704  -0.061  0.00  0.00    +0.212 C 
ENDROOT
BRANCH   1   2
ATOM      2  C   UNL     1       6.497  -1.048  -1.482  0.00  0.00    +0.099 A 
ATOM      3  C   UNL     1       7.386  -2.177  -1.756  0.00  0.00    +0.013 A 
ATOM      4  C   UNL     1       7.909  -2.968  -0.732  0.00  0.00    +0.010 A 
ATOM      5  C   UNL     1       8.731  -4.016  -1.039  0.00  0.00    +0.001 A 
ATOM      6  C   UNL     1       9.050  -4.310  -2.358  0.00  0.00    +0.001 A 
ATOM      7  C   UNL     1       8.545  -3.550  -3.390  0.00  0.00    +0.014 A 
ATOM      8  C   UNL     1       7.704  -2.476  -3.101  0.00  0.00    +0.050 A 
ATOM      9  C   UNL     1       7.133  -1.629  -4.155  0.00  0.00    +0.272 A 
ATOM     10  O   UNL     1       7.383  -1.844  -5.327  0.00  0.00    -0.266 OA
ATOM     11  N   UNL     1       6.327  -0.607  -3.800  0.00  0.00    -0.242 N 
ATOM     12  H   UNL     1       5.934  -0.026  -4.513  0.00  0.00    +0.192 HD
ATOM     13  N   UNL     1       6.026  -0.339  -2.464  0.00  0.00    -0.173 NA
ENDBRANCH   1   2
BRANCH   1  16
ATOM     14  C   UNL     1       3.696  -0.685  -0.037  0.00  0.00    +0.245 C 
ATOM     15  O   UNL     1       3.715  -1.900  -0.045  0.00  0.00    -0.270 OA
ATOM     16  N   UNL     1       4.852   0.008  -0.045  0.00  0.00    -0.295 N 
ATOM     17  H   UNL     1       4.836   0.978  -0.039  0.00  0.00    +0.150 HD
BRANCH  14  21
ATOM     18  C   UNL     1      -0.017   1.379   0.010  0.00  0.00    +0.000 A 
ATOM     19  C   UNL     1       1.168   2.094   0.002  0.00  0.00    +0.001 A 
ATOM     20  C   UNL     1       2.377   1.429  -0.013  0.00  0.00    +0.013 A 
ATOM     21  C   UNL     1       2.403   0.034  -0.021  0.00  0.00    +0.037 A 
ATOM     22  C   UNL     1       1.204  -0.681  -0.013  0.00  0.00    +0.013 A 
ATOM     23  C   UNL     1       0.002  -0.004   0.002  0.00  0.00    +0.001 A 
ENDBRANCH  14  21
ENDBRANCH   1  16
BRANCH   1  24
ATOM     24  C   UNL     1       7.202   0.174   0.533  0.00  0.00    +0.259 C 
ATOM     25  O   UNL     1       6.923   1.285   0.932  0.00  0.00    -0.272 OA
ATOM     26  N   UNL     1       8.470  -0.275   0.623  0.00  0.00    -0.205 N 
ATOM     27  H   UNL     1       8.693  -1.164   0.304  0.00  0.00    +0.177 HD
BRANCH  26  28
ATOM     28  N   UNL     1       9.465   0.541   1.176  0.00  0.00    -0.188 NA
ATOM     29  C   UNL     1      10.686   0.108   1.262  0.00  0.00    +0.138 C 
BRANCH  29  30
ATOM     30  C   UNL     1      11.733   0.967   1.844  0.00  0.00    -0.005 A 
ATOM     31  C   UNL     1      11.417   2.249   2.299  0.00  0.00    +0.011 A 
ATOM     32  C   UNL     1      12.400   3.046   2.847  0.00  0.00    +0.020 A 
ATOM     33  C   UNL     1      13.701   2.581   2.938  0.00  0.00    +0.041 A 
ATOM     34  C   UNL     1      14.023   1.313   2.483  0.00  0.00    +0.020 A 
ATOM     35  C   UNL     1      13.048   0.504   1.938  0.00  0.00    +0.011 A 
ATOM     36 CL   UNL     1      14.935   3.592   3.623  0.00  0.00    -0.084 Cl
ENDBRANCH  29  30
ENDBRANCH  26  28
ENDBRANCH   1  24
TORSDOF 6
