REMARK  Name = ZINC47498063
REMARK  10 active torsions:
REMARK  status: ('A' for Active; 'I' for Inactive)
REMARK    1  A    between atoms: C_1  and  C_2
REMARK    2  A    between atoms: C_10  and  C_11
REMARK    3  A    between atoms: C_11  and  C_13
REMARK    4  A    between atoms: C_11  and  N_14
REMARK    5  A    between atoms: N_17  and  C_18
REMARK    6  A    between atoms: C_21  and  C_24
REMARK    7  A    between atoms: C_24  and  C_25
REMARK    8  A    between atoms: N_27  and  C_28
REMARK    9  A    between atoms: C_28  and  C_29
REMARK   10  A    between atoms: C_28  and  C_30
REMARK                            x       y       z     vdW  Elec       q    Type
REMARK                         _______ _______ _______ _____ _____    ______ ____
ROOT
ATOM      1  N   UNL     1      -0.933  -1.143   3.274  0.00  0.00    -0.290 N 
ATOM      2  C   UNL     1      -1.472  -0.637   4.400  0.00  0.00    +0.304 C 
ATOM      3  O   UNL     1      -1.161   0.477   4.776  0.00  0.00    -0.252 OA
ATOM      4  N   UNL     1      -2.355  -1.366   5.111  0.00  0.00    -0.269 N 
ATOM      5  H   UNL     1      -1.180  -2.032   2.974  0.00  0.00    +0.151 HD
ATOM      6  H   UNL     1      -2.654  -2.226   4.777  0.00  0.00    +0.156 HD
ENDROOT
BRANCH   4   7
ATOM      7  C   UNL     1      -2.841  -0.881   6.330  0.00  0.00    +0.035 A 
ATOM      8  C   UNL     1      -3.103  -1.760   7.374  0.00  0.00    +0.023 A 
ATOM      9  C   UNL     1      -3.583  -1.278   8.576  0.00  0.00    +0.006 A 
ATOM     10  C   UNL     1      -3.802   0.077   8.742  0.00  0.00    -0.039 A 
ATOM     11  C   UNL     1      -3.543   0.954   7.705  0.00  0.00    +0.006 A 
ATOM     12  C   UNL     1      -3.058   0.480   6.502  0.00  0.00    +0.023 A 
BRANCH  10  13
ATOM     13  C   UNL     1      -4.325   0.599  10.055  0.00  0.00    +0.130 C 
BRANCH  13  14
ATOM     14  C   UNL     1      -3.167   0.931  10.961  0.00  0.00    +0.218 C 
ATOM     15  O   UNL     1      -2.030   0.761  10.577  0.00  0.00    -0.275 OA
ATOM     16  N   UNL     1      -3.397   1.418  12.197  0.00  0.00    -0.313 N 
ATOM     17  H   UNL     1      -4.307   1.554  12.503  0.00  0.00    +0.149 HD
BRANCH  16  18
ATOM     18  C   UNL     1      -2.271   1.741  13.077  0.00  0.00    +0.067 C 
ATOM     19  C   UNL     1      -2.705   2.800  14.092  0.00  0.00    +0.027 C 
ATOM     20  C   UNL     1      -1.823   0.479  13.816  0.00  0.00    +0.027 C 
ENDBRANCH  16  18
ENDBRANCH  13  14
ENDBRANCH  10  13
ENDBRANCH   4   7
BRANCH   1  21
ATOM     21  C   UNL     1       0.028  -0.351   2.501  0.00  0.00    +0.138 C 
ATOM     22  C   UNL     1       1.430  -0.541   3.083  0.00  0.00    +0.036 C 
BRANCH  21  32
ATOM     23  C   UNL     1      -0.020   1.516   0.017  0.00  0.00    +0.048 C 
ATOM     24  C   UNL     1      -0.007   0.009   0.002  0.00  0.00    +0.000 A 
ATOM     25  C   UNL     1      -0.007  -0.860  -1.181  0.00  0.00    +0.023 A 
ATOM     26  C   UNL     1      -0.019  -0.634  -2.557  0.00  0.00    +0.012 A 
ATOM     27  C   UNL     1      -0.017  -1.696  -3.418  0.00  0.00    +0.001 A 
ATOM     28  C   UNL     1      -0.002  -2.995  -2.931  0.00  0.00    +0.004 A 
ATOM     29  C   UNL     1       0.010  -3.238  -1.574  0.00  0.00    +0.047 A 
ATOM     30  C   UNL     1       0.007  -2.173  -0.682  0.00  0.00    +0.136 A 
ATOM     31  O   UNL     1       0.016  -2.090   0.664  0.00  0.00    -0.458 OA
ATOM     32  C   UNL     1       0.014  -0.806   1.065  0.00  0.00    +0.129 A 
ENDBRANCH  21  32
ENDBRANCH   1  21
TORSDOF 6
