REMARK  Name = ZINC39836562
REMARK  9 active torsions:
REMARK  status: ('A' for Active; 'I' for Inactive)
REMARK    1  A    between atoms: C_1  and  C_2
REMARK    2  A    between atoms: C_2  and  C_3
REMARK    3  A    between atoms: C_2  and  C_4
REMARK    4  A    between atoms: C_2  and  C_5
REMARK    5  A    between atoms: C_12  and  N_25
REMARK    6  A    between atoms: C_13  and  C_14
REMARK    7  A    between atoms: N_16  and  C_17
REMARK    8  A    between atoms: C_26  and  C_28
REMARK    9  A    between atoms: C_28  and  C_29
REMARK                            x       y       z     vdW  Elec       q    Type
REMARK                         _______ _______ _______ _____ _____    ______ ____
ROOT
ATOM      1  C   UNL     1       0.718  -0.497  -1.257  0.00  0.00    -0.000 C 
ATOM      2  C   UNL     1      -0.017   0.013  -2.499  0.00  0.00    +0.009 C 
ATOM      3  C   UNL     1       0.538  -0.670  -3.751  0.00  0.00    +0.037 C 
ATOM      4  C   UNL     1       2.052  -0.516  -3.760  0.00  0.00    -0.023 A 
ATOM      5  C   UNL     1       2.731  -0.199  -2.636  0.00  0.00    -0.004 A 
ATOM      6  S   UNL     1       4.426  -0.134  -3.141  0.00  0.00    -0.077 S 
ATOM      7  C   UNL     1       4.255  -0.510  -4.768  0.00  0.00    +0.084 A 
ATOM      8  C   UNL     1       2.890  -0.688  -4.933  0.00  0.00    +0.069 A 
ATOM      9  C   UNL     1       2.158   0.038  -1.273  0.00  0.00    +0.046 C 
ENDROOT
BRANCH   1  11
ATOM     10  C   UNL     1      -0.019   1.526   0.010  0.00  0.00    +0.011 C 
ATOM     11  C   UNL     1       0.002  -0.004   0.002  0.00  0.00    -0.035 C 
ATOM     12  C   UNL     1       0.742  -0.511   1.242  0.00  0.00    +0.011 C 
ATOM     13  C   UNL     1      -1.433  -0.534   0.013  0.00  0.00    +0.011 C 
ENDBRANCH   1  11
BRANCH   8  14
ATOM     14  C   UNL     1       2.317  -1.035  -6.237  0.00  0.00    +0.247 C 
ATOM     15  O   UNL     1       1.973  -0.155  -7.004  0.00  0.00    -0.270 OA
ATOM     16  N   UNL     1       2.171  -2.329  -6.586  0.00  0.00    -0.307 N 
ATOM     17  H   UNL     1       2.445  -3.030  -5.975  0.00  0.00    +0.149 HD
BRANCH  16  18
ATOM     18  C   UNL     1       1.598  -2.675  -7.889  0.00  0.00    +0.096 C 
ATOM     19  C   UNL     1       2.710  -2.677  -8.951  0.00  0.00    +0.046 C 
ATOM     20  C   UNL     1       2.149  -3.345 -10.239  0.00  0.00    +0.168 C 
ATOM     21  S   UNL     1       1.188  -4.736  -9.507  0.00  0.00    -0.029 S 
ATOM     22  O   UNL     1       2.017  -5.887  -9.441  0.00  0.00    -0.174 OA
ATOM     23  O   UNL     1      -0.074  -4.818 -10.156  0.00  0.00    -0.174 OA
ATOM     24  C   UNL     1       0.946  -4.077  -7.807  0.00  0.00    +0.188 C 
ENDBRANCH  16  18
ENDBRANCH   8  14
BRANCH   7  25
ATOM     25  N   UNL     1       5.250  -0.618  -5.727  0.00  0.00    -0.279 N 
ATOM     26  C   UNL     1       6.538  -0.410  -5.388  0.00  0.00    +0.219 C 
ATOM     27  O   UNL     1       6.826  -0.129  -4.244  0.00  0.00    -0.275 OA
ATOM     28  H   UNL     1       5.020  -0.844  -6.642  0.00  0.00    +0.155 HD
BRANCH  26  29
ATOM     29  C   UNL     1       7.620  -0.528  -6.431  0.00  0.00    +0.120 C 
BRANCH  29  30
ATOM     30  C   UNL     1       8.980  -0.245  -5.788  0.00  0.00    +0.150 C 
ATOM     31  C   UNL     1      10.104  -0.330  -6.811  0.00  0.00    +0.234 C 
ATOM     32  O   UNL     1      10.168   0.414  -7.766  0.00  0.00    -0.274 OA
ATOM     33  N   UNL     1      11.006  -1.271  -6.585  0.00  0.00    -0.246 N 
ATOM     34  C   UNL     1      10.957  -2.108  -5.533  0.00  0.00    +0.279 C 
ATOM     35  O   UNL     1      11.735  -2.997  -5.245  0.00  0.00    -0.263 OA
ATOM     36  S   UNL     1       9.481  -1.608  -4.655  0.00  0.00    -0.054 S 
ATOM     37  H   UNL     1      11.741  -1.362  -7.212  0.00  0.00    +0.158 HD
ENDBRANCH  29  30
ENDBRANCH  26  29
ENDBRANCH   7  25
TORSDOF 6
