REMARK  Name = ZINC18200318
REMARK  6 active torsions:
REMARK  status: ('A' for Active; 'I' for Inactive)
REMARK    1  A    between atoms: C_1  and  O_2
REMARK    2  A    between atoms: O_2  and  C_3
REMARK    3  A    between atoms: C_7  and  O_9
REMARK    4  A    between atoms: O_9  and  C_10
REMARK    5  A    between atoms: C_11  and  C_21
REMARK    6  A    between atoms: C_24  and  C_27
REMARK                            x       y       z     vdW  Elec       q    Type
REMARK                         _______ _______ _______ _____ _____    ______ ____
ROOT
ATOM      1  C   UNL     1      -0.787   2.892   1.346  0.00  0.00    +0.125 A 
ATOM      2  C   UNL     1      -1.424   3.408   2.464  0.00  0.00    +0.069 A 
ATOM      3  C   UNL     1      -1.530   4.782   2.630  0.00  0.00    +0.042 A 
ATOM      4  C   UNL     1      -0.998   5.642   1.679  0.00  0.00    +0.027 A 
ATOM      5  C   UNL     1      -0.363   5.122   0.560  0.00  0.00    +0.129 A 
ATOM      6  C   UNL     1      -0.254   3.750   0.397  0.00  0.00    +0.091 A 
ATOM      7  C   UNL     1      -1.103   7.130   1.855  0.00  0.00    +0.089 C 
ATOM      8  C   UNL     1      -2.162   7.496   2.863  0.00  0.00    +0.024 C 
ATOM      9  C   UNL     1      -2.636   6.590   3.746  0.00  0.00    +0.016 C 
ATOM     10  N   UNL     1      -2.172   5.306   3.752  0.00  0.00    -0.317 N 
ATOM     11  C   UNL     1      -3.699   6.965   4.750  0.00  0.00    +0.051 C 
ATOM     12  C   UNL     1      -3.558   8.443   5.121  0.00  0.00    +0.014 C 
ATOM     13  C   UNL     1      -3.680   9.277   3.841  0.00  0.00    +0.080 C 
ATOM     14  C   UNL     1      -2.638   8.818   2.859  0.00  0.00    +0.162 C 
ATOM     15  O   UNL     1      -2.198   9.607   2.046  0.00  0.00    -0.292 OA
ATOM     16  H   UNL     1      -2.288   4.755   4.541  0.00  0.00    +0.152 HD
ENDROOT
BRANCH   7  17
ATOM     17  C   UNL     1       0.227   7.663   2.324  0.00  0.00    -0.035 A 
ATOM     18  C   UNL     1       0.748   7.252   3.536  0.00  0.00    +0.005 A 
ATOM     19  C   UNL     1       1.970   7.737   3.963  0.00  0.00    +0.012 A 
ATOM     20  C   UNL     1       2.666   8.641   3.183  0.00  0.00    +0.055 A 
ATOM     21  C   UNL     1       2.142   9.056   1.972  0.00  0.00    +0.012 A 
ATOM     22  C   UNL     1       0.923   8.567   1.543  0.00  0.00    +0.005 A 
BRANCH  20  23
ATOM     23  C   UNL     1       3.996   9.174   3.651  0.00  0.00    +0.417 C 
ATOM     24  F   UNL     1       3.793  10.336   4.403  0.00  0.00    -0.166 F 
ATOM     25  F   UNL     1       4.632   8.211   4.442  0.00  0.00    -0.166 F 
ATOM     26  F   UNL     1       4.796   9.469   2.542  0.00  0.00    -0.166 F 
ENDBRANCH  20  23
ENDBRANCH   7  17
BRANCH   1  28
ATOM     27  C   UNL     1      -0.013   1.086   0.008  0.00  0.00    +0.277 C 
ATOM     28  O   UNL     1      -0.682   1.547   1.184  0.00  0.00    -0.495 OA
ENDBRANCH   1  28
BRANCH   5  29
ATOM     29  O   UNL     1       0.156   5.960  -0.376  0.00  0.00    -0.495 OA
ATOM     30  C   UNL     1       0.796   5.358  -1.503  0.00  0.00    +0.277 C 
ENDBRANCH   5  29
TORSDOF 4
