REMARK  Name = ZINC67545063
REMARK  6 active torsions:
REMARK  status: ('A' for Active; 'I' for Inactive)
REMARK    1  A    between atoms: C_1  and  C_2
REMARK    2  A    between atoms: C_7  and  N_8
REMARK    3  A    between atoms: N_11  and  C_12
REMARK    4  A    between atoms: C_12  and  C_14
REMARK    5  A    between atoms: C_12  and  C_15
REMARK    6  A    between atoms: C_22  and  C_24
REMARK                            x       y       z     vdW  Elec       q    Type
REMARK                         _______ _______ _______ _____ _____    ______ ____
ROOT
ATOM      1  N   UNL     1       0.553  -0.348   2.453  0.00  0.00    -0.269 N 
ATOM      2  C   UNL     1       0.227  -0.911   3.633  0.00  0.00    +0.304 C 
ATOM      3  O   UNL     1       0.051  -2.112   3.706  0.00  0.00    -0.252 OA
ATOM      4  N   UNL     1       0.096  -0.142   4.733  0.00  0.00    -0.288 N 
ATOM      5  H   UNL     1       0.761   0.598   2.408  0.00  0.00    +0.156 HD
ATOM      6  H   UNL     1       0.236   0.816   4.674  0.00  0.00    +0.151 HD
ENDROOT
BRANCH   1  13
ATOM      7  C   UNL     1      -0.219   0.859  -0.005  0.00  0.00    +0.045 C 
ATOM      8  C   UNL     1       0.222  -0.580   0.071  0.00  0.00    -0.029 A 
ATOM      9  C   UNL     1       0.266  -1.351  -1.074  0.00  0.00    +0.006 A 
ATOM     10  C   UNL     1       0.671  -2.671  -1.005  0.00  0.00    +0.015 A 
ATOM     11  C   UNL     1       1.034  -3.224   0.211  0.00  0.00    +0.020 A 
ATOM     12  C   UNL     1       0.993  -2.457   1.360  0.00  0.00    +0.039 A 
ATOM     13  C   UNL     1       0.591  -1.129   1.292  0.00  0.00    +0.039 A 
ATOM     14 BR   UNL     1       1.587  -5.030   0.300  0.00  0.00    -0.050 Br
ENDBRANCH   1  13
BRANCH   4  15
ATOM     15  C   UNL     1      -0.259  -0.754   6.016  0.00  0.00    +0.157 C 
ATOM     16  C   UNL     1      -1.779  -0.894   6.111  0.00  0.00    +0.038 C 
BRANCH  15  17
ATOM     17  C   UNL     1       0.238   0.117   7.141  0.00  0.00    +0.236 C 
ATOM     18  O   UNL     1       0.686   1.218   6.904  0.00  0.00    -0.274 OA
ATOM     19  N   UNL     1       0.183  -0.329   8.412  0.00  0.00    -0.297 N 
ATOM     20  C   UNL     1      -0.286  -1.689   8.709  0.00  0.00    +0.108 C 
ATOM     21  C   UNL     1       0.773  -2.402   9.556  0.00  0.00    +0.019 C 
ATOM     22  C   UNL     1       1.081  -1.559  10.796  0.00  0.00    +0.003 C 
ATOM     23  C   UNL     1       1.641  -0.201  10.365  0.00  0.00    +0.022 C 
ATOM     24  C   UNL     1       0.598   0.534   9.527  0.00  0.00    +0.073 C 
ATOM     25  C   UNL     1       1.203   1.827   8.976  0.00  0.00    +0.028 C 
ENDBRANCH  15  17
ENDBRANCH   4  15
TORSDOF 3
