REMARK  Name = ZINC16322443
REMARK  11 active torsions:
REMARK  status: ('A' for Active; 'I' for Inactive)
REMARK    1  A    between atoms: C_1  and  C_2
REMARK    2  A    between atoms: C_2  and  C_4
REMARK    3  A    between atoms: C_2  and  N_14
REMARK    4  A    between atoms: C_7  and  C_10
REMARK    5  A    between atoms: C_10  and  C_11
REMARK    6  A    between atoms: C_11  and  C_12
REMARK    7  A    between atoms: C_11  and  C_13
REMARK    8  A    between atoms: C_15  and  C_17
REMARK    9  A    between atoms: C_17  and  S_18
REMARK   10  A    between atoms: S_18  and  C_19
REMARK   11  A    between atoms: N_32  and  C_33
REMARK                            x       y       z     vdW  Elec       q    Type
REMARK                         _______ _______ _______ _____ _____    ______ ____
ROOT
ATOM      1  C   UNL     1       2.736  -1.073  -2.455  0.00  0.00    +0.173 C 
ENDROOT
BRANCH   1   3
ATOM      2  N   UNL     1       0.688  -0.476  -1.203  0.00  0.00    -0.308 N 
ATOM      3  C   UNL     1       2.031  -0.587  -1.215  0.00  0.00    +0.224 C 
ATOM      4  O   UNL     1       2.672  -0.295  -0.228  0.00  0.00    -0.275 OA
ATOM      5  H   UNL     1       0.175  -0.710  -1.993  0.00  0.00    +0.149 HD
BRANCH   2   7
ATOM      6  C   UNL     1      -0.019   1.526   0.010  0.00  0.00    +0.033 C 
ATOM      7  C   UNL     1       0.002  -0.004   0.002  0.00  0.00    +0.100 C 
BRANCH   7   8
ATOM      8  C   UNL     1      -1.412  -0.526   0.013  0.00  0.00    -0.027 A 
ATOM      9  C   UNL     1      -2.141  -0.569  -1.161  0.00  0.00    +0.006 A 
ATOM     10  C   UNL     1      -3.438  -1.047  -1.151  0.00  0.00    +0.004 A 
ATOM     11  C   UNL     1      -4.005  -1.483   0.032  0.00  0.00    -0.047 A 
ATOM     12  C   UNL     1      -3.275  -1.441   1.205  0.00  0.00    +0.004 A 
ATOM     13  C   UNL     1      -1.977  -0.966   1.195  0.00  0.00    +0.006 A 
BRANCH  11  14
ATOM     14  C   UNL     1      -5.419  -2.004   0.043  0.00  0.00    +0.038 C 
BRANCH  14  15
ATOM     15  C   UNL     1      -5.409  -3.513  -0.210  0.00  0.00    -0.013 C 
ATOM     16  C   UNL     1      -4.709  -4.220   0.952  0.00  0.00    +0.007 C 
ATOM     17  C   UNL     1      -6.848  -4.021  -0.323  0.00  0.00    +0.007 C 
ENDBRANCH  14  15
ENDBRANCH  11  14
ENDBRANCH   7   8
ENDBRANCH   2   7
ENDBRANCH   1   3
BRANCH   1  18
ATOM     18  S   UNL     1       4.525  -1.111  -2.157  0.00  0.00    -0.076 S 
BRANCH  18  19
ATOM     19  C   UNL     1       5.198  -1.692  -3.678  0.00  0.00    +0.198 A 
ATOM     20  N   UNL     1       4.516  -2.005  -4.753  0.00  0.00    -0.120 NA
ATOM     21  N   UNL     1       5.422  -2.420  -5.736  0.00  0.00    -0.109 NA
ATOM     22  C   UNL     1       6.634  -2.349  -5.232  0.00  0.00    +0.240 A 
ATOM     23  N   UNL     1       6.526  -1.891  -3.947  0.00  0.00    -0.256 N 
ATOM     24  C   UNL     1       7.662  -1.709  -3.162  0.00  0.00    +0.064 A 
ATOM     25  C   UNL     1       7.563  -1.249  -1.858  0.00  0.00    +0.027 A 
ATOM     26  C   UNL     1       8.706  -1.077  -1.101  0.00  0.00    +0.002 A 
ATOM     27  C   UNL     1       9.953  -1.361  -1.634  0.00  0.00    +0.001 A 
ATOM     28  C   UNL     1      10.070  -1.819  -2.929  0.00  0.00    +0.015 A 
ATOM     29  C   UNL     1       8.925  -1.996  -3.703  0.00  0.00    +0.064 A 
ATOM     30  C   UNL     1       9.007  -2.484  -5.092  0.00  0.00    +0.263 A 
ATOM     31  O   UNL     1      10.084  -2.744  -5.593  0.00  0.00    -0.267 OA
ATOM     32  N   UNL     1       7.867  -2.647  -5.793  0.00  0.00    -0.280 N 
ATOM     33  C   UNL     1       7.932  -3.129  -7.175  0.00  0.00    +0.155 C 
ENDBRANCH  18  19
ENDBRANCH   1  18
TORSDOF 7
