REMARK  Name = ZINC63426619
REMARK  11 active torsions:
REMARK  status: ('A' for Active; 'I' for Inactive)
REMARK    1  A    between atoms: C_1  and  C_2
REMARK    2  A    between atoms: C_2  and  C_3
REMARK    3  A    between atoms: C_2  and  C_4
REMARK    4  A    between atoms: C_2  and  N_5
REMARK    5  A    between atoms: C_6  and  C_8
REMARK    6  A    between atoms: C_8  and  S_9
REMARK    7  A    between atoms: S_9  and  C_10
REMARK    8  A    between atoms: C_15  and  N_19
REMARK    9  A    between atoms: C_20  and  C_22
REMARK   10  A    between atoms: C_22  and  S_23
REMARK   11  A    between atoms: S_23  and  C_24
REMARK                            x       y       z     vdW  Elec       q    Type
REMARK                         _______ _______ _______ _____ _____    ______ ____
ROOT
ATOM      1  C   UNL     1       5.085  -0.653  -4.152  0.00  0.00    +0.136 A 
ATOM      2  N   UNL     1       4.506  -1.404  -5.061  0.00  0.00    -0.233 NA
ATOM      3  C   UNL     1       5.152  -1.827  -6.172  0.00  0.00    +0.080 A 
ATOM      4  C   UNL     1       4.648  -2.633  -7.218  0.00  0.00    +0.031 A 
ATOM      5  C   UNL     1       5.439  -2.976  -8.283  0.00  0.00    +0.025 A 
ATOM      6  C   UNL     1       6.761  -2.546  -8.374  0.00  0.00    +0.035 A 
ATOM      7  C   UNL     1       7.286  -1.753  -7.362  0.00  0.00    +0.040 A 
ATOM      8  C   UNL     1       6.496  -1.408  -6.295  0.00  0.00    +0.042 A 
ATOM      9  S   UNL     1       6.728  -0.441  -4.822  0.00  0.00    -0.061 S 
ENDROOT
BRANCH   6  10
ATOM     10  N   UNL     1       7.551  -2.910  -9.472  0.00  0.00    -0.285 N 
ATOM     11  C   UNL     1       8.466  -2.049  -9.959  0.00  0.00    +0.227 C 
ATOM     12  O   UNL     1       8.664  -0.993  -9.396  0.00  0.00    -0.275 OA
ATOM     13  H   UNL     1       7.440  -3.782  -9.882  0.00  0.00    +0.155 HD
BRANCH  11  14
ATOM     14  C   UNL     1       9.242  -2.397 -11.203  0.00  0.00    +0.169 C 
BRANCH  14  15
ATOM     15  S   UNL     1      10.385  -1.046 -11.601  0.00  0.00    -0.106 S 
BRANCH  15  16
ATOM     16  C   UNL     1      11.230  -1.614 -13.102  0.00  0.00    +0.236 C 
ATOM     17  N   UNL     1      10.248  -1.908 -14.153  0.00  0.00    -0.355 N 
ATOM     18  C   UNL     1      10.369  -3.167 -14.459  0.00  0.00    +0.061 A 
ATOM     19  C   UNL     1       9.675  -4.033 -15.422  0.00  0.00    +0.027 A 
ATOM     20  C   UNL     1      10.022  -5.331 -15.521  0.00  0.00    +0.002 A 
ATOM     21  C   UNL     1      11.035  -5.907 -14.733  0.00  0.00    +0.002 A 
ATOM     22  C   UNL     1      11.734  -5.204 -13.820  0.00  0.00    +0.027 A 
ATOM     23  C   UNL     1      11.440  -3.777 -13.624  0.00  0.00    +0.061 A 
ATOM     24  N   UNL     1      11.941  -2.871 -12.835  0.00  0.00    -0.355 N 
ATOM     25  H   UNL     1       9.624  -1.279 -14.547  0.00  0.00    +0.162 HD
ATOM     26  H   UNL     1      12.653  -3.002 -12.189  0.00  0.00    +0.162 HD
ENDBRANCH  15  16
ENDBRANCH  14  15
ENDBRANCH  11  14
ENDBRANCH   6  10
BRANCH   1  27
ATOM     27  S   UNL     1       4.410  -0.011  -2.656  0.00  0.00    -0.089 S 
BRANCH  27  28
ATOM     28  C   UNL     1       2.707  -0.635  -2.640  0.00  0.00    +0.172 C 
BRANCH  28  30
ATOM     29  N   UNL     1       0.724  -0.495  -1.168  0.00  0.00    -0.310 N 
ATOM     30  C   UNL     1       2.007  -0.152  -1.395  0.00  0.00    +0.224 C 
ATOM     31  O   UNL     1       2.599   0.544  -0.598  0.00  0.00    -0.275 OA
ATOM     32  H   UNL     1       0.250  -1.052  -1.806  0.00  0.00    +0.149 HD
BRANCH  29  34
ATOM     33  C   UNL     1       0.026   1.504   0.056  0.00  0.00    +0.031 C 
ATOM     34  C   UNL     1       0.043  -0.026   0.042  0.00  0.00    +0.026 C 
ATOM     35  C   UNL     1       0.787  -0.539   1.276  0.00  0.00    +0.031 C 
ATOM     36  C   UNL     1      -1.393  -0.552   0.056  0.00  0.00    +0.031 C 
ENDBRANCH  29  34
ENDBRANCH  28  30
ENDBRANCH  27  28
ENDBRANCH   1  27
TORSDOF 8
