REMARK  Name = ZINC02768106
REMARK  9 active torsions:
REMARK  status: ('A' for Active; 'I' for Inactive)
REMARK    1  A    between atoms: C_1  and  C_2
REMARK    2  A    between atoms: C_2  and  O_3
REMARK    3  A    between atoms: O_3  and  C_4
REMARK    4  A    between atoms: C_4  and  C_6
REMARK    5  A    between atoms: C_7  and  N_32
REMARK    6  A    between atoms: C_11  and  C_13
REMARK    7  A    between atoms: C_16  and  C_18
REMARK    8  A    between atoms: C_18  and  O_19
REMARK    9  A    between atoms: O_19  and  C_20
REMARK                            x       y       z     vdW  Elec       q    Type
REMARK                         _______ _______ _______ _____ _____    ______ ____
ROOT
ATOM      1  C   UNL     1       1.194  -2.545   1.210  0.00  0.00    +0.108 C 
ATOM      2  C   UNL     1       0.235  -3.498   1.108  0.00  0.00    +0.195 C 
ATOM      3  O   UNL     1      -0.400  -3.726  -0.051  0.00  0.00    -0.446 OA
ATOM      4  C   UNL     1       0.171  -3.353  -1.212  0.00  0.00    +0.115 C 
ATOM      5  C   UNL     1       1.115  -2.395  -1.252  0.00  0.00    +0.048 C 
ATOM      6  C   UNL     1       1.578  -1.718   0.015  0.00  0.00    +0.133 C 
ATOM      7  C   UNL     1       1.698  -1.993  -2.470  0.00  0.00    +0.163 C 
ATOM      8  O   UNL     1       2.558  -1.136  -2.465  0.00  0.00    -0.292 OA
ATOM      9  C   UNL     1       1.273  -2.605  -3.777  0.00  0.00    +0.080 C 
ATOM     10  C   UNL     1      -0.181  -3.072  -3.656  0.00  0.00    +0.016 C 
ATOM     11  C   UNL     1      -0.282  -4.042  -2.477  0.00  0.00    +0.075 C 
ENDROOT
BRANCH   6  12
ATOM     12  C   UNL     1       0.932  -0.360   0.120  0.00  0.00    +0.118 A 
ATOM     13  C   UNL     1       1.581   0.818   0.173  0.00  0.00    +0.046 A 
ATOM     14  C   UNL     1       0.594   1.825   0.268  0.00  0.00    +0.048 A 
ATOM     15  C   UNL     1      -0.599   1.204   0.267  0.00  0.00    +0.142 A 
ATOM     16  O   UNL     1      -0.388  -0.120   0.177  0.00  0.00    -0.460 OA
BRANCH  15  17
ATOM     17  C   UNL     1      -1.944   1.878   0.346  0.00  0.00    +0.303 C 
BRANCH  17  18
ATOM     18  O   UNL     1      -2.407   2.176  -0.973  0.00  0.00    -0.484 OA
BRANCH  18  19
ATOM     19  C   UNL     1      -3.614   2.790  -1.079  0.00  0.00    +0.121 A 
ATOM     20  C   UNL     1      -4.342   3.094   0.062  0.00  0.00    +0.047 A 
ATOM     21  C   UNL     1      -5.566   3.724  -0.048  0.00  0.00    +0.019 A 
ATOM     22  C   UNL     1      -6.073   4.040  -1.296  0.00  0.00    +0.018 A 
ATOM     23  C   UNL     1      -5.352   3.732  -2.436  0.00  0.00    +0.019 A 
ATOM     24  C   UNL     1      -4.124   3.108  -2.330  0.00  0.00    +0.047 A 
ATOM     25 BR   UNL     1      -7.753   4.895  -1.444  0.00  0.00    -0.050 Br
ENDBRANCH  18  19
ENDBRANCH  17  18
ENDBRANCH  15  17
ENDBRANCH   6  12
BRANCH   2  26
ATOM     26  N   UNL     1      -0.093  -4.242   2.210  0.00  0.00    -0.329 N 
ATOM     27  H   UNL     1      -0.835  -4.865   2.171  0.00  0.00    +0.145 HD
ATOM     28  H   UNL     1       0.417  -4.145   3.030  0.00  0.00    +0.145 HD
ENDBRANCH   2  26
BRANCH   1  29
ATOM     29  C   UNL     1       1.834  -2.332   2.441  0.00  0.00    +0.341 C 
ATOM     30  O   UNL     1       2.947  -2.787   2.635  0.00  0.00    -0.245 OA
BRANCH  29  31
ATOM     31  O   UNL     1       1.215  -1.624   3.410  0.00  0.00    -0.462 OA
BRANCH  31  33
ATOM     32  C   UNL     1       1.071  -0.624   5.605  0.00  0.00    +0.048 C 
ATOM     33  C   UNL     1       1.924  -1.446   4.637  0.00  0.00    +0.229 C 
ENDBRANCH  31  33
ENDBRANCH  29  31
ENDBRANCH   1  29
TORSDOF 8
