REMARK  Name = ZINC38990377
REMARK  6 active torsions:
REMARK  status: ('A' for Active; 'I' for Inactive)
REMARK    1  A    between atoms: C_1  and  C_2
REMARK    2  A    between atoms: C_4  and  C_15
REMARK    3  A    between atoms: C_5  and  C_14
REMARK    4  A    between atoms: N_7  and  C_8
REMARK    5  A    between atoms: N_16  and  N_17
REMARK    6  A    between atoms: C_18  and  C_24
REMARK                            x       y       z     vdW  Elec       q    Type
REMARK                         _______ _______ _______ _____ _____    ______ ____
ROOT
ATOM      1  C   UNL     1       0.446  -0.306  -2.559  0.00  0.00    +0.137 C 
ATOM      2  N   UNL     1       1.209  -0.795  -3.496  0.00  0.00    -0.184 NA
ENDROOT
BRANCH   1   5
ATOM      3  C   UNL     1      -0.054   1.494   0.019  0.00  0.00    +0.035 C 
ATOM      4  C   UNL     1      -0.015  -0.036   0.003  0.00  0.00    +0.124 C 
ATOM      5  C   UNL     1       0.764  -0.532  -1.196  0.00  0.00    +0.012 C 
ATOM      6  C   UNL     1       1.812  -1.226  -0.725  0.00  0.00    +0.025 C 
ATOM      7  N   UNL     1       1.826  -1.252   0.645  0.00  0.00    -0.267 N 
ATOM      8  N   UNL     1       0.732  -0.543   1.167  0.00  0.00    -0.246 N 
ATOM      9  C   UNL     1       2.846  -1.893  -1.596  0.00  0.00    +0.062 C 
ATOM     10  H   UNL     1       2.498  -1.700   1.181  0.00  0.00    +0.170 HD
BRANCH   8  11
ATOM     11  C   UNL     1       0.417  -0.354   2.514  0.00  0.00    +0.048 A 
ATOM     12  C   UNL     1      -0.711   0.376   2.869  0.00  0.00    +0.025 A 
ATOM     13  C   UNL     1      -1.020   0.560   4.202  0.00  0.00    +0.002 A 
ATOM     14  C   UNL     1      -0.209   0.020   5.183  0.00  0.00    +0.000 A 
ATOM     15  C   UNL     1       0.914  -0.706   4.833  0.00  0.00    +0.002 A 
ATOM     16  C   UNL     1       1.226  -0.899   3.502  0.00  0.00    +0.025 A 
ENDBRANCH   8  11
ENDBRANCH   1   5
BRANCH   2  17
ATOM     17  N   UNL     1       0.838  -0.665  -4.840  0.00  0.00    -0.173 N 
ATOM     18  C   UNL     1       1.499  -1.254  -6.020  0.00  0.00    +0.264 C 
ATOM     19  N   UNL     1       0.683  -0.785  -7.151  0.00  0.00    -0.189 NA
ATOM     20  N   UNL     1      -0.231  -0.088  -6.702  0.00  0.00    -0.219 N 
ATOM     21  C   UNL     1      -0.208   0.024  -5.347  0.00  0.00    +0.174 C 
ATOM     22  S   UNL     1      -1.340   0.911  -4.418  0.00  0.00    -0.015 S 
ATOM     23  H   UNL     1      -0.902   0.335  -7.260  0.00  0.00    +0.176 HD
BRANCH  18  24
ATOM     24  C   UNL     1       2.914  -0.750  -6.140  0.00  0.00    +0.001 A 
ATOM     25  C   UNL     1       3.643  -0.405  -5.012  0.00  0.00    +0.025 A 
ATOM     26  C   UNL     1       4.938   0.053  -5.161  0.00  0.00    +0.083 A 
ATOM     27  N   UNL     1       5.481   0.164  -6.357  0.00  0.00    -0.367 N 
ATOM     28  C   UNL     1       4.818  -0.156  -7.452  0.00  0.00    +0.083 A 
ATOM     29  C   UNL     1       3.521  -0.627  -7.381  0.00  0.00    +0.025 A 
ATOM     30  H   UNL     1       6.392   0.488  -6.435  0.00  0.00    +0.165 HD
ENDBRANCH  18  24
ENDBRANCH   2  17
TORSDOF 4
