REMARK  Name = ZINC50395152
REMARK  3 active torsions:
REMARK  status: ('A' for Active; 'I' for Inactive)
REMARK    1  A    between atoms: C_5  and  C_6
REMARK    2  A    between atoms: C_6  and  N_7
REMARK    3  A    between atoms: N_7  and  C_8
REMARK                            x       y       z     vdW  Elec       q    Type
REMARK                         _______ _______ _______ _____ _____    ______ ____
ROOT
ATOM      1  N   UNL     1      -1.615  -1.186  -1.373  0.00  0.00    +0.391 N 
ATOM      2  H   UNL     1      -1.518  -0.855  -0.425  0.00  0.00    -0.084 HD
ATOM      3  H   UNL     1      -1.698  -0.398  -1.998  0.00  0.00    -0.084 HD
ENDROOT
BRANCH   1   4
ATOM      4  C   UNL     1      -2.818  -2.023  -1.479  0.00  0.00    +0.017 C 
ATOM      5  C   UNL     1      -3.038  -2.416  -2.942  0.00  0.00    -0.005 C 
ATOM      6  C   UNL     1      -4.429  -3.047  -3.070  0.00  0.00    +0.018 C 
ATOM      7  C   UNL     1      -5.482  -1.968  -2.815  0.00  0.00    +0.104 C 
ATOM      8  N   UNL     1      -5.196  -1.260  -1.573  0.00  0.00    -0.317 N 
ATOM      9  C   UNL     1      -4.006  -1.255  -0.974  0.00  0.00    +0.199 C 
ATOM     10  O   UNL     1      -3.876  -0.595   0.035  0.00  0.00    -0.278 OA
ATOM     11  H   UNL     1      -5.917  -0.761  -1.158  0.00  0.00    +0.149 HD
ENDBRANCH   1   4
BRANCH   1  12
ATOM     12  C   UNL     1      -0.434  -1.979  -1.738  0.00  0.00    -0.006 C 
BRANCH  12  17
ATOM     13  C   UNL     1       1.521  -1.114  -0.366  0.00  0.00    +0.044 A 
ATOM     14  C   UNL     1       2.600  -0.229  -0.591  0.00  0.00    +0.056 A 
ATOM     15  C   UNL     1       2.485   0.212  -1.857  0.00  0.00    +0.165 A 
ATOM     16  O   UNL     1       1.399  -0.356  -2.407  0.00  0.00    -0.456 OA
ATOM     17  C   UNL     1       0.811  -1.161  -1.508  0.00  0.00    +0.090 A 
ATOM     18  I   UNL     1       3.779   1.558  -2.808  0.00  0.00    -0.001 I 
ENDBRANCH  12  17
ENDBRANCH   1  12
TORSDOF 3
