REMARK  Name = ZINC13981171
REMARK  12 active torsions:
REMARK  status: ('A' for Active; 'I' for Inactive)
REMARK    1  A    between atoms: C_1  and  C_2
REMARK    2  A    between atoms: C_2  and  C_3
REMARK    3  A    between atoms: C_2  and  C_4
REMARK    4  A    between atoms: C_7  and  O_10
REMARK    5  A    between atoms: O_10  and  C_11
REMARK    6  A    between atoms: C_11  and  C_12
REMARK    7  A    between atoms: N_14  and  N_15
REMARK    8  A    between atoms: N_15  and  C_16
REMARK    9  A    between atoms: C_16  and  N_18
REMARK   10  A    between atoms: C_19  and  C_21
REMARK   11  A    between atoms: C_21  and  C_22
REMARK   12  A    between atoms: C_21  and  C_28
REMARK                            x       y       z     vdW  Elec       q    Type
REMARK                         _______ _______ _______ _____ _____    ______ ____
ROOT
ATOM      1  C   UNL     1       4.169   8.992   0.119  0.00  0.00    +0.153 C 
ATOM      2  S   UNL     1       4.082  10.701   0.163  0.00  0.00    -0.017 S 
ENDROOT
BRANCH   1   3
ATOM      3  N   UNL     1       5.368   8.379   0.061  0.00  0.00    -0.266 N 
ATOM      4  C   UNL     1       6.498   9.112   0.037  0.00  0.00    +0.230 C 
ATOM      5  O   UNL     1       6.437  10.322   0.068  0.00  0.00    -0.274 OA
ATOM      6  H   UNL     1       5.417   7.410   0.037  0.00  0.00    +0.157 HD
BRANCH   4   7
ATOM      7  C   UNL     1       7.839   8.427  -0.028  0.00  0.00    +0.135 C 
BRANCH   7   8
ATOM      8  C   UNL     1       8.933   9.463  -0.044  0.00  0.00    -0.031 A 
ATOM      9  C   UNL     1       8.983  10.430   0.942  0.00  0.00    +0.005 A 
ATOM     10  C   UNL     1       9.989  11.378   0.931  0.00  0.00    +0.000 A 
ATOM     11  C   UNL     1      10.939  11.365  -0.073  0.00  0.00    +0.000 A 
ATOM     12  C   UNL     1      10.886  10.402  -1.063  0.00  0.00    +0.000 A 
ATOM     13  C   UNL     1       9.883   9.451  -1.048  0.00  0.00    +0.005 A 
ENDBRANCH   7   8
BRANCH   7  14
ATOM     14  C   UNL     1       8.008   7.537   1.176  0.00  0.00    -0.031 A 
ATOM     15  C   UNL     1       7.801   8.045   2.445  0.00  0.00    +0.005 A 
ATOM     16  C   UNL     1       7.951   7.228   3.550  0.00  0.00    +0.000 A 
ATOM     17  C   UNL     1       8.317   5.905   3.386  0.00  0.00    +0.000 A 
ATOM     18  C   UNL     1       8.530   5.398   2.118  0.00  0.00    +0.000 A 
ATOM     19  C   UNL     1       8.375   6.214   1.013  0.00  0.00    +0.005 A 
ENDBRANCH   7  14
ENDBRANCH   4   7
ENDBRANCH   1   3
BRANCH   1  20
ATOM     20  N   UNL     1       3.038   8.259   0.144  0.00  0.00    -0.245 N 
ATOM     21  H   UNL     1       2.175   8.700   0.185  0.00  0.00    +0.172 HD
BRANCH  20  24
ATOM     22  C   UNL     1       1.978   6.127   0.132  0.00  0.00    +0.267 C 
ATOM     23  O   UNL     1       0.899   6.679   0.185  0.00  0.00    -0.271 OA
ATOM     24  N   UNL     1       3.109   6.860   0.108  0.00  0.00    -0.232 N 
ATOM     25  H   UNL     1       3.972   6.419   0.066  0.00  0.00    +0.173 HD
BRANCH  22  26
ATOM     26  C   UNL     1       2.054   4.623   0.094  0.00  0.00    +0.326 C 
BRANCH  26  27
ATOM     27  O   UNL     1       0.734   4.078   0.130  0.00  0.00    -0.483 OA
BRANCH  27  31
ATOM     28  C   UNL     1       0.401  -0.033   0.045  0.00  0.00    -0.045 A 
ATOM     29  C   UNL     1      -0.737   0.750   0.105  0.00  0.00    +0.007 A 
ATOM     30  C   UNL     1      -0.628   2.127   0.134  0.00  0.00    +0.046 A 
ATOM     31  C   UNL     1       0.624   2.724   0.102  0.00  0.00    +0.121 A 
ATOM     32  C   UNL     1       1.764   1.935   0.042  0.00  0.00    +0.046 A 
ATOM     33  C   UNL     1       1.650   0.559   0.013  0.00  0.00    +0.007 A 
BRANCH  28  35
ATOM     34  C   UNL     1       0.910  -2.072  -1.272  0.00  0.00    +0.012 C 
ATOM     35  C   UNL     1       0.279  -1.535   0.014  0.00  0.00    +0.013 C 
ATOM     36  C   UNL     1       1.003  -2.130   1.224  0.00  0.00    +0.012 C 
ENDBRANCH  28  35
ENDBRANCH  27  31
ENDBRANCH  26  27
ENDBRANCH  22  26
ENDBRANCH  20  24
ENDBRANCH   1  20
TORSDOF 10
