REMARK  Name = ZINC09409153
REMARK  13 active torsions:
REMARK  status: ('A' for Active; 'I' for Inactive)
REMARK    1  A    between atoms: C_1  and  C_2
REMARK    2  A    between atoms: C_2  and  C_3
REMARK    3  A    between atoms: C_3  and  C_4
REMARK    4  A    between atoms: C_4  and  O_5
REMARK    5  A    between atoms: O_5  and  C_6
REMARK    6  A    between atoms: C_9  and  C_14
REMARK    7  A    between atoms: C_11  and  O_12
REMARK    8  A    between atoms: O_12  and  C_13
REMARK    9  A    between atoms: C_17  and  C_33
REMARK   10  A    between atoms: N_24  and  C_25
REMARK   11  A    between atoms: C_25  and  C_26
REMARK   12  A    between atoms: C_26  and  C_27
REMARK   13  A    between atoms: C_38  and  O_39
REMARK                            x       y       z     vdW  Elec       q    Type
REMARK                         _______ _______ _______ _____ _____    ______ ____
ROOT
ATOM      1  C   UNL     1       1.894  -8.068   2.963  0.00  0.00    +0.141 C 
ATOM      2  C   UNL     1       2.894  -8.634   1.994  0.00  0.00    +0.035 A 
ATOM      3  C   UNL     1       4.218  -8.655   1.543  0.00  0.00    +0.102 A 
ATOM      4  N   UNL     1       4.281  -9.512   0.543  0.00  0.00    -0.173 NA
ATOM      5  N   UNL     1       3.129 -10.035   0.319  0.00  0.00    -0.272 N 
ATOM      6  H   UNL     1       2.939 -10.692  -0.369  0.00  0.00    +0.189 HD
ATOM      7  C   UNL     1       2.210  -9.529   1.193  0.00  0.00    +0.126 A 
ATOM      8  C   UNL     1       0.806  -9.554   1.617  0.00  0.00    +0.265 C 
ATOM      9  O   UNL     1      -0.060 -10.243   1.111  0.00  0.00    -0.268 OA
ATOM     10  N   UNL     1       0.611  -8.709   2.647  0.00  0.00    -0.285 N 
ENDROOT
BRANCH   1  14
ATOM     11  C   UNL     1       1.590  -3.832   2.462  0.00  0.00    +0.162 A 
ATOM     12  C   UNL     1       2.123  -4.357   3.627  0.00  0.00    +0.050 A 
ATOM     13  C   UNL     1       2.220  -5.727   3.787  0.00  0.00    +0.009 A 
ATOM     14  C   UNL     1       1.786  -6.575   2.785  0.00  0.00    -0.019 A 
ATOM     15  C   UNL     1       1.253  -6.057   1.619  0.00  0.00    +0.055 A 
ATOM     16  C   UNL     1       1.148  -4.685   1.455  0.00  0.00    +0.162 A 
BRANCH  16  17
ATOM     17  O   UNL     1       0.619  -4.173   0.312  0.00  0.00    -0.491 OA
ATOM     18  C   UNL     1       0.186  -5.109  -0.678  0.00  0.00    +0.277 C 
ENDBRANCH  16  17
BRANCH  11  19
ATOM     19  O   UNL     1       1.494  -2.484   2.304  0.00  0.00    -0.488 OA
BRANCH  19  20
ATOM     20  C   UNL     1       1.968  -1.669   3.378  0.00  0.00    +0.229 C 
BRANCH  20  21
ATOM     21  C   UNL     1       1.779  -0.194   3.020  0.00  0.00    +0.041 C 
BRANCH  21  23
ATOM     22  C   UNL     1       2.098   2.154   3.813  0.00  0.00    +0.004 C 
ATOM     23  C   UNL     1       2.287   0.678   4.170  0.00  0.00    -0.000 C 
ENDBRANCH  21  23
ENDBRANCH  20  21
ENDBRANCH  19  20
ENDBRANCH  11  19
ENDBRANCH   1  14
BRANCH   3  24
ATOM     24  C   UNL     1       5.345  -7.857   2.088  0.00  0.00    +0.044 A 
ATOM     25  C   UNL     1       5.165  -7.084   3.232  0.00  0.00    +0.014 A 
ATOM     26  C   UNL     1       6.215  -6.344   3.736  0.00  0.00    +0.001 A 
ATOM     27  C   UNL     1       7.448  -6.368   3.109  0.00  0.00    +0.004 A 
ATOM     28  C   UNL     1       7.638  -7.132   1.973  0.00  0.00    +0.046 A 
ATOM     29  C   UNL     1       6.593  -7.884   1.460  0.00  0.00    +0.126 A 
BRANCH  29  30
ATOM     30  O   UNL     1       6.780  -8.641   0.347  0.00  0.00    -0.506 OA
ATOM     31  H   UNL     1       6.594  -8.176  -0.480  0.00  0.00    +0.292 HD
ENDBRANCH  29  30
ENDBRANCH   3  24
BRANCH  10  32
ATOM     32  C   UNL     1      -0.661  -8.468   3.333  0.00  0.00    +0.114 C 
BRANCH  32  33
ATOM     33  C   UNL     1      -1.405  -7.324   2.643  0.00  0.00    +0.054 C 
BRANCH  33  34
ATOM     34  C   UNL     1      -2.713  -7.076   3.349  0.00  0.00    -0.046 A 
ATOM     35  C   UNL     1      -3.851  -7.754   2.953  0.00  0.00    +0.004 A 
ATOM     36  C   UNL     1      -5.051  -7.527   3.601  0.00  0.00    +0.000 A 
ATOM     37  C   UNL     1      -5.113  -6.623   4.645  0.00  0.00    +0.000 A 
ATOM     38  C   UNL     1      -3.975  -5.946   5.041  0.00  0.00    +0.000 A 
ATOM     39  C   UNL     1      -2.774  -6.176   4.396  0.00  0.00    +0.004 A 
ENDBRANCH  33  34
ENDBRANCH  32  33
ENDBRANCH  10  32
TORSDOF 11
