REMARK  Name = ZINC22574530
REMARK  8 active torsions:
REMARK  status: ('A' for Active; 'I' for Inactive)
REMARK    1  A    between atoms: C_1  and  C_2
REMARK    2  A    between atoms: C_11  and  N_34
REMARK    3  A    between atoms: C_13  and  S_15
REMARK    4  A    between atoms: S_15  and  C_16
REMARK    5  A    between atoms: C_16  and  C_17
REMARK    6  A    between atoms: N_19  and  N_20
REMARK    7  A    between atoms: C_23  and  C_27
REMARK    8  A    between atoms: C_23  and  C_28
REMARK                            x       y       z     vdW  Elec       q    Type
REMARK                         _______ _______ _______ _____ _____    ______ ____
ROOT
ATOM      1  C   UNL     1      -1.195   6.230   1.266  0.00  0.00    +0.174 C 
ENDROOT
BRANCH   1   2
ATOM      2  C   UNL     1      -1.255   7.663   1.728  0.00  0.00    +0.240 C 
ATOM      3  O   UNL     1      -0.239   8.321   1.800  0.00  0.00    -0.273 OA
ATOM      4  N   UNL     1      -2.439   8.215   2.060  0.00  0.00    -0.223 N 
ATOM      5  H   UNL     1      -3.362   7.619   1.994  0.00  0.00    +0.174 HD
BRANCH   4   6
ATOM      6  N   UNL     1      -2.495   9.547   2.490  0.00  0.00    -0.137 N 
ATOM      7  C   UNL     1      -2.948  10.568   1.734  0.00  0.00    +0.267 C 
ATOM      8  O   UNL     1      -3.365  10.508   0.598  0.00  0.00    -0.271 OA
ATOM      9  C   UNL     1      -2.824  11.805   2.601  0.00  0.00    +0.137 C 
ATOM     10  N   UNL     1      -2.264  11.290   3.862  0.00  0.00    -0.280 N 
ATOM     11  C   UNL     1      -2.112   9.963   3.702  0.00  0.00    +0.327 C 
ATOM     12  O   UNL     1      -1.673   9.225   4.562  0.00  0.00    -0.251 OA
ATOM     13  C   UNL     1      -1.873  12.819   1.960  0.00  0.00    +0.047 C 
ATOM     14  H   UNL     1      -2.060  11.979   4.695  0.00  0.00    +0.152 HD
BRANCH   9  15
ATOM     15  C   UNL     1      -4.178  12.425   2.835  0.00  0.00    -0.015 A 
ATOM     16  C   UNL     1      -5.168  12.307   1.878  0.00  0.00    +0.006 A 
ATOM     17  C   UNL     1      -6.410  12.872   2.095  0.00  0.00    +0.000 A 
ATOM     18  C   UNL     1      -6.660  13.563   3.265  0.00  0.00    +0.000 A 
ATOM     19  C   UNL     1      -5.669  13.686   4.221  0.00  0.00    +0.000 A 
ATOM     20  C   UNL     1      -4.427  13.117   4.006  0.00  0.00    +0.006 A 
ENDBRANCH   9  15
ENDBRANCH   4   6
ENDBRANCH   1   2
BRANCH   1  21
ATOM     21  S   UNL     1       0.521   5.787   0.897  0.00  0.00    -0.077 S 
BRANCH  21  33
ATOM     22  C   UNL     1       0.211  -3.952  -2.226  0.00  0.00    +0.008 C 
ATOM     23  C   UNL     1       0.040  -2.444  -2.036  0.00  0.00    -0.009 C 
ATOM     24  C   UNL     1      -0.986  -2.179  -0.930  0.00  0.00    +0.008 C 
ATOM     25  C   UNL     1      -1.345  -0.693  -0.901  0.00  0.00    +0.037 C 
ATOM     26  C   UNL     1      -0.058   0.124  -0.816  0.00  0.00    -0.025 A 
ATOM     27  C   UNL     1       1.128  -0.423  -1.148  0.00  0.00    -0.004 A 
ATOM     28  S   UNL     1       2.318   0.867  -0.899  0.00  0.00    -0.073 S 
ATOM     29  C   UNL     1       1.217   2.144  -0.349  0.00  0.00    +0.115 A 
ATOM     30  C   UNL     1      -0.046   1.521  -0.377  0.00  0.00    +0.051 A 
ATOM     31  C   UNL     1      -1.141   2.334   0.031  0.00  0.00    +0.129 A 
ATOM     32  N   UNL     1      -0.916   3.587   0.392  0.00  0.00    -0.207 NA
ATOM     33  C   UNL     1       0.303   4.112   0.396  0.00  0.00    +0.191 A 
ATOM     34  N   UNL     1       1.361   3.400   0.030  0.00  0.00    -0.214 NA
ATOM     35  C   UNL     1       1.381  -1.821  -1.623  0.00  0.00    +0.046 C 
BRANCH  31  36
ATOM     36  N   UNL     1      -2.425   1.822   0.046  0.00  0.00    -0.343 N 
ATOM     37  H   UNL     1      -3.267   2.455   0.362  0.00  0.00    +0.144 HD
ATOM     38  H   UNL     1      -2.605   0.780  -0.259  0.00  0.00    +0.144 HD
ENDBRANCH  31  36
ENDBRANCH  21  33
ENDBRANCH   1  21
TORSDOF 6
