REMARK  Name = ZINC09944575
REMARK  12 active torsions:
REMARK  status: ('A' for Active; 'I' for Inactive)
REMARK    1  A    between atoms: C_1  and  C_2
REMARK    2  A    between atoms: C_2  and  C_4
REMARK    3  A    between atoms: C_2  and  S_11
REMARK    4  A    between atoms: N_9  and  C_10
REMARK    5  A    between atoms: S_11  and  C_12
REMARK    6  A    between atoms: C_15  and  C_20
REMARK    7  A    between atoms: N_16  and  C_17
REMARK    8  A    between atoms: C_17  and  C_18
REMARK    9  A    between atoms: C_27  and  C_30
REMARK   10  A    between atoms: C_30  and  C_31
REMARK   11  A    between atoms: C_30  and  C_32
REMARK   12  A    between atoms: C_30  and  C_33
REMARK                            x       y       z     vdW  Elec       q    Type
REMARK                         _______ _______ _______ _____ _____    ______ ____
ROOT
ATOM      1  C   UNL     1      -8.189   0.504  -2.557  0.00  0.00    +0.193 A 
ATOM      2  N   UNL     1      -8.402   0.560  -1.262  0.00  0.00    -0.122 NA
ATOM      3  N   UNL     1      -7.289   0.711  -0.637  0.00  0.00    -0.128 NA
ATOM      4  C   UNL     1      -6.295   0.761  -1.497  0.00  0.00    +0.172 A 
ATOM      5  N   UNL     1      -6.843   0.636  -2.754  0.00  0.00    -0.298 N 
ENDROOT
BRANCH   4   6
ATOM      6  C   UNL     1      -4.868   0.926  -1.176  0.00  0.00    +0.057 A 
ATOM      7  C   UNL     1      -4.232   0.786   0.029  0.00  0.00    +0.023 A 
ATOM      8  C   UNL     1      -2.860   0.991   0.111  0.00  0.00    -0.036 A 
ATOM      9  C   UNL     1      -2.220   1.326  -1.045  0.00  0.00    -0.006 A 
ATOM     10  S   UNL     1      -3.513   1.362  -2.256  0.00  0.00    -0.090 S 
ATOM     11  C   UNL     1      -0.762   1.598  -1.232  0.00  0.00    +0.043 C 
ATOM     12  C   UNL     1      -0.013   1.086   0.008  0.00  0.00    +0.009 C 
ATOM     13  C   UNL     1      -0.736   1.583   1.263  0.00  0.00    -0.001 C 
ATOM     14  C   UNL     1      -2.076   0.857   1.414  0.00  0.00    +0.040 C 
BRANCH  13  15
ATOM     15  C   UNL     1       0.136   1.312   2.491  0.00  0.00    -0.035 C 
ATOM     16  C   UNL     1       1.468   2.050   2.344  0.00  0.00    +0.011 C 
ATOM     17  C   UNL     1      -0.585   1.808   3.747  0.00  0.00    +0.011 C 
ATOM     18  C   UNL     1       0.395  -0.191   2.612  0.00  0.00    +0.011 C 
ENDBRANCH  13  15
ENDBRANCH   4   6
BRANCH   1  19
ATOM     19  S   UNL     1      -9.414   0.306  -3.809  0.00  0.00    -0.073 S 
BRANCH  19  21
ATOM     20  C   UNL     1     -10.846  -1.044  -1.915  0.00  0.00    +0.029 C 
ATOM     21  C   UNL     1     -10.901   0.215  -2.782  0.00  0.00    +0.137 C 
BRANCH  21  22
ATOM     22  C   UNL     1     -12.120   0.163  -3.667  0.00  0.00    +0.233 C 
ATOM     23  O   UNL     1     -12.030  -0.261  -4.799  0.00  0.00    -0.274 OA
ATOM     24  N   UNL     1     -13.310   0.589  -3.200  0.00  0.00    -0.239 N 
ATOM     25  C   UNL     1     -14.400   0.543  -3.991  0.00  0.00    +0.306 C 
ATOM     26  O   UNL     1     -14.310   0.117  -5.126  0.00  0.00    -0.252 OA
ATOM     27  N   UNL     1     -15.591   0.969  -3.524  0.00  0.00    -0.302 N 
ATOM     28  C   UNL     1     -16.776   0.919  -4.384  0.00  0.00    +0.129 C 
ATOM     29  H   UNL     1     -13.383   0.929  -2.294  0.00  0.00    +0.159 HD
ATOM     30  H   UNL     1     -15.663   1.309  -2.619  0.00  0.00    +0.150 HD
ENDBRANCH  21  22
ENDBRANCH  19  21
ENDBRANCH   1  19
BRANCH   5  31
ATOM     31  C   UNL     1      -6.131   0.640  -4.035  0.00  0.00    +0.152 C 
BRANCH  31  32
ATOM     32  C   UNL     1      -5.740  -0.769  -4.397  0.00  0.00    -0.013 C 
ATOM     33  C   UNL     1      -6.101  -1.273  -5.551  0.00  0.00    +0.005 C 
ENDBRANCH  31  32
ENDBRANCH   5  31
TORSDOF 7
