REMARK  Name = ZINC01205785
REMARK  5 active torsions:
REMARK  status: ('A' for Active; 'I' for Inactive)
REMARK    1  A    between atoms: C_1  and  C_2
REMARK    2  A    between atoms: C_2  and  O_4
REMARK    3  A    between atoms: O_4  and  C_5
REMARK    4  A    between atoms: C_9  and  N_11
REMARK    5  A    between atoms: C_20  and  C_34
REMARK                            x       y       z     vdW  Elec       q    Type
REMARK                         _______ _______ _______ _____ _____    ______ ____
ROOT
ATOM      1  N   UNL     1      -3.659  -4.771  -0.214  0.00  0.00    -0.210 N 
ATOM      2  C   UNL     1      -4.873  -4.133  -0.251  0.00  0.00    +0.231 C 
ATOM      3  O   UNL     1      -5.114  -2.996  -0.597  0.00  0.00    -0.274 OA
ATOM      4  C   UNL     1      -5.853  -5.204   0.250  0.00  0.00    +0.101 C 
ATOM      5  C   UNL     1      -5.186  -6.320  -0.635  0.00  0.00    +0.103 C 
ATOM      6  C   UNL     1      -3.775  -6.141  -0.259  0.00  0.00    +0.231 C 
ATOM      7  O   UNL     1      -2.931  -6.984  -0.043  0.00  0.00    -0.274 OA
ATOM      8  C   UNL     1      -6.000  -7.612  -0.585  0.00  0.00    +0.030 C 
ATOM      9  C   UNL     1      -6.833  -7.159  -1.834  0.00  0.00    -0.033 A 
ATOM     10  C   UNL     1      -7.061  -7.957  -2.908  0.00  0.00    +0.005 A 
ATOM     11  C   UNL     1      -7.733  -7.408  -3.997  0.00  0.00    +0.000 A 
ATOM     12  C   UNL     1      -8.131  -6.084  -3.960  0.00  0.00    +0.000 A 
ATOM     13  C   UNL     1      -7.914  -5.299  -2.839  0.00  0.00    +0.004 A 
ATOM     14  C   UNL     1      -7.294  -5.859  -1.742  0.00  0.00    -0.035 A 
ATOM     15  C   UNL     1      -7.283  -5.095  -0.397  0.00  0.00    +0.062 C 
ATOM     16  C   UNL     1      -7.847  -6.229   0.505  0.00  0.00    -0.035 A 
ATOM     17  C   UNL     1      -7.132  -7.437   0.459  0.00  0.00    -0.033 A 
ATOM     18  C   UNL     1      -7.459  -8.465   1.312  0.00  0.00    +0.005 A 
ATOM     19  C   UNL     1      -8.530  -8.299   2.177  0.00  0.00    +0.000 A 
ATOM     20  C   UNL     1      -9.265  -7.128   2.181  0.00  0.00    +0.000 A 
ATOM     21  C   UNL     1      -8.920  -6.059   1.328  0.00  0.00    +0.004 A 
ATOM     22  C   UNL     1      -5.245  -8.942  -0.598  0.00  0.00    +0.022 C 
ENDROOT
BRANCH   1  27
ATOM     23  C   UNL     1      -1.185  -2.049  -0.031  0.00  0.00    +0.133 A 
ATOM     24  C   UNL     1      -0.002  -2.774  -0.004  0.00  0.00    +0.046 A 
ATOM     25  C   UNL     1      -0.035  -4.155  -0.045  0.00  0.00    +0.005 A 
ATOM     26  C   UNL     1      -1.245  -4.818  -0.115  0.00  0.00    +0.024 A 
ATOM     27  C   UNL     1      -2.432  -4.098  -0.143  0.00  0.00    +0.047 A 
ATOM     28  C   UNL     1      -2.401  -2.711  -0.095  0.00  0.00    +0.070 A 
BRANCH  23  29
ATOM     29  O   UNL     1      -1.151  -0.691   0.009  0.00  0.00    -0.426 OA
BRANCH  29  31
ATOM     30  C   UNL     1      -0.883   1.471  -1.153  0.00  0.00    +0.136 C 
ATOM     31  C   UNL     1      -0.826  -0.035  -1.116  0.00  0.00    +0.309 C 
ATOM     32  O   UNL     1      -0.487  -0.651  -2.098  0.00  0.00    -0.251 OA
ENDBRANCH  29  31
ENDBRANCH  23  29
ENDBRANCH   1  27
TORSDOF 3
