REMARK  Name = ZINC40128516
REMARK  9 active torsions:
REMARK  status: ('A' for Active; 'I' for Inactive)
REMARK    1  A    between atoms: C_1  and  C_2
REMARK    2  A    between atoms: C_4  and  C_35
REMARK    3  A    between atoms: C_6  and  C_34
REMARK    4  A    between atoms: C_7  and  C_11
REMARK    5  A    between atoms: C_11  and  O_13
REMARK    6  A    between atoms: O_13  and  C_14
REMARK    7  A    between atoms: C_17  and  C_22
REMARK    8  A    between atoms: C_19  and  O_20
REMARK    9  A    between atoms: O_20  and  C_21
REMARK                            x       y       z     vdW  Elec       q    Type
REMARK                         _______ _______ _______ _____ _____    ______ ____
ROOT
ATOM      1  C   UNL     1      -0.009  -5.680   4.622  0.00  0.00    +0.173 A 
ATOM      2  C   UNL     1       0.050  -6.973   4.118  0.00  0.00    +0.051 A 
ATOM      3  C   UNL     1       0.199  -8.043   4.972  0.00  0.00    +0.012 A 
ATOM      4  C   UNL     1       0.294  -7.828   6.353  0.00  0.00    -0.018 A 
ATOM      5  C   UNL     1       0.235  -6.524   6.860  0.00  0.00    +0.057 A 
ATOM      6  C   UNL     1       0.090  -5.457   5.995  0.00  0.00    +0.163 A 
ENDROOT
BRANCH   4   7
ATOM      7  C   UNL     1       0.453  -8.966   7.266  0.00  0.00    +0.058 C 
ATOM      8  C   UNL     1       0.630 -10.217   6.767  0.00  0.00    +0.176 C 
ATOM      9  C   UNL     1       0.639 -11.467   7.540  0.00  0.00    +0.231 C 
ATOM     10  O   UNL     1       0.493 -11.602   8.742  0.00  0.00    -0.283 OA
ATOM     11  C   UNL     1       0.865 -12.522   6.533  0.00  0.00    +0.069 A 
ATOM     12  C   UNL     1       0.977 -13.910   6.613  0.00  0.00    +0.035 A 
ATOM     13  C   UNL     1       1.193 -14.645   5.466  0.00  0.00    +0.042 A 
ATOM     14  C   UNL     1       1.298 -14.004   4.240  0.00  0.00    +0.023 A 
ATOM     15  C   UNL     1       1.188 -12.633   4.150  0.00  0.00    +0.048 A 
ATOM     16  C   UNL     1       0.970 -11.872   5.295  0.00  0.00    +0.140 A 
ATOM     17  O   UNL     1       0.824 -10.540   5.466  0.00  0.00    -0.451 OA
ATOM     18 CL   UNL     1       1.334 -16.373   5.557  0.00  0.00    -0.084 Cl
ENDBRANCH   4   7
BRANCH   6  19
ATOM     19  O   UNL     1       0.038  -4.189   6.484  0.00  0.00    -0.491 OA
ATOM     20  C   UNL     1       0.145  -4.034   7.900  0.00  0.00    +0.277 C 
ENDBRANCH   6  19
BRANCH   1  21
ATOM     21  O   UNL     1      -0.157  -4.629   3.775  0.00  0.00    -0.416 OA
BRANCH  21  22
ATOM     22  C   UNL     1       0.948  -3.942   3.419  0.00  0.00    +0.381 C 
ATOM     23  O   UNL     1       2.045  -4.326   3.778  0.00  0.00    -0.241 OA
BRANCH  22  30
ATOM     24  C   UNL     1      -1.329   1.820  -0.641  0.00  0.00    +0.044 C 
ATOM     25  C   UNL     1      -0.415   0.865   0.082  0.00  0.00    -0.047 A 
ATOM     26  C   UNL     1       0.957   1.081   0.066  0.00  0.00    +0.007 A 
ATOM     27  C   UNL     1       1.800   0.226   0.715  0.00  0.00    -0.039 A 
ATOM     28  C   UNL     1       1.278  -0.874   1.401  0.00  0.00    +0.027 A 
ATOM     29  C   UNL     1       1.867  -1.961   2.182  0.00  0.00    +0.010 A 
ATOM     30  C   UNL     1       0.827  -2.730   2.599  0.00  0.00    +0.216 A 
ATOM     31  O   UNL     1      -0.333  -2.213   2.145  0.00  0.00    -0.448 OA
ATOM     32  C   UNL     1      -0.111  -1.098   1.421  0.00  0.00    +0.137 A 
ATOM     33  C   UNL     1      -0.950  -0.211   0.757  0.00  0.00    +0.050 A 
ATOM     34  C   UNL     1       3.330  -2.183   2.467  0.00  0.00    +0.048 C 
ATOM     35  C   UNL     1       3.288   0.467   0.693  0.00  0.00    +0.044 C 
ENDBRANCH  22  30
ENDBRANCH  21  22
ENDBRANCH   1  21
TORSDOF 5
