REMARK  Name = ZINC39356576
REMARK  8 active torsions:
REMARK  status: ('A' for Active; 'I' for Inactive)
REMARK    1  A    between atoms: C_1  and  C_2
REMARK    2  A    between atoms: C_4  and  C_32
REMARK    3  A    between atoms: C_6  and  C_8
REMARK    4  A    between atoms: C_13  and  C_16
REMARK    5  A    between atoms: C_16  and  C_23
REMARK    6  A    between atoms: C_23  and  C_24
REMARK    7  A    between atoms: C_24  and  C_25
REMARK    8  A    between atoms: C_25  and  C_26
REMARK                            x       y       z     vdW  Elec       q    Type
REMARK                         _______ _______ _______ _____ _____    ______ ____
ROOT
ATOM      1  C   UNL     1       2.185   4.427   3.680  0.00  0.00    +0.115 C 
ATOM      2  C   UNL     1       0.979   5.235   4.116  0.00  0.00    +0.244 C 
ATOM      3  O   UNL     1       0.471   5.256   5.217  0.00  0.00    -0.273 OA
ATOM      4  N   UNL     1       0.589   5.925   3.027  0.00  0.00    -0.238 N 
ATOM      5  C   UNL     1       1.373   5.669   1.973  0.00  0.00    +0.307 C 
ATOM      6  O   UNL     1       1.219   6.173   0.878  0.00  0.00    -0.252 OA
ATOM      7  N   UNL     1       2.350   4.790   2.262  0.00  0.00    -0.285 N 
ATOM      8  H   UNL     1      -0.167   6.533   3.008  0.00  0.00    +0.159 HD
ATOM      9  H   UNL     1       3.031   4.460   1.655  0.00  0.00    +0.151 HD
ENDROOT
BRANCH   1  15
ATOM     10  C   UNL     1       1.439  -0.673   1.906  0.00  0.00    +0.244 C 
ATOM     11  O   UNL     1       2.406  -1.359   1.650  0.00  0.00    -0.273 OA
ATOM     12  N   UNL     1       1.534   0.310   2.823  0.00  0.00    -0.299 N 
ATOM     13  C   UNL     1       0.346   1.074   3.228  0.00  0.00    +0.108 C 
ATOM     14  C   UNL     1       0.638   2.568   3.053  0.00  0.00    +0.025 C 
ATOM     15  C   UNL     1       1.910   2.929   3.823  0.00  0.00    +0.024 C 
ATOM     16  C   UNL     1       3.092   2.137   3.260  0.00  0.00    +0.025 C 
ATOM     17  C   UNL     1       2.827   0.635   3.441  0.00  0.00    +0.108 C 
BRANCH  10  23
ATOM     18  C   UNL     1       0.048   1.448  -0.099  0.00  0.00    +0.042 C 
ATOM     19  C   UNL     1       0.033  -0.058  -0.038  0.00  0.00    -0.038 C 
ATOM     20  C   UNL     1      -0.065  -0.901  -1.065  0.00  0.00    +0.024 C 
ATOM     21  C   UNL     1      -0.043  -2.277  -0.570  0.00  0.00    +0.034 C 
ATOM     22  N   UNL     1       0.065  -2.306   0.717  0.00  0.00    -0.271 NA
ATOM     23  C   UNL     1       0.131  -0.921   1.200  0.00  0.00    +0.217 C 
ATOM     24  C   UNL     1      -0.133  -3.501  -1.445  0.00  0.00    +0.065 C 
ENDBRANCH  10  23
ENDBRANCH   1  15
BRANCH   1  25
ATOM     25  C   UNL     1       3.423   4.825   4.485  0.00  0.00    +0.036 C 
BRANCH  25  26
ATOM     26  C   UNL     1       3.676   6.325   4.324  0.00  0.00    +0.007 C 
BRANCH  26  27
ATOM     27  C   UNL     1       4.914   6.723   5.130  0.00  0.00    +0.035 C 
BRANCH  27  28
ATOM     28  C   UNL     1       5.163   8.201   4.971  0.00  0.00    -0.047 A 
ATOM     29  C   UNL     1       5.962   8.662   3.942  0.00  0.00    +0.003 A 
ATOM     30  C   UNL     1       6.190  10.017   3.797  0.00  0.00    +0.000 A 
ATOM     31  C   UNL     1       5.619  10.913   4.681  0.00  0.00    +0.000 A 
ATOM     32  C   UNL     1       4.818  10.453   5.710  0.00  0.00    +0.000 A 
ATOM     33  C   UNL     1       4.587   9.097   5.853  0.00  0.00    +0.003 A 
ENDBRANCH  27  28
ENDBRANCH  26  27
ENDBRANCH  25  26
ENDBRANCH   1  25
TORSDOF 6
