REMARK  Name = ZINC07884396
REMARK  7 active torsions:
REMARK  status: ('A' for Active; 'I' for Inactive)
REMARK    1  A    between atoms: C_1  and  C_2
REMARK    2  A    between atoms: C_2  and  O_3
REMARK    3  A    between atoms: O_3  and  C_4
REMARK    4  A    between atoms: C_6  and  C_12
REMARK    5  A    between atoms: C_9  and  O_10
REMARK    6  A    between atoms: O_10  and  C_11
REMARK    7  A    between atoms: N_23  and  C_24
REMARK                            x       y       z     vdW  Elec       q    Type
REMARK                         _______ _______ _______ _____ _____    ______ ____
ROOT
ATOM      1  C   UNL     1       2.600   0.933  -0.029  0.00  0.00    +0.198 C 
ATOM      2  N   UNL     1       2.467  -0.321   0.720  0.00  0.00    -0.321 N 
ATOM      3  C   UNL     1       2.308  -0.262   2.100  0.00  0.00    +0.041 A 
ATOM      4  C   UNL     1       1.629  -1.246   2.799  0.00  0.00    +0.024 A 
ATOM      5  C   UNL     1       1.522  -1.159   4.173  0.00  0.00    +0.002 A 
ATOM      6  C   UNL     1       2.091  -0.096   4.858  0.00  0.00    +0.001 A 
ATOM      7  C   UNL     1       2.767   0.894   4.177  0.00  0.00    +0.015 A 
ATOM      8  C   UNL     1       2.872   0.826   2.790  0.00  0.00    +0.058 A 
ATOM      9  C   UNL     1       3.580   1.860   2.015  0.00  0.00    +0.254 C 
ATOM     10  O   UNL     1       4.227   2.717   2.585  0.00  0.00    -0.270 OA
ATOM     11  N   UNL     1       3.503   1.848   0.669  0.00  0.00    -0.244 N 
ATOM     12  H   UNL     1       2.490  -1.176   0.261  0.00  0.00    +0.148 HD
ENDROOT
BRANCH   1  15
ATOM     13  C   UNL     1      -1.139   1.385  -0.328  0.00  0.00    +0.162 A 
ATOM     14  C   UNL     1       0.107   0.794  -0.197  0.00  0.00    +0.056 A 
ATOM     15  C   UNL     1       1.245   1.579  -0.167  0.00  0.00    -0.005 A 
ATOM     16  C   UNL     1       1.142   2.954  -0.263  0.00  0.00    +0.011 A 
ATOM     17  C   UNL     1      -0.099   3.550  -0.389  0.00  0.00    +0.050 A 
ATOM     18  C   UNL     1      -1.243   2.769  -0.419  0.00  0.00    +0.162 A 
BRANCH  18  19
ATOM     19  O   UNL     1      -2.464   3.355  -0.544  0.00  0.00    -0.491 OA
ATOM     20  C   UNL     1      -2.494   4.780  -0.638  0.00  0.00    +0.277 C 
ENDBRANCH  18  19
BRANCH  13  21
ATOM     21  O   UNL     1      -2.259   0.614  -0.363  0.00  0.00    -0.489 OA
BRANCH  21  23
ATOM     22  C   UNL     1      -3.438  -1.495  -0.318  0.00  0.00    +0.048 C 
ATOM     23  C   UNL     1      -2.076  -0.800  -0.259  0.00  0.00    +0.226 C 
ENDBRANCH  21  23
ENDBRANCH  13  21
ENDBRANCH   1  15
BRANCH  11  24
ATOM     24  C   UNL     1       4.302   2.725  -0.072  0.00  0.00    +0.039 A 
ATOM     25  C   UNL     1       5.193   2.228  -1.014  0.00  0.00    +0.023 A 
ATOM     26  C   UNL     1       5.976   3.097  -1.748  0.00  0.00    +0.002 A 
ATOM     27  C   UNL     1       5.881   4.460  -1.538  0.00  0.00    +0.000 A 
ATOM     28  C   UNL     1       4.999   4.958  -0.597  0.00  0.00    +0.002 A 
ATOM     29  C   UNL     1       4.209   4.095   0.136  0.00  0.00    +0.023 A 
ENDBRANCH  11  24
TORSDOF 5
