REMARK  Name = ZINC13133750
REMARK  7 active torsions:
REMARK  status: ('A' for Active; 'I' for Inactive)
REMARK    1  A    between atoms: C_1  and  N_2
REMARK    2  A    between atoms: N_2  and  C_3
REMARK    3  A    between atoms: N_2  and  C_9
REMARK    4  A    between atoms: C_12  and  C_15
REMARK    5  A    between atoms: C_16  and  C_17
REMARK    6  A    between atoms: N_30  and  C_31
REMARK    7  A    between atoms: C_34  and  O_37
REMARK                            x       y       z     vdW  Elec       q    Type
REMARK                         _______ _______ _______ _____ _____    ______ ____
ROOT
ATOM      1  C   UNL     1       1.058  -0.626   0.601  0.00  0.00    +0.047 A 
ATOM      2  C   UNL     1       2.289   0.045   0.544  0.00  0.00    +0.027 A 
ATOM      3  C   UNL     1       2.320   1.409   0.611  0.00  0.00    +0.012 A 
ATOM      4  C   UNL     1       1.107   2.102   0.735  0.00  0.00    +0.007 A 
ATOM      5  C   UNL     1       1.068   3.564   0.811  0.00  0.00    -0.009 A 
ATOM      6  C   UNL     1       2.234   4.331   0.765  0.00  0.00    +0.009 A 
ATOM      7  C   UNL     1       2.152   5.692   0.840  0.00  0.00    +0.001 A 
ATOM      8  C   UNL     1       0.919   6.324   0.962  0.00  0.00    +0.001 A 
ATOM      9  C   UNL     1      -0.237   5.603   1.009  0.00  0.00    +0.008 A 
ATOM     10  C   UNL     1      -0.187   4.203   0.935  0.00  0.00    -0.017 A 
ATOM     11  C   UNL     1      -1.368   3.428   0.982  0.00  0.00    +0.010 A 
ATOM     12  C   UNL     1      -1.329   2.081   0.906  0.00  0.00    +0.027 A 
ATOM     13  C   UNL     1      -0.106   1.383   0.787  0.00  0.00    +0.055 A 
ATOM     14  N   UNL     1      -0.089   0.043   0.719  0.00  0.00    -0.309 N 
ENDROOT
BRANCH  14  15
ATOM     15  C   UNL     1      -1.273  -0.651   0.770  0.00  0.00    +0.047 A 
ATOM     16  C   UNL     1      -1.992  -0.721   1.964  0.00  0.00    +0.030 A 
ATOM     17  C   UNL     1      -3.183  -1.415   2.010  0.00  0.00    +0.047 A 
ATOM     18  C   UNL     1      -3.662  -2.051   0.873  0.00  0.00    +0.117 A 
ATOM     19  C   UNL     1      -2.947  -1.988  -0.316  0.00  0.00    +0.047 A 
ATOM     20  C   UNL     1      -1.758  -1.292  -0.371  0.00  0.00    +0.030 A 
BRANCH  18  21
ATOM     21  O   UNL     1      -4.833  -2.738   0.924  0.00  0.00    -0.507 OA
ATOM     22  H   UNL     1      -4.733  -3.670   1.164  0.00  0.00    +0.292 HD
ENDBRANCH  18  21
ENDBRANCH  14  15
BRANCH   1  24
ATOM     23  C   UNL     1       2.185  -2.787   0.525  0.00  0.00    +0.010 C 
ATOM     24  C   UNL     1       1.032  -2.093   0.529  0.00  0.00    +0.027 C 
BRANCH  23  28
ATOM     25  C   UNL     1       2.131  -6.990  -0.056  0.00  0.00    +0.034 A 
ATOM     26  C   UNL     1       3.342  -6.332   0.131  0.00  0.00    +0.024 A 
ATOM     27  C   UNL     1       3.364  -4.968   0.320  0.00  0.00    +0.010 A 
ATOM     28  C   UNL     1       2.166  -4.245   0.324  0.00  0.00    -0.025 A 
ATOM     29  C   UNL     1       0.950  -4.912   0.141  0.00  0.00    +0.010 A 
ATOM     30  C   UNL     1       0.937  -6.275  -0.053  0.00  0.00    +0.024 A 
BRANCH  25  32
ATOM     31  C   UNL     1       3.372  -9.113  -0.352  0.00  0.00    +0.135 C 
ATOM     32  N   UNL     1       2.112  -8.371  -0.247  0.00  0.00    -0.303 N 
BRANCH  32  33
ATOM     33  C   UNL     1       0.894  -9.048  -0.340  0.00  0.00    +0.034 A 
ATOM     34  C   UNL     1       0.077  -8.864  -1.448  0.00  0.00    +0.023 A 
ATOM     35  C   UNL     1      -1.125  -9.538  -1.538  0.00  0.00    +0.002 A 
ATOM     36  C   UNL     1      -1.521 -10.387  -0.521  0.00  0.00    +0.000 A 
ATOM     37  C   UNL     1      -0.713 -10.569   0.586  0.00  0.00    +0.002 A 
ATOM     38  C   UNL     1       0.493  -9.902   0.680  0.00  0.00    +0.023 A 
ENDBRANCH  32  33
ENDBRANCH  25  32
ENDBRANCH  23  28
ENDBRANCH   1  24
TORSDOF 6
