REMARK  Name = ZINC12495514
REMARK  2 active torsions:
REMARK  status: ('A' for Active; 'I' for Inactive)
REMARK    1  A    between atoms: C_10  and  C_23
REMARK    2  A    between atoms: C_13  and  C_16
REMARK                            x       y       z     vdW  Elec       q    Type
REMARK                         _______ _______ _______ _____ _____    ______ ____
ROOT
ATOM      1  C   UNL     1      -5.035  -7.475  -0.698  0.00  0.00    +0.001 A 
ATOM      2  C   UNL     1      -6.314  -7.074  -1.037  0.00  0.00    +0.004 A 
ATOM      3  C   UNL     1      -6.798  -5.861  -0.598  0.00  0.00    +0.046 A 
ATOM      4  C   UNL     1      -6.007  -5.025   0.191  0.00  0.00    +0.129 A 
ATOM      5  C   UNL     1      -4.732  -5.443   0.539  0.00  0.00    +0.017 A 
ATOM      6  C   UNL     1      -4.248  -6.658   0.091  0.00  0.00    +0.009 A 
ATOM      7  C   UNL     1      -3.859  -4.580   1.412  0.00  0.00    +0.136 C 
ATOM      8  C   UNL     1      -2.478  -4.347   0.781  0.00  0.00    +0.086 C 
ATOM      9  C   UNL     1      -2.349  -2.838   0.751  0.00  0.00    +0.069 C 
ATOM     10  N   UNL     1      -3.469  -2.302   1.113  0.00  0.00    -0.185 NA
ATOM     11  N   UNL     1      -4.457  -3.227   1.395  0.00  0.00    -0.205 N 
ATOM     12  C   UNL     1      -5.904  -3.041   1.569  0.00  0.00    +0.310 C 
ATOM     13  O   UNL     1      -6.533  -3.826   0.549  0.00  0.00    -0.465 OA
ENDROOT
BRANCH   9  14
ATOM     14  C   UNL     1      -1.136  -2.095   0.362  0.00  0.00    +0.001 A 
ATOM     15  C   UNL     1       0.019  -2.785  -0.013  0.00  0.00    +0.013 A 
ATOM     16  C   UNL     1       1.151  -2.087  -0.375  0.00  0.00    +0.050 A 
ATOM     17  C   UNL     1       1.150  -0.698  -0.368  0.00  0.00    +0.162 A 
ATOM     18  C   UNL     1       0.002  -0.004   0.002  0.00  0.00    +0.163 A 
ATOM     19  C   UNL     1      -1.138  -0.698   0.367  0.00  0.00    +0.059 A 
ATOM     20  O   UNL     1      -0.016   1.357   0.009  0.00  0.00    -0.485 OA
ATOM     21  C   UNL     1       1.254   2.018   0.001  0.00  0.00    +0.270 C 
ATOM     22  C   UNL     1       2.135   1.351  -1.064  0.00  0.00    +0.270 C 
ATOM     23  O   UNL     1       2.282  -0.031  -0.723  0.00  0.00    -0.485 OA
ENDBRANCH   9  14
BRANCH  12  24
ATOM     24  C   UNL     1      -6.264  -1.588   1.399  0.00  0.00    +0.013 A 
ATOM     25  C   UNL     1      -5.510  -0.782   0.566  0.00  0.00    +0.010 A 
ATOM     26  C   UNL     1      -5.843   0.550   0.406  0.00  0.00    +0.020 A 
ATOM     27  C   UNL     1      -6.924   1.079   1.088  0.00  0.00    +0.041 A 
ATOM     28  C   UNL     1      -7.674   0.274   1.926  0.00  0.00    +0.020 A 
ATOM     29  C   UNL     1      -7.344  -1.059   2.081  0.00  0.00    +0.010 A 
ATOM     30 CL   UNL     1      -7.338   2.754   0.892  0.00  0.00    -0.084 Cl
ENDBRANCH  12  24
TORSDOF 2
