REMARK  Name = ZINC20486887
REMARK  5 active torsions:
REMARK  status: ('A' for Active; 'I' for Inactive)
REMARK    1  A    between atoms: C_1  and  C_2
REMARK    2  A    between atoms: C_5  and  N_9
REMARK    3  A    between atoms: N_9  and  S_10
REMARK    4  A    between atoms: S_10  and  C_13
REMARK    5  A    between atoms: C_18  and  N_19
REMARK                            x       y       z     vdW  Elec       q    Type
REMARK                         _______ _______ _______ _____ _____    ______ ____
ROOT
ATOM      1  S   UNL     1       2.634   4.281  -0.104  0.00  0.00    +0.074 S 
ATOM      2  O   UNL     1       2.525   5.695  -0.019  0.00  0.00    -0.150 OA
ATOM      3  O   UNL     1       3.395   3.519   0.823  0.00  0.00    -0.150 OA
ENDROOT
BRANCH   1   4
ATOM      4  C   UNL     1       3.280   3.920  -1.703  0.00  0.00    +0.129 A 
ATOM      5  C   UNL     1       3.530   4.945  -2.594  0.00  0.00    +0.033 A 
ATOM      6  C   UNL     1       4.037   4.665  -3.849  0.00  0.00    +0.040 A 
ATOM      7  C   UNL     1       4.297   3.354  -4.216  0.00  0.00    +0.125 A 
ATOM      8  C   UNL     1       4.049   2.324  -3.328  0.00  0.00    +0.063 A 
ATOM      9  C   UNL     1       3.544   2.606  -2.065  0.00  0.00    +0.054 A 
ATOM     10  F   UNL     1       4.793   3.083  -5.444  0.00  0.00    -0.205 F 
BRANCH   9  11
ATOM     11  N   UNL     1       3.297   1.568  -1.163  0.00  0.00    -0.356 N 
ATOM     12  H   UNL     1       3.506   0.527  -1.451  0.00  0.00    +0.142 HD
ATOM     13  H   UNL     1       2.893   1.792  -0.165  0.00  0.00    +0.142 HD
ENDBRANCH   9  11
ENDBRANCH   1   4
BRANCH   1  14
ATOM     14  N   UNL     1       1.090   3.683  -0.053  0.00  0.00    -0.214 N 
ATOM     15  H   UNL     1       0.848   2.842   0.612  0.00  0.00    +0.174 HD
BRANCH  14  20
ATOM     16  C   UNL     1      -2.949   5.978  -3.309  0.00  0.00    +0.044 C 
ATOM     17  C   UNL     1      -1.876   5.368  -2.445  0.00  0.00    -0.048 A 
ATOM     18  C   UNL     1      -1.387   4.108  -2.737  0.00  0.00    +0.020 A 
ATOM     19  C   UNL     1      -0.404   3.546  -1.946  0.00  0.00    +0.042 A 
ATOM     20  C   UNL     1       0.095   4.249  -0.856  0.00  0.00    +0.076 A 
ATOM     21  C   UNL     1      -0.397   5.516  -0.566  0.00  0.00    +0.042 A 
ATOM     22  C   UNL     1      -1.382   6.071  -1.361  0.00  0.00    +0.020 A 
ATOM     23 BR   UNL     1       0.279   6.478   0.915  0.00  0.00    -0.048 Br
ATOM     24 BR   UNL     1       0.258   1.819  -2.341  0.00  0.00    -0.048 Br
ENDBRANCH  14  20
ENDBRANCH   1  14
TORSDOF 4
