REMARK  Name = ZINC16819231
REMARK  8 active torsions:
REMARK  status: ('A' for Active; 'I' for Inactive)
REMARK    1  A    between atoms: C_1  and  C_2
REMARK    2  A    between atoms: C_5  and  S_9
REMARK    3  A    between atoms: C_6  and  C_8
REMARK    4  A    between atoms: S_9  and  C_10
REMARK    5  A    between atoms: C_10  and  C_12
REMARK    6  A    between atoms: C_10  and  C_13
REMARK    7  A    between atoms: C_25  and  C_26
REMARK    8  A    between atoms: C_25  and  C_27
REMARK                            x       y       z     vdW  Elec       q    Type
REMARK                         _______ _______ _______ _____ _____    ______ ____
ROOT
ATOM      1  C   UNL     1       0.946  -0.972   2.235  0.00  0.00    +0.234 C 
ATOM      2  O   UNL     1       1.528  -1.732   1.491  0.00  0.00    -0.274 OA
ATOM      3  N   UNL     1       0.037  -0.108   1.740  0.00  0.00    -0.255 N 
ATOM      4  C   UNL     1      -0.658   0.773   2.583  0.00  0.00    +0.059 A 
ATOM      5  C   UNL     1      -0.926   0.442   3.898  0.00  0.00    +0.025 A 
ATOM      6  C   UNL     1      -1.617   1.331   4.703  0.00  0.00    +0.002 A 
ATOM      7  C   UNL     1      -2.039   2.546   4.194  0.00  0.00    +0.002 A 
ATOM      8  C   UNL     1      -1.772   2.884   2.880  0.00  0.00    +0.025 A 
ATOM      9  C   UNL     1      -1.079   2.001   2.068  0.00  0.00    +0.055 A 
ATOM     10  N   UNL     1      -0.793   2.325   0.737  0.00  0.00    -0.282 N 
ATOM     11  C   UNL     1      -0.376   1.382  -0.128  0.00  0.00    +0.241 C 
ATOM     12  O   UNL     1      -0.093   1.694  -1.265  0.00  0.00    -0.273 OA
ATOM     13  C   UNL     1      -0.257  -0.059   0.300  0.00  0.00    +0.113 C 
ATOM     14  C   UNL     1       0.876  -0.731  -0.477  0.00  0.00    +0.042 C 
ATOM     15  C   UNL     1      -1.572  -0.788   0.021  0.00  0.00    +0.042 C 
ATOM     16  H   UNL     1      -0.898   3.241   0.434  0.00  0.00    +0.155 HD
ENDROOT
BRANCH   1  17
ATOM     17  C   UNL     1       1.238  -0.993   3.713  0.00  0.00    +0.134 C 
ATOM     18  C   UNL     1       0.496  -2.163   4.363  0.00  0.00    +0.029 C 
BRANCH  17  19
ATOM     19  S   UNL     1       3.023  -1.190   3.974  0.00  0.00    -0.112 S 
BRANCH  19  24
ATOM     20  C   UNL     1       3.774  -0.044   9.853  0.00  0.00    +0.044 C 
ATOM     21  C   UNL     1       3.587  -0.330   8.385  0.00  0.00    -0.050 A 
ATOM     22  C   UNL     1       2.335  -0.198   7.811  0.00  0.00    +0.004 A 
ATOM     23  C   UNL     1       2.161  -0.454   6.465  0.00  0.00    +0.015 A 
ATOM     24  C   UNL     1       3.242  -0.855   5.690  0.00  0.00    +0.012 A 
ATOM     25  C   UNL     1       4.498  -0.987   6.270  0.00  0.00    -0.037 A 
ATOM     26  C   UNL     1       4.666  -0.724   7.616  0.00  0.00    +0.007 A 
ATOM     27  C   UNL     1       5.675  -1.417   5.433  0.00  0.00    +0.045 C 
ENDBRANCH  19  24
ENDBRANCH  17  19
ENDBRANCH   1  17
TORSDOF 3
