REMARK  Name = ZINC37724975
REMARK  11 active torsions:
REMARK  status: ('A' for Active; 'I' for Inactive)
REMARK    1  A    between atoms: C_1  and  C_2
REMARK    2  A    between atoms: C_2  and  C_4
REMARK    3  A    between atoms: C_2  and  N_22
REMARK    4  A    between atoms: C_4  and  C_5
REMARK    5  A    between atoms: C_7  and  O_20
REMARK    6  A    between atoms: C_8  and  O_12
REMARK    7  A    between atoms: O_12  and  C_13
REMARK    8  A    between atoms: C_13  and  C_15
REMARK    9  A    between atoms: C_13  and  C_16
REMARK   10  A    between atoms: N_18  and  C_19
REMARK   11  A    between atoms: O_20  and  C_21
REMARK                            x       y       z     vdW  Elec       q    Type
REMARK                         _______ _______ _______ _____ _____    ______ ____
ROOT
ATOM      1  C   UNL     1       0.657  -2.014   1.298  0.00  0.00    -0.044 A 
ATOM      2  C   UNL     1      -0.397  -2.621   1.956  0.00  0.00    +0.053 A 
ATOM      3  C   UNL     1      -0.477  -4.003   2.009  0.00  0.00    +0.163 A 
ATOM      4  C   UNL     1       0.504  -4.779   1.398  0.00  0.00    +0.177 A 
ATOM      5  C   UNL     1       1.557  -4.164   0.740  0.00  0.00    +0.063 A 
ATOM      6  C   UNL     1       1.629  -2.784   0.687  0.00  0.00    +0.022 A 
ATOM      7 BR   UNL     1       2.893  -5.213  -0.092  0.00  0.00    -0.046 Br
ENDROOT
BRANCH   3   8
ATOM      8  O   UNL     1      -1.513  -4.601   2.656  0.00  0.00    -0.491 OA
ATOM      9  C   UNL     1      -2.483  -3.743   3.260  0.00  0.00    +0.277 C 
ENDBRANCH   3   8
BRANCH   1  10
ATOM     10  C   UNL     1       0.742  -0.511   1.242  0.00  0.00    +0.019 C 
BRANCH  10  12
ATOM     11  C   UNL     1      -0.019   1.526   0.010  0.00  0.00    -0.014 C 
ATOM     12  C   UNL     1       0.002  -0.004   0.002  0.00  0.00    -0.074 C 
BRANCH  12  13
ATOM     13  N   UNL     1       0.690  -0.478  -1.207  0.00  0.00    +0.380 N 
ATOM     14  H   UNL     1       0.703  -1.487  -1.212  0.00  0.00    -0.090 HD
ATOM     15  H   UNL     1       0.202  -0.144  -2.024  0.00  0.00    -0.090 HD
ATOM     16  H   UNL     1       1.636  -0.129  -1.214  0.00  0.00    -0.090 HD
ENDBRANCH  12  13
ENDBRANCH  10  12
ENDBRANCH   1  10
BRANCH   4  17
ATOM     17  O   UNL     1       0.429  -6.136   1.448  0.00  0.00    -0.475 OA
BRANCH  17  18
ATOM     18  C   UNL     1      -0.280  -6.786   0.391  0.00  0.00    +0.256 C 
ATOM     19  C   UNL     1       0.688  -7.112  -0.748  0.00  0.00    +0.062 C 
BRANCH  18  20
ATOM     20  C   UNL     1      -0.895  -8.060   0.909  0.00  0.00    +0.253 C 
ATOM     21  O   UNL     1      -0.741  -8.381   2.068  0.00  0.00    -0.272 OA
ATOM     22  N   UNL     1      -1.617  -8.844   0.083  0.00  0.00    -0.315 N 
ATOM     23  C   UNL     1      -2.215 -10.083   0.587  0.00  0.00    +0.128 C 
ATOM     24  H   UNL     1      -1.740  -8.588  -0.844  0.00  0.00    +0.148 HD
ENDBRANCH  18  20
ENDBRANCH  17  18
ENDBRANCH   4  17
TORSDOF 7
