REMARK  Name = ZINC10694815
REMARK  8 active torsions:
REMARK  status: ('A' for Active; 'I' for Inactive)
REMARK    1  A    between atoms: C_1  and  C_2
REMARK    2  A    between atoms: N_11  and  C_15
REMARK    3  A    between atoms: C_15  and  C_16
REMARK    4  A    between atoms: C_16  and  O_18
REMARK    5  A    between atoms: O_18  and  C_19
REMARK    6  A    between atoms: C_19  and  C_20
REMARK    7  A    between atoms: C_20  and  O_21
REMARK    8  A    between atoms: O_21  and  C_22
REMARK                            x       y       z     vdW  Elec       q    Type
REMARK                         _______ _______ _______ _____ _____    ______ ____
ROOT
ATOM      1  C   UNL     1      -3.957   0.343   4.434  0.00  0.00    +0.238 C 
ENDROOT
BRANCH   1  11
ATOM      2  C   UNL     1      -0.002   1.056   2.507  0.00  0.00    +0.010 C 
ATOM      3  C   UNL     1      -0.730   1.580   1.267  0.00  0.00    +0.018 C 
ATOM      4  C   UNL     1      -0.013   1.086   0.008  0.00  0.00    +0.006 C 
ATOM      5  C   UNL     1      -0.753   1.593  -1.231  0.00  0.00    +0.000 C 
ATOM      6  C   UNL     1      -2.186   1.056  -1.227  0.00  0.00    +0.003 C 
ATOM      7  C   UNL     1      -2.911   1.550   0.027  0.00  0.00    +0.035 C 
ATOM      8  C   UNL     1      -2.167   1.069   1.268  0.00  0.00    +0.115 C 
ATOM      9  C   UNL     1      -2.885   1.517   2.521  0.00  0.00    +0.247 C 
ATOM     10  O   UNL     1      -3.102   2.655   2.875  0.00  0.00    -0.273 OA
ATOM     11  N   UNL     1      -3.233   0.381   3.161  0.00  0.00    -0.213 N 
ATOM     12  C   UNL     1      -2.836  -0.706   2.489  0.00  0.00    +0.310 C 
ATOM     13  O   UNL     1      -3.035  -1.844   2.866  0.00  0.00    -0.252 OA
ATOM     14  N   UNL     1      -2.191  -0.397   1.347  0.00  0.00    -0.285 N 
ATOM     15  H   UNL     1      -1.817  -1.020   0.705  0.00  0.00    +0.151 HD
ENDBRANCH   1  11
BRANCH   1  16
ATOM     16  C   UNL     1      -2.970   0.347   5.573  0.00  0.00    +0.325 C 
ATOM     17  O   UNL     1      -1.784   0.379   5.345  0.00  0.00    -0.249 OA
BRANCH  16  18
ATOM     18  O   UNL     1      -3.409   0.316   6.841  0.00  0.00    -0.460 OA
BRANCH  18  19
ATOM     19  C   UNL     1      -2.402   0.322   7.888  0.00  0.00    +0.273 C 
BRANCH  19  20
ATOM     20  C   UNL     1      -3.087   0.283   9.255  0.00  0.00    +0.270 C 
BRANCH  20  21
ATOM     21  O   UNL     1      -3.781  -0.957   9.405  0.00  0.00    -0.487 OA
BRANCH  21  22
ATOM     22  C   UNL     1      -4.448  -1.153  10.573  0.00  0.00    +0.139 A 
ATOM     23  C   UNL     1      -4.435  -0.173  11.554  0.00  0.00    +0.048 A 
ATOM     24  C   UNL     1      -5.113  -0.374  12.741  0.00  0.00    +0.023 A 
ATOM     25  C   UNL     1      -5.806  -1.554  12.951  0.00  0.00    +0.043 A 
ATOM     26  C   UNL     1      -5.820  -2.534  11.975  0.00  0.00    +0.043 A 
ATOM     27  C   UNL     1      -5.148  -2.334  10.784  0.00  0.00    +0.084 A 
ATOM     28 CL   UNL     1      -5.173  -3.560   9.556  0.00  0.00    -0.080 Cl
ATOM     29 CL   UNL     1      -6.657  -1.804  14.444  0.00  0.00    -0.083 Cl
ENDBRANCH  21  22
ENDBRANCH  20  21
ENDBRANCH  19  20
ENDBRANCH  18  19
ENDBRANCH  16  18
ENDBRANCH   1  16
TORSDOF 7
