REMARK  Name = ZINC25582419
REMARK  8 active torsions:
REMARK  status: ('A' for Active; 'I' for Inactive)
REMARK    1  A    between atoms: C_1  and  O_2
REMARK    2  A    between atoms: O_2  and  C_3
REMARK    3  A    between atoms: C_5  and  C_12
REMARK    4  A    between atoms: C_7  and  O_10
REMARK    5  A    between atoms: C_8  and  O_9
REMARK    6  A    between atoms: O_10  and  C_11
REMARK    7  A    between atoms: C_13  and  C_14
REMARK    8  A    between atoms: C_13  and  C_16
REMARK                            x       y       z     vdW  Elec       q    Type
REMARK                         _______ _______ _______ _____ _____    ______ ____
ROOT
ATOM      1  C   UNL     1       2.392   0.346  -4.213  0.00  0.00    +0.030 C 
ATOM      2  C   UNL     1       3.085  -0.258  -5.220  0.00  0.00    +0.096 C 
ENDROOT
BRANCH   2   3
ATOM      3  C   UNL     1       3.783   0.563  -6.233  0.00  0.00    +0.175 A 
ATOM      4  N   UNL     1       3.721   1.891  -6.133  0.00  0.00    -0.188 NA
ATOM      5  C   UNL     1       4.325   2.677  -7.008  0.00  0.00    +0.281 A 
ATOM      6  O   UNL     1       4.254   4.023  -6.894  0.00  0.00    -0.265 OA
ATOM      7  C   UNL     1       5.047   2.075  -8.067  0.00  0.00    +0.068 A 
ATOM      8  C   UNL     1       5.714   2.835  -9.034  0.00  0.00    +0.030 A 
ATOM      9  C   UNL     1       6.396   2.202 -10.033  0.00  0.00    +0.019 A 
ATOM     10  C   UNL     1       6.436   0.812 -10.103  0.00  0.00    +0.017 A 
ATOM     11  C   UNL     1       5.796   0.043  -9.177  0.00  0.00    +0.029 A 
ATOM     12  C   UNL     1       5.087   0.660  -8.136  0.00  0.00    +0.079 A 
ATOM     13  N   UNL     1       4.447  -0.050  -7.197  0.00  0.00    -0.226 NA
ATOM     14 BR   UNL     1       7.298   3.228 -11.341  0.00  0.00    -0.050 Br
ENDBRANCH   2   3
BRANCH   1  17
ATOM     15  C   UNL     1       0.719  -0.888  -1.092  0.00  0.00    +0.166 A 
ATOM     16  C   UNL     1       1.495  -0.127  -1.945  0.00  0.00    +0.057 A 
ATOM     17  C   UNL     1       1.570  -0.459  -3.304  0.00  0.00    -0.017 A 
ATOM     18  C   UNL     1       0.856  -1.561  -3.792  0.00  0.00    +0.057 A 
ATOM     19  C   UNL     1       0.082  -2.316  -2.932  0.00  0.00    +0.166 A 
ATOM     20  C   UNL     1       0.015  -1.986  -1.580  0.00  0.00    +0.201 A 
BRANCH  15  22
ATOM     21  C   UNL     1       1.393   0.572   0.661  0.00  0.00    +0.277 C 
ATOM     22  O   UNL     1       0.646  -0.567   0.228  0.00  0.00    -0.491 OA
ENDBRANCH  15  22
BRANCH  20  23
ATOM     23  O   UNL     1      -0.742  -2.735  -0.737  0.00  0.00    -0.501 OA
ATOM     24  H   UNL     1      -1.657  -2.433  -0.657  0.00  0.00    +0.292 HD
ENDBRANCH  20  23
BRANCH  19  25
ATOM     25  O   UNL     1      -0.612  -3.386  -3.405  0.00  0.00    -0.491 OA
ATOM     26  C   UNL     1      -0.494  -3.670  -4.801  0.00  0.00    +0.277 C 
ENDBRANCH  19  25
ENDBRANCH   1  17
BRANCH   2  27
ATOM     27  C   UNL     1       3.138  -1.687  -5.297  0.00  0.00    +0.103 C 
ATOM     28  N   UNL     1       3.179  -2.821  -5.358  0.00  0.00    -0.191 NA
ENDBRANCH   2  27
TORSDOF 6
