REMARK  Name = ZINC12715415
REMARK  11 active torsions:
REMARK  status: ('A' for Active; 'I' for Inactive)
REMARK    1  A    between atoms: C_1  and  C_2
REMARK    2  A    between atoms: C_5  and  C_7
REMARK    3  A    between atoms: C_7  and  C_9
REMARK    4  A    between atoms: C_7  and  N_16
REMARK    5  A    between atoms: N_11  and  C_12
REMARK    6  A    between atoms: C_12  and  C_13
REMARK    7  A    between atoms: C_12  and  C_14
REMARK    8  A    between atoms: C_12  and  C_15
REMARK    9  A    between atoms: N_16  and  C_17
REMARK   10  A    between atoms: C_22  and  C_24
REMARK   11  A    between atoms: C_27  and  C_30
REMARK                            x       y       z     vdW  Elec       q    Type
REMARK                         _______ _______ _______ _____ _____    ______ ____
ROOT
ATOM      1  N   UNL     1       1.584  -0.190  -0.265  0.00  0.00    -0.275 N 
ATOM      2  C   UNL     1       1.819  -1.252  -1.061  0.00  0.00    +0.264 C 
ATOM      3  O   UNL     1       2.800  -1.947  -0.875  0.00  0.00    -0.268 OA
ENDROOT
BRANCH   2   4
ATOM      4  C   UNL     1       0.892  -1.569  -2.152  0.00  0.00    +0.102 A 
ATOM      5  C   UNL     1       1.211  -2.229  -3.321  0.00  0.00    +0.033 A 
ATOM      6  C   UNL     1       0.045  -2.325  -4.078  0.00  0.00    +0.028 A 
ATOM      7  C   UNL     1      -0.966  -1.715  -3.368  0.00  0.00    +0.047 A 
ATOM      8  N   UNL     1      -0.448  -1.254  -2.193  0.00  0.00    -0.351 N 
ATOM      9  H   UNL     1      -0.941  -0.783  -1.503  0.00  0.00    +0.166 HD
BRANCH   7  10
ATOM     10  C   UNL     1      -2.372  -1.583  -3.804  0.00  0.00    -0.002 A 
ATOM     11  C   UNL     1      -3.278  -0.847  -3.038  0.00  0.00    +0.010 A 
ATOM     12  C   UNL     1      -4.587  -0.723  -3.453  0.00  0.00    +0.001 A 
ATOM     13  C   UNL     1      -5.007  -1.336  -4.620  0.00  0.00    +0.000 A 
ATOM     14  C   UNL     1      -4.116  -2.072  -5.381  0.00  0.00    +0.001 A 
ATOM     15  C   UNL     1      -2.803  -2.199  -4.980  0.00  0.00    +0.010 A 
ENDBRANCH   7  10
ENDBRANCH   2   4
BRANCH   1  16
ATOM     16  C   UNL     1       2.516   0.134   0.818  0.00  0.00    +0.078 C 
ATOM     17  C   UNL     1       3.929   0.372   0.245  0.00  0.00    +0.022 C 
ATOM     18  C   UNL     1       4.877  -0.236   1.309  0.00  0.00    +0.002 C 
ATOM     19  C   UNL     1       4.106  -1.497   1.773  0.00  0.00    +0.002 C 
ATOM     20  C   UNL     1       2.629  -1.054   1.789  0.00  0.00    +0.022 C 
ENDBRANCH   1  16
BRANCH   1  21
ATOM     21  C   UNL     1       0.397   0.641  -0.483  0.00  0.00    +0.229 C 
BRANCH  21  26
ATOM     22  C   UNL     1      -1.299   0.172   4.245  0.00  0.00    +0.086 C 
ATOM     23  C   UNL     1      -1.279   0.288   2.742  0.00  0.00    +0.102 A 
ATOM     24  C   UNL     1      -2.358   0.277   1.938  0.00  0.00    +0.045 A 
ATOM     25  C   UNL     1      -1.883   0.408   0.613  0.00  0.00    +0.047 A 
ATOM     26  C   UNL     1      -0.542   0.491   0.686  0.00  0.00    +0.135 A 
ATOM     27  O   UNL     1      -0.182   0.412   1.978  0.00  0.00    -0.462 OA
ENDBRANCH  21  26
BRANCH  21  28
ATOM     28  C   UNL     1       0.811   2.084  -0.613  0.00  0.00    +0.242 C 
ATOM     29  O   UNL     1       1.982   2.389  -0.532  0.00  0.00    -0.273 OA
ATOM     30  N   UNL     1      -0.120   3.036  -0.825  0.00  0.00    -0.309 N 
ATOM     31  H   UNL     1      -1.056   2.791  -0.893  0.00  0.00    +0.149 HD
BRANCH  30  32
ATOM     32  C   UNL     1       0.282   4.439  -0.951  0.00  0.00    +0.026 C 
ATOM     33  C   UNL     1       1.241   4.590  -2.134  0.00  0.00    +0.031 C 
ATOM     34  C   UNL     1      -0.957   5.305  -1.185  0.00  0.00    +0.031 C 
ATOM     35  C   UNL     1       0.982   4.886   0.333  0.00  0.00    +0.031 C 
ENDBRANCH  30  32
ENDBRANCH  21  28
ENDBRANCH   1  21
TORSDOF 7
