REMARK  Name = ZINC14650815
REMARK  12 active torsions:
REMARK  status: ('A' for Active; 'I' for Inactive)
REMARK    1  A    between atoms: C_1  and  C_2
REMARK    2  A    between atoms: C_2  and  C_4
REMARK    3  A    between atoms: C_2  and  O_23
REMARK    4  A    between atoms: N_6  and  N_7
REMARK    5  A    between atoms: C_8  and  C_10
REMARK    6  A    between atoms: C_15  and  O_16
REMARK    7  A    between atoms: O_16  and  C_17
REMARK    8  A    between atoms: C_17  and  C_18
REMARK    9  A    between atoms: C_18  and  C_19
REMARK   10  A    between atoms: C_19  and  C_20
REMARK   11  A    between atoms: C_19  and  C_21
REMARK   12  A    between atoms: O_23  and  C_24
REMARK                            x       y       z     vdW  Elec       q    Type
REMARK                         _______ _______ _______ _____ _____    ______ ____
ROOT
ATOM      1  C   UNL     1      -1.469  -0.318   0.136  0.00  0.00    +0.270 C 
ATOM      2  O   UNL     1      -1.896  -0.796   1.166  0.00  0.00    -0.270 OA
ATOM      3  N   UNL     1      -2.309  -0.059  -0.886  0.00  0.00    -0.231 N 
ATOM      4  H   UNL     1      -1.968   0.323  -1.709  0.00  0.00    +0.173 HD
ENDROOT
BRANCH   3   5
ATOM      5  N   UNL     1      -3.675  -0.344  -0.759  0.00  0.00    -0.230 N 
ATOM      6  C   UNL     1      -4.515  -0.085  -1.781  0.00  0.00    +0.264 C 
ATOM      7  O   UNL     1      -4.087   0.394  -2.813  0.00  0.00    -0.269 OA
ATOM      8  H   UNL     1      -4.016  -0.726   0.065  0.00  0.00    +0.173 HD
BRANCH   6   9
ATOM      9  C   UNL     1      -5.953  -0.385  -1.647  0.00  0.00    +0.081 A 
ATOM     10  C   UNL     1      -6.450  -0.931  -0.461  0.00  0.00    +0.032 A 
ATOM     11  C   UNL     1      -7.795  -1.208  -0.343  0.00  0.00    +0.019 A 
ATOM     12  C   UNL     1      -8.658  -0.947  -1.396  0.00  0.00    +0.019 A 
ATOM     13  C   UNL     1      -8.180  -0.408  -2.573  0.00  0.00    +0.047 A 
ATOM     14  C   UNL     1      -6.830  -0.118  -2.707  0.00  0.00    +0.133 A 
ATOM     15 BR   UNL     1      -8.467  -1.946   1.264  0.00  0.00    -0.050 Br
BRANCH  14  16
ATOM     16  O   UNL     1      -6.360   0.417  -3.862  0.00  0.00    -0.491 OA
BRANCH  16  17
ATOM     17  C   UNL     1      -7.312   0.662  -4.899  0.00  0.00    +0.229 C 
BRANCH  17  18
ATOM     18  C   UNL     1      -6.601   1.262  -6.113  0.00  0.00    +0.044 C 
BRANCH  18  19
ATOM     19  C   UNL     1      -7.621   1.524  -7.223  0.00  0.00    -0.014 C 
ATOM     20  C   UNL     1      -8.611   2.596  -6.764  0.00  0.00    +0.007 C 
ATOM     21  C   UNL     1      -6.894   2.007  -8.480  0.00  0.00    +0.007 C 
ENDBRANCH  18  19
ENDBRANCH  17  18
ENDBRANCH  16  17
ENDBRANCH  14  16
ENDBRANCH   6   9
ENDBRANCH   3   5
BRANCH   1  23
ATOM     22  C   UNL     1       0.196   1.499  -0.139  0.00  0.00    +0.062 C 
ATOM     23  C   UNL     1       0.000  -0.012   0.000  0.00  0.00    +0.257 C 
BRANCH  23  24
ATOM     24  O   UNL     1       0.693  -0.477   1.160  0.00  0.00    -0.480 OA
BRANCH  24  25
ATOM     25  C   UNL     1       2.014  -0.764   1.016  0.00  0.00    +0.122 A 
ATOM     26  C   UNL     1       2.652  -0.484  -0.197  0.00  0.00    +0.046 A 
ATOM     27  C   UNL     1       3.973  -0.759  -0.371  0.00  0.00    +0.012 A 
ATOM     28  C   UNL     1       4.710  -1.333   0.680  0.00  0.00    -0.018 A 
ATOM     29  C   UNL     1       6.076  -1.630   0.534  0.00  0.00    +0.008 A 
ATOM     30  C   UNL     1       6.759  -2.184   1.572  0.00  0.00    +0.001 A 
ATOM     31  C   UNL     1       6.125  -2.464   2.781  0.00  0.00    +0.001 A 
ATOM     32  C   UNL     1       4.804  -2.190   2.959  0.00  0.00    +0.008 A 
ATOM     33  C   UNL     1       4.065  -1.617   1.909  0.00  0.00    -0.014 A 
ATOM     34  C   UNL     1       2.701  -1.316   2.059  0.00  0.00    +0.054 A 
ENDBRANCH  24  25
ENDBRANCH  23  24
ENDBRANCH   1  23
TORSDOF 9
