REMARK  Name = ZINC19988702
REMARK  6 active torsions:
REMARK  status: ('A' for Active; 'I' for Inactive)
REMARK    1  A    between atoms: C_1  and  O_2
REMARK    2  A    between atoms: O_2  and  C_3
REMARK    3  A    between atoms: C_6  and  N_20
REMARK    4  A    between atoms: C_8  and  C_9
REMARK    5  A    between atoms: C_9  and  C_11
REMARK    6  A    between atoms: C_9  and  N_19
REMARK                            x       y       z     vdW  Elec       q    Type
REMARK                         _______ _______ _______ _____ _____    ______ ____
ROOT
ATOM      1  C   UNL     1       1.151   3.594   0.010  0.00  0.00    -0.009 C 
ENDROOT
BRANCH   1   2
ATOM      2  C   UNL     1       1.276   2.092  -0.009  0.00  0.00    -0.041 A 
ATOM      3  C   UNL     1       1.126   1.371   1.160  0.00  0.00    +0.041 A 
ATOM      4  C   UNL     1       1.240  -0.008   1.142  0.00  0.00    +0.124 A 
ATOM      5  C   UNL     1       1.505  -0.665  -0.048  0.00  0.00    +0.039 A 
ATOM      6  C   UNL     1       1.655   0.057  -1.216  0.00  0.00    +0.018 A 
ATOM      7  C   UNL     1       1.540   1.436  -1.198  0.00  0.00    +0.020 A 
ATOM      8 BR   UNL     1       1.744   2.423  -2.798  0.00  0.00    -0.050 Br
ATOM      9  F   UNL     1       1.094  -0.713   2.285  0.00  0.00    -0.205 F 
ENDBRANCH   1   2
BRANCH   1  15
ATOM     10  C   UNL     1       2.536   4.336   1.964  0.00  0.00    +0.122 A 
ATOM     11  C   UNL     1       2.653   4.794   3.268  0.00  0.00    +0.048 A 
ATOM     12  C   UNL     1       1.519   5.003   4.029  0.00  0.00    +0.036 A 
ATOM     13  C   UNL     1       0.269   4.758   3.492  0.00  0.00    +0.127 A 
ATOM     14  C   UNL     1       0.150   4.308   2.190  0.00  0.00    +0.038 A 
ATOM     15  C   UNL     1       1.281   4.091   1.427  0.00  0.00    -0.014 A 
BRANCH  13  16
ATOM     16  N   UNL     1      -0.944   4.983   4.309  0.00  0.00    +0.056 N 
ATOM     17  O   UNL     1      -0.840   5.384   5.455  0.00  0.00    -0.126 OA
ATOM     18  O   UNL     1      -2.046   4.767   3.837  0.00  0.00    -0.126 OA
ENDBRANCH  13  16
BRANCH  10  20
ATOM     19  C   UNL     1       4.909   4.402   1.831  0.00  0.00    +0.277 C 
ATOM     20  O   UNL     1       3.650   4.129   1.213  0.00  0.00    -0.495 OA
ENDBRANCH  10  20
ENDBRANCH   1  15
BRANCH   1  21
ATOM     21  N   UNL     1      -0.160   3.983  -0.527  0.00  0.00    +0.385 N 
ATOM     22  H   UNL     1      -0.255   3.620  -1.561  0.00  0.00    -0.089 HD
ATOM     23  H   UNL     1      -0.251   5.079  -0.513  0.00  0.00    -0.089 HD
ATOM     24  H   UNL     1      -0.956   3.541   0.091  0.00  0.00    -0.089 HD
ENDBRANCH   1  21
TORSDOF 5
