REMARK  Name = ZINC34732951
REMARK  7 active torsions:
REMARK  status: ('A' for Active; 'I' for Inactive)
REMARK    1  A    between atoms: C_1  and  C_2
REMARK    2  A    between atoms: C_6  and  C_8
REMARK    3  A    between atoms: C_11  and  C_22
REMARK    4  A    between atoms: N_18  and  C_19
REMARK    5  A    between atoms: C_19  and  C_20
REMARK    6  A    between atoms: C_19  and  C_21
REMARK    7  A    between atoms: N_27  and  C_30
REMARK                            x       y       z     vdW  Elec       q    Type
REMARK                         _______ _______ _______ _____ _____    ______ ____
ROOT
ATOM      1  C   UNL     1      -0.266  -2.876   2.723  0.00  0.00    +0.037 C 
ATOM      2  C   UNL     1      -1.453  -3.815   2.946  0.00  0.00    +0.024 C 
ATOM      3  C   UNL     1      -1.299  -4.524   4.293  0.00  0.00    +0.093 C 
ATOM      4  C   UNL     1      -0.016  -5.361   4.281  0.00  0.00    +0.122 C 
ATOM      5  N   UNL     1       1.113  -4.491   3.924  0.00  0.00    -0.284 N 
ATOM      6  C   UNL     1       1.029  -3.693   2.693  0.00  0.00    +0.117 C 
ATOM      7  C   UNL     1       2.205  -4.426   4.712  0.00  0.00    +0.302 C 
ATOM      8  O   UNL     1       3.090  -3.632   4.459  0.00  0.00    -0.253 OA
ATOM      9  N   UNL     1       2.315  -5.240   5.780  0.00  0.00    -0.297 N 
ATOM     10  H   UNL     1       1.646  -5.924   5.939  0.00  0.00    +0.150 HD
ENDROOT
BRANCH   3  11
ATOM     11  C   UNL     1      -1.222  -3.499   5.395  0.00  0.00    +0.220 C 
ATOM     12  O   UNL     1      -0.141  -3.124   5.799  0.00  0.00    -0.275 OA
ATOM     13  N   UNL     1      -2.353  -2.999   5.932  0.00  0.00    -0.298 N 
ATOM     14  C   UNL     1      -3.666  -3.363   5.381  0.00  0.00    +0.126 C 
ATOM     15  C   UNL     1      -4.529  -3.936   6.512  0.00  0.00    +0.124 C 
ATOM     16  N   UNL     1      -4.471  -3.018   7.658  0.00  0.00    -0.325 N 
ATOM     17  C   UNL     1      -3.158  -2.654   8.209  0.00  0.00    +0.124 C 
ATOM     18  C   UNL     1      -2.295  -2.086   7.082  0.00  0.00    +0.126 C 
BRANCH  16  19
ATOM     19  C   UNL     1      -5.645  -2.500   8.215  0.00  0.00    +0.065 A 
ATOM     20  C   UNL     1      -6.282  -3.174   9.247  0.00  0.00    +0.026 A 
ATOM     21  C   UNL     1      -7.441  -2.659   9.796  0.00  0.00    +0.002 A 
ATOM     22  C   UNL     1      -7.968  -1.473   9.317  0.00  0.00    +0.003 A 
ATOM     23  C   UNL     1      -7.337  -0.798   8.289  0.00  0.00    +0.040 A 
ATOM     24  C   UNL     1      -6.173  -1.304   7.739  0.00  0.00    +0.144 A 
ATOM     25  F   UNL     1      -5.553  -0.641   6.738  0.00  0.00    -0.204 F 
ENDBRANCH  16  19
ENDBRANCH   3  11
BRANCH   1  31
ATOM     26  C   UNL     1      -0.741   1.394   0.155  0.00  0.00    +0.044 C 
ATOM     27  C   UNL     1      -0.663  -0.111   0.183  0.00  0.00    -0.050 A 
ATOM     28  C   UNL     1      -0.746  -0.829  -0.996  0.00  0.00    +0.003 A 
ATOM     29  C   UNL     1      -0.675  -2.209  -0.971  0.00  0.00    +0.001 A 
ATOM     30  C   UNL     1      -0.519  -2.872   0.233  0.00  0.00    +0.004 A 
ATOM     31  C   UNL     1      -0.435  -2.154   1.411  0.00  0.00    -0.043 A 
ATOM     32  C   UNL     1      -0.502  -0.773   1.385  0.00  0.00    +0.007 A 
ENDBRANCH   1  31
BRANCH   9  33
ATOM     33  C   UNL     1       3.446  -5.093   6.700  0.00  0.00    +0.068 C 
ATOM     34  C   UNL     1       3.121  -4.017   7.738  0.00  0.00    +0.027 C 
ATOM     35  C   UNL     1       3.704  -6.424   7.408  0.00  0.00    +0.027 C 
ENDBRANCH   9  33
TORSDOF 4
