REMARK  Name = ZINC41394182
REMARK  5 active torsions:
REMARK  status: ('A' for Active; 'I' for Inactive)
REMARK    1  A    between atoms: C_1  and  C_2
REMARK    2  A    between atoms: C_2  and  C_3
REMARK    3  A    between atoms: C_2  and  N_4
REMARK    4  A    between atoms: N_14  and  C_15
REMARK    5  A    between atoms: C_15  and  C_16
REMARK                            x       y       z     vdW  Elec       q    Type
REMARK                         _______ _______ _______ _____ _____    ______ ____
ROOT
ATOM      1  N   UNL     1      -1.373  -0.509   0.011  0.00  0.00    -0.278 N 
ATOM      2  C   UNL     1      -2.155  -0.273   1.081  0.00  0.00    +0.264 A 
ATOM      3  O   UNL     1      -1.728   0.358   2.032  0.00  0.00    -0.267 OA
ATOM      4  C   UNL     1      -3.496  -0.774   1.085  0.00  0.00    +0.076 A 
ATOM      5  C   UNL     1      -4.511  -0.639   2.131  0.00  0.00    -0.023 A 
ATOM      6  C   UNL     1      -5.712  -1.205   1.895  0.00  0.00    -0.004 A 
ATOM      7  S   UNL     1      -5.566  -1.942   0.290  0.00  0.00    -0.073 S 
ATOM      8  C   UNL     1      -3.887  -1.486  -0.060  0.00  0.00    +0.117 A 
ATOM      9  N   UNL     1      -3.064  -1.684  -1.084  0.00  0.00    -0.208 NA
ATOM     10  C   UNL     1      -1.836  -1.208  -1.064  0.00  0.00    +0.200 A 
ATOM     11  N   UNL     1      -1.009  -1.423  -2.139  0.00  0.00    -0.311 N 
ATOM     12  C   UNL     1      -6.908  -1.209   2.799  0.00  0.00    +0.043 C 
ATOM     13  C   UNL     1      -6.454  -0.789   4.204  0.00  0.00    +0.005 C 
ATOM     14  C   UNL     1      -5.581   0.464   4.085  0.00  0.00    +0.005 C 
ATOM     15  C   UNL     1      -4.243   0.105   3.437  0.00  0.00    +0.037 C 
ATOM     16  H   UNL     1      -0.081  -1.144  -2.100  0.00  0.00    +0.149 HD
ENDROOT
BRANCH   1  18
ATOM     17  C   UNL     1      -0.019   1.524   0.138  0.00  0.00    +0.031 C 
ATOM     18  C   UNL     1       0.001   0.000   0.000  0.00  0.00    +0.087 C 
ATOM     19  C   UNL     1       0.780  -0.608   1.168  0.00  0.00    +0.031 C 
ENDBRANCH   1  18
BRANCH  11  20
ATOM     20  C   UNL     1      -1.529  -2.073  -3.344  0.00  0.00    +0.139 C 
BRANCH  20  21
ATOM     21  C   UNL     1      -0.428  -2.189  -4.367  0.00  0.00    -0.027 A 
ATOM     22  C   UNL     1      -0.223  -1.169  -5.278  0.00  0.00    +0.009 A 
ATOM     23  C   UNL     1       0.786  -1.270  -6.218  0.00  0.00    +0.050 A 
ATOM     24  C   UNL     1       1.594  -2.395  -6.248  0.00  0.00    +0.166 A 
ATOM     25  C   UNL     1       1.388  -3.422  -5.331  0.00  0.00    +0.167 A 
ATOM     26  C   UNL     1       0.379  -3.311  -4.388  0.00  0.00    +0.054 A 
ATOM     27  O   UNL     1       2.304  -4.407  -5.565  0.00  0.00    -0.453 OA
ATOM     28  C   UNL     1       2.806  -4.157  -6.891  0.00  0.00    +0.466 C 
ATOM     29  O   UNL     1       2.639  -2.736  -7.058  0.00  0.00    -0.453 OA
ENDBRANCH  20  21
ENDBRANCH  11  20
TORSDOF 3
