REMARK  Name = ZINC45701203
REMARK  9 active torsions:
REMARK  status: ('A' for Active; 'I' for Inactive)
REMARK    1  A    between atoms: C_1  and  C_2
REMARK    2  A    between atoms: N_5  and  C_11
REMARK    3  A    between atoms: C_7  and  C_9
REMARK    4  A    between atoms: C_7  and  C_10
REMARK    5  A    between atoms: C_16  and  C_17
REMARK    6  A    between atoms: C_17  and  N_18
REMARK    7  A    between atoms: N_18  and  C_19
REMARK    8  A    between atoms: C_19  and  C_20
REMARK    9  A    between atoms: C_19  and  C_21
REMARK                            x       y       z     vdW  Elec       q    Type
REMARK                         _______ _______ _______ _____ _____    ______ ____
ROOT
ATOM      1  C   UNL     1       0.384  -2.605  -2.315  0.00  0.00    +0.032 A 
ATOM      2  C   UNL     1       1.220  -2.836  -3.400  0.00  0.00    +0.038 A 
ATOM      3  C   UNL     1       0.902  -3.819  -4.318  0.00  0.00    +0.020 A 
ATOM      4  C   UNL     1      -0.248  -4.571  -4.157  0.00  0.00    +0.015 A 
ATOM      5  C   UNL     1      -1.082  -4.343  -3.078  0.00  0.00    +0.004 A 
ATOM      6  C   UNL     1      -0.767  -3.366  -2.154  0.00  0.00    -0.043 A 
ATOM      7 BR   UNL     1       2.039  -4.135  -5.795  0.00  0.00    -0.050 Br
ENDROOT
BRANCH   1  11
ATOM      8  C   UNL     1       3.267  -1.170   1.361  0.00  0.00    +0.039 C 
ATOM      9  C   UNL     1       2.613  -0.983  -0.010  0.00  0.00    +0.133 C 
ATOM     10  C   UNL     1       1.424  -1.941  -0.145  0.00  0.00    +0.136 C 
ATOM     11  N   UNL     1       0.702  -1.613  -1.385  0.00  0.00    -0.325 N 
ATOM     12  C   UNL     1       0.326  -0.209  -1.615  0.00  0.00    +0.139 C 
ATOM     13  C   UNL     1       1.568   0.665  -1.408  0.00  0.00    +0.080 C 
ATOM     14  O   UNL     1       2.150   0.364  -0.138  0.00  0.00    -0.368 OA
ATOM     15  C   UNL     1       2.584   0.378  -2.515  0.00  0.00    +0.043 C 
ATOM     16  C   UNL     1       1.167   2.141  -1.450  0.00  0.00    +0.043 C 
ENDBRANCH   1  11
BRANCH   6  17
ATOM     17  C   UNL     1      -1.673  -3.123  -0.975  0.00  0.00    -0.045 C 
BRANCH  17  18
ATOM     18  N   UNL     1      -2.519  -1.951  -1.241  0.00  0.00    +0.383 N 
ATOM     19  H   UNL     1      -1.941  -1.127  -1.305  0.00  0.00    -0.085 HD
ATOM     20  H   UNL     1      -3.013  -2.084  -2.111  0.00  0.00    -0.085 HD
BRANCH  18  21
ATOM     21  C   UNL     1      -3.486  -1.787  -0.148  0.00  0.00    -0.078 C 
ATOM     22  C   UNL     1      -2.742  -1.445   1.145  0.00  0.00    -0.014 C 
ATOM     23  C   UNL     1      -4.457  -0.656  -0.492  0.00  0.00    -0.014 C 
ENDBRANCH  18  21
ENDBRANCH  17  18
ENDBRANCH   6  17
TORSDOF 4
