REMARK  Name = ZINC12167958
REMARK  5 active torsions:
REMARK  status: ('A' for Active; 'I' for Inactive)
REMARK    1  A    between atoms: C_8  and  C_10
REMARK    2  A    between atoms: C_14  and  O_16
REMARK    3  A    between atoms: O_16  and  C_17
REMARK    4  A    between atoms: C_27  and  C_28
REMARK    5  A    between atoms: C_27  and  N_59
REMARK                            x       y       z     vdW  Elec       q    Type
REMARK                         _______ _______ _______ _____ _____    ______ ____
ROOT
ATOM      1  C   UNL     1       3.556   2.445   1.282  0.00  0.00    +0.011 A 
ATOM      2  C   UNL     1       2.248   1.958   1.339  0.00  0.00    +0.016 A 
ATOM      3  C   UNL     1       1.631   1.525   0.187  0.00  0.00    -0.018 A 
ATOM      4  C   UNL     1       2.298   1.549  -1.024  0.00  0.00    +0.163 A 
ATOM      5  C   UNL     1       3.600   2.044  -1.091  0.00  0.00    +0.163 A 
ATOM      6  C   UNL     1       4.226   2.490   0.058  0.00  0.00    +0.060 A 
ATOM      7  O   UNL     1       1.690   1.084  -2.148  0.00  0.00    -0.490 OA
ATOM      8  C   UNL     1       1.480  -0.333  -2.190  0.00  0.00    +0.211 C 
ATOM      9  C   UNL     1       0.189  -0.703  -1.490  0.00  0.00    -0.036 C 
ATOM     10  C   UNL     1       0.201   1.018   0.233  0.00  0.00    -0.039 C 
ATOM     11  N   UNL     1       0.228  -0.439  -0.035  0.00  0.00    +0.387 N 
ATOM     12  H   UNL     1       1.097  -0.828   0.348  0.00  0.00    -0.081 HD
ENDROOT
BRANCH   1  20
ATOM     13  C   UNL     1       4.987   3.978   7.071  0.00  0.00    +0.002 A 
ATOM     14  C   UNL     1       6.263   4.404   6.728  0.00  0.00    +0.001 A 
ATOM     15  C   UNL     1       6.669   4.332   5.409  0.00  0.00    +0.017 A 
ATOM     16  C   UNL     1       5.804   3.841   4.462  0.00  0.00    +0.040 A 
ATOM     17  C   UNL     1       4.498   3.400   4.780  0.00  0.00    +0.079 A 
ATOM     18  C   UNL     1       4.123   3.491   6.141  0.00  0.00    +0.029 A 
ATOM     19  N   UNL     1       3.764   2.950   3.742  0.00  0.00    -0.239 NA
ATOM     20  C   UNL     1       4.229   2.910   2.513  0.00  0.00    +0.110 A 
ATOM     21  S   UNL     1       5.879   3.570   2.708  0.00  0.00    -0.067 S 
ENDBRANCH   1  20
BRANCH   5  22
ATOM     22  O   UNL     1       4.252   2.087  -2.284  0.00  0.00    -0.483 OA
BRANCH  22  23
ATOM     23  C   UNL     1       5.537   2.712  -2.299  0.00  0.00    +0.201 C 
ATOM     24  C   UNL     1       5.931   3.109  -3.742  0.00  0.00    +0.075 C 
ATOM     25  C   UNL     1       7.436   2.742  -3.781  0.00  0.00    +0.163 C 
ATOM     26  O   UNL     1       7.509   1.534  -2.994  0.00  0.00    -0.376 OA
ATOM     27  C   UNL     1       6.628   1.710  -1.872  0.00  0.00    +0.204 C 
ENDBRANCH  22  23
ENDBRANCH   5  22
BRANCH  11  28
ATOM     28  C   UNL     1      -0.917  -1.092   0.620  0.00  0.00    -0.042 C 
BRANCH  28  29
ATOM     29  C   UNL     1      -0.749  -2.585   0.504  0.00  0.00    -0.061 A 
ATOM     30  C   UNL     1      -1.302  -3.261  -0.568  0.00  0.00    +0.005 A 
ATOM     31  C   UNL     1      -1.145  -4.629  -0.679  0.00  0.00    +0.041 A 
ATOM     32  C   UNL     1      -0.443  -5.326   0.288  0.00  0.00    +0.158 A 
ATOM     33  C   UNL     1       0.108  -4.649   1.366  0.00  0.00    +0.159 A 
ATOM     34  C   UNL     1      -0.046  -3.278   1.472  0.00  0.00    +0.043 A 
ATOM     35  F   UNL     1       0.794  -5.328   2.311  0.00  0.00    -0.202 F 
ATOM     36  F   UNL     1      -0.293  -6.665   0.183  0.00  0.00    -0.202 F 
ENDBRANCH  28  29
ENDBRANCH  11  28
TORSDOF 5
