REMARK  Name = ZINC15018088
REMARK  5 active torsions:
REMARK  status: ('A' for Active; 'I' for Inactive)
REMARK    1  A    between atoms: C_1  and  C_2
REMARK    2  A    between atoms: C_4  and  C_27
REMARK    3  A    between atoms: C_16  and  C_19
REMARK    4  A    between atoms: C_23  and  O_25
REMARK    5  A    between atoms: O_25  and  C_26
REMARK                            x       y       z     vdW  Elec       q    Type
REMARK                         _______ _______ _______ _____ _____    ______ ____
ROOT
ATOM      1  C   UNL     1      -1.331   2.117   0.020  0.00  0.00    +0.044 C 
ATOM      2  C   UNL     1      -0.017   1.379   0.010  0.00  0.00    -0.050 A 
ATOM      3  C   UNL     1       0.002  -0.004   0.002  0.00  0.00    +0.008 A 
ATOM      4  C   UNL     1       1.204  -0.677  -0.017  0.00  0.00    -0.029 A 
ATOM      5  C   UNL     1       2.410   0.028  -0.025  0.00  0.00    +0.036 A 
ATOM      6  C   UNL     1       2.384   1.411  -0.012  0.00  0.00    +0.003 A 
ATOM      7  C   UNL     1       1.172   2.082   0.002  0.00  0.00    +0.011 A 
ATOM      8  C   UNL     1       3.653   2.233  -0.006  0.00  0.00    +0.155 C 
ATOM      9  C   UNL     1       4.815   1.347  -0.452  0.00  0.00    +0.047 C 
ATOM     10  C   UNL     1       6.150   2.057  -0.258  0.00  0.00    +0.011 C 
ATOM     11  C   UNL     1       6.275   2.538   1.190  0.00  0.00    +0.028 C 
ATOM     12  C   UNL     1       5.079   3.441   1.511  0.00  0.00    +0.160 C 
ATOM     13  O   UNL     1       3.875   2.698   1.328  0.00  0.00    -0.372 OA
ATOM     14  C   UNL     1       4.770   0.049   0.356  0.00  0.00    +0.107 C 
ATOM     15  N   UNL     1       3.589  -0.715  -0.055  0.00  0.00    -0.336 N 
ATOM     16  C   UNL     1       1.218  -2.184  -0.029  0.00  0.00    +0.045 C 
ATOM     17  H   UNL     1       3.728  -1.136  -0.962  0.00  0.00    +0.147 HD
ENDROOT
BRANCH  14  18
ATOM     18  C   UNL     1       6.013  -0.760   0.092  0.00  0.00    -0.023 A 
ATOM     19  C   UNL     1       6.117  -1.510  -1.066  0.00  0.00    +0.006 A 
ATOM     20  C   UNL     1       7.257  -2.252  -1.312  0.00  0.00    +0.004 A 
ATOM     21  C   UNL     1       8.296  -2.247  -0.400  0.00  0.00    +0.045 A 
ATOM     22  C   UNL     1       8.194  -1.496   0.761  0.00  0.00    +0.120 A 
ATOM     23  C   UNL     1       7.051  -0.747   1.003  0.00  0.00    +0.051 A 
BRANCH  22  24
ATOM     24  O   UNL     1       9.214  -1.490   1.659  0.00  0.00    -0.495 OA
ATOM     25  C   UNL     1      10.363  -2.279   1.342  0.00  0.00    +0.277 C 
ENDBRANCH  22  24
ENDBRANCH  14  18
TORSDOF 2
