REMARK  Name = ZINC40780591
REMARK  4 active torsions:
REMARK  status: ('A' for Active; 'I' for Inactive)
REMARK    1  A    between atoms: C_10  and  C_11
REMARK    2  A    between atoms: N_13  and  N_14
REMARK    3  A    between atoms: C_16  and  N_31
REMARK    4  A    between atoms: C_17  and  N_21
REMARK                            x       y       z     vdW  Elec       q    Type
REMARK                         _______ _______ _______ _____ _____    ______ ____
ROOT
ATOM      1  N   UNL     1       7.323   0.191   0.036  0.00  0.00    -0.247 N 
ATOM      2  C   UNL     1       8.534  -0.485   0.126  0.00  0.00    +0.161 A 
ATOM      3  C   UNL     1       9.740   0.218   0.125  0.00  0.00    +0.107 A 
ATOM      4  C   UNL     1      10.927  -0.509   0.217  0.00  0.00    +0.148 A 
ATOM      5  N   UNL     1      10.865  -1.836   0.301  0.00  0.00    -0.219 NA
ATOM      6  C   UNL     1       9.705  -2.462   0.298  0.00  0.00    +0.225 A 
ATOM      7  N   UNL     1       8.562  -1.812   0.219  0.00  0.00    -0.217 NA
ATOM      8  H   UNL     1       7.311   1.159  -0.031  0.00  0.00    +0.172 HD
ENDROOT
BRANCH   4   9
ATOM      9  N   UNL     1      12.155   0.141   0.220  0.00  0.00    -0.309 N 
ATOM     10  C   UNL     1      12.838   0.481   1.480  0.00  0.00    +0.111 C 
ATOM     11  C   UNL     1      14.145  -0.310   1.533  0.00  0.00    +0.054 C 
ATOM     12  C   UNL     1      14.893  -0.197   0.231  0.00  0.00    -0.041 A 
ATOM     13  C   UNL     1      16.254  -0.479   0.244  0.00  0.00    +0.004 A 
ATOM     14  C   UNL     1      16.997  -0.404  -0.916  0.00  0.00    +0.000 A 
ATOM     15  C   UNL     1      16.385  -0.047  -2.103  0.00  0.00    +0.000 A 
ATOM     16  C   UNL     1      15.035   0.238  -2.118  0.00  0.00    +0.005 A 
ATOM     17  C   UNL     1      14.287   0.168  -0.950  0.00  0.00    -0.027 A 
ATOM     18  C   UNL     1      12.825   0.512  -1.031  0.00  0.00    +0.142 C 
ENDBRANCH   4   9
BRANCH   1  21
ATOM     19  C   UNL     1       4.944   0.130  -0.043  0.00  0.00    +0.261 C 
ATOM     20  O   UNL     1       4.929   1.343  -0.128  0.00  0.00    -0.269 OA
ATOM     21  N   UNL     1       6.119  -0.525   0.044  0.00  0.00    -0.231 N 
ATOM     22  H   UNL     1       6.130  -1.493   0.111  0.00  0.00    +0.173 HD
BRANCH  19  32
ATOM     23  C   UNL     1      -0.017   1.353   0.077  0.00  0.00    +0.001 A 
ATOM     24  C   UNL     1       1.168   2.086   0.071  0.00  0.00    +0.001 A 
ATOM     25  C   UNL     1       2.378   1.461   0.035  0.00  0.00    +0.009 A 
ATOM     26  C   UNL     1       2.436   0.061   0.003  0.00  0.00    -0.006 A 
ATOM     27  C   UNL     1       1.233  -0.686   0.009  0.00  0.00    -0.017 A 
ATOM     28  C   UNL     1       0.002  -0.008   0.047  0.00  0.00    +0.008 A 
ATOM     29  C   UNL     1       1.290  -2.090  -0.022  0.00  0.00    +0.008 A 
ATOM     30  C   UNL     1       2.495  -2.726  -0.058  0.00  0.00    +0.001 A 
ATOM     31  C   UNL     1       3.685  -2.010  -0.064  0.00  0.00    +0.014 A 
ATOM     32  C   UNL     1       3.677  -0.623  -0.035  0.00  0.00    +0.046 A 
ENDBRANCH  19  32
ENDBRANCH   1  21
BRANCH   3  33
ATOM     33  N   UNL     1       9.758   1.620   0.034  0.00  0.00    -0.353 N 
ATOM     34  H   UNL     1       8.925   2.117   0.044  0.00  0.00    +0.143 HD
ATOM     35  H   UNL     1      10.603   2.091  -0.039  0.00  0.00    +0.143 HD
ENDBRANCH   3  33
TORSDOF 4
