REMARK  Name = ZINC05376467
REMARK  6 active torsions:
REMARK  status: ('A' for Active; 'I' for Inactive)
REMARK    1  A    between atoms: C_1  and  O_2
REMARK    2  A    between atoms: O_2  and  C_3
REMARK    3  A    between atoms: C_6  and  O_25
REMARK    4  A    between atoms: C_7  and  C_9
REMARK    5  A    between atoms: N_15  and  C_16
REMARK    6  A    between atoms: O_25  and  C_26
REMARK                            x       y       z     vdW  Elec       q    Type
REMARK                         _______ _______ _______ _____ _____    ______ ____
ROOT
ATOM      1  C   UNL     1       2.034   4.032   0.004  0.00  0.00    +0.032 C 
ATOM      2  C   UNL     1       1.070   3.140   0.347  0.00  0.00    +0.078 C 
ATOM      3  C   UNL     1       1.192   1.701   0.651  0.00  0.00    +0.256 C 
ATOM      4  O   UNL     1       2.268   1.133   0.618  0.00  0.00    -0.269 OA
ATOM      5  N   UNL     1       0.080   1.057   0.961  0.00  0.00    -0.260 N 
ATOM      6  C   UNL     1      -1.130   1.718   0.988  0.00  0.00    +0.166 C 
ATOM      7  N   UNL     1      -2.319   1.234   1.268  0.00  0.00    -0.226 NA
ATOM      8  S   UNL     1      -0.687   3.392   0.553  0.00  0.00    -0.049 S 
ATOM      9  H   UNL     1       0.114   0.110   1.167  0.00  0.00    +0.157 HD
ENDROOT
BRANCH   7  10
ATOM     10  C   UNL     1      -3.415   2.054   1.243  0.00  0.00    +0.068 A 
ATOM     11  C   UNL     1      -4.593   1.631   0.624  0.00  0.00    +0.031 A 
ATOM     12  C   UNL     1      -5.694   2.461   0.602  0.00  0.00    +0.042 A 
ATOM     13  C   UNL     1      -5.634   3.713   1.192  0.00  0.00    +0.142 A 
ATOM     14  C   UNL     1      -4.468   4.139   1.808  0.00  0.00    +0.078 A 
ATOM     15  C   UNL     1      -3.361   3.314   1.841  0.00  0.00    +0.050 A 
ATOM     16 CL   UNL     1      -4.401   5.709   2.545  0.00  0.00    -0.081 Cl
ATOM     17  F   UNL     1      -6.716   4.521   1.166  0.00  0.00    -0.204 F 
ENDBRANCH   7  10
BRANCH   1  22
ATOM     18  C   UNL     1       0.258   7.311   0.415  0.00  0.00    +0.121 A 
ATOM     19  C   UNL     1       1.099   8.163  -0.291  0.00  0.00    +0.049 A 
ATOM     20  C   UNL     1       2.240   7.674  -0.898  0.00  0.00    +0.050 A 
ATOM     21  C   UNL     1       2.554   6.328  -0.808  0.00  0.00    +0.127 A 
ATOM     22  C   UNL     1       1.710   5.460  -0.097  0.00  0.00    +0.021 A 
ATOM     23  C   UNL     1       0.554   5.964   0.511  0.00  0.00    +0.057 A 
BRANCH  18  25
ATOM     24  C   UNL     1      -1.111   9.203   0.866  0.00  0.00    +0.277 C 
ATOM     25  O   UNL     1      -0.862   7.803   1.009  0.00  0.00    -0.495 OA
ENDBRANCH  18  25
BRANCH  21  26
ATOM     26  O   UNL     1       3.675   5.848  -1.407  0.00  0.00    -0.495 OA
ATOM     27  C   UNL     1       4.486   6.789  -2.113  0.00  0.00    +0.277 C 
ENDBRANCH  21  26
ENDBRANCH   1  22
TORSDOF 4
