REMARK  Name = ZINC39967379
REMARK  13 active torsions:
REMARK  status: ('A' for Active; 'I' for Inactive)
REMARK    1  A    between atoms: C_1  and  C_2
REMARK    2  A    between atoms: C_2  and  N_3
REMARK    3  A    between atoms: C_4  and  C_23
REMARK    4  A    between atoms: C_7  and  S_8
REMARK    5  A    between atoms: S_8  and  C_9
REMARK    6  A    between atoms: C_9  and  C_10
REMARK    7  A    between atoms: N_12  and  C_13
REMARK    8  A    between atoms: C_14  and  C_20
REMARK    9  A    between atoms: C_15  and  C_19
REMARK   10  A    between atoms: C_16  and  C_18
REMARK   11  A    between atoms: C_23  and  C_25
REMARK   12  A    between atoms: C_23  and  O_26
REMARK   13  A    between atoms: O_26  and  C_27
REMARK                            x       y       z     vdW  Elec       q    Type
REMARK                         _______ _______ _______ _____ _____    ______ ____
ROOT
ATOM      1  S   UNL     1      -2.459  -0.342  -2.709  0.00  0.00    -0.077 S 
ENDROOT
BRANCH   1   6
ATOM      2  N   UNL     1      -1.722  -0.419  -0.011  0.00  0.00    -0.303 N 
ATOM      3  C   UNL     1      -2.349  -0.690   1.175  0.00  0.00    +0.175 A 
ATOM      4  N   UNL     1      -3.588  -0.982   0.901  0.00  0.00    -0.130 NA
ATOM      5  N   UNL     1      -3.788  -0.914  -0.367  0.00  0.00    -0.122 NA
ATOM      6  C   UNL     1      -2.677  -0.568  -0.976  0.00  0.00    +0.192 A 
BRANCH   2   8
ATOM      7  C   UNL     1      -0.189   1.482  -0.136  0.00  0.00    +0.027 C 
ATOM      8  C   UNL     1      -0.321  -0.041  -0.204  0.00  0.00    +0.122 C 
ENDBRANCH   2   8
BRANCH   3   9
ATOM      9  C   UNL     1      -1.720  -0.657   2.544  0.00  0.00    +0.238 C 
ATOM     10  C   UNL     1      -2.178   0.601   3.285  0.00  0.00    +0.060 C 
BRANCH   9  11
ATOM     11  O   UNL     1      -2.120  -1.815   3.280  0.00  0.00    -0.480 OA
BRANCH  11  12
ATOM     12  C   UNL     1      -1.294  -2.228   4.277  0.00  0.00    +0.140 A 
ATOM     13  C   UNL     1      -0.183  -1.471   4.617  0.00  0.00    +0.047 A 
ATOM     14  C   UNL     1       0.654  -1.892   5.632  0.00  0.00    +0.004 A 
ATOM     15  C   UNL     1       0.386  -3.068   6.309  0.00  0.00    +0.002 A 
ATOM     16  C   UNL     1      -0.721  -3.825   5.972  0.00  0.00    +0.023 A 
ATOM     17  C   UNL     1      -1.565  -3.405   4.961  0.00  0.00    +0.083 A 
ATOM     18 CL   UNL     1      -2.959  -4.352   4.543  0.00  0.00    -0.080 Cl
ENDBRANCH  11  12
ENDBRANCH   9  11
ENDBRANCH   3   9
ENDBRANCH   1   6
BRANCH   1  19
ATOM     19  C   UNL     1      -4.096  -0.692  -3.407  0.00  0.00    +0.173 C 
BRANCH  19  20
ATOM     20  C   UNL     1      -4.048  -0.532  -4.905  0.00  0.00    +0.228 C 
ATOM     21  O   UNL     1      -3.012  -0.214  -5.448  0.00  0.00    -0.275 OA
ATOM     22  N   UNL     1      -5.158  -0.744  -5.641  0.00  0.00    -0.279 N 
ATOM     23  H   UNL     1      -5.987  -0.999  -5.206  0.00  0.00    +0.155 HD
BRANCH  22  24
ATOM     24  C   UNL     1      -5.114  -0.597  -7.019  0.00  0.00    +0.084 A 
ATOM     25  C   UNL     1      -6.148  -0.766  -7.928  0.00  0.00    +0.068 A 
ATOM     26  C   UNL     1      -5.827  -0.549  -9.320  0.00  0.00    -0.027 A 
ATOM     27  C   UNL     1      -4.552  -0.204  -9.581  0.00  0.00    -0.008 A 
ATOM     28  S   UNL     1      -3.799  -0.167  -7.969  0.00  0.00    -0.078 S 
ATOM     29  C   UNL     1      -3.917   0.086 -10.916  0.00  0.00    +0.052 C 
ATOM     30  C   UNL     1      -6.854  -0.699 -10.412  0.00  0.00    +0.045 C 
BRANCH  25  31
ATOM     31  C   UNL     1      -7.497  -1.147  -7.498  0.00  0.00    +0.244 C 
ATOM     32  O   UNL     1      -8.312  -0.287  -7.220  0.00  0.00    -0.270 OA
ATOM     33  N   UNL     1      -7.835  -2.449  -7.412  0.00  0.00    -0.325 N 
ATOM     34  H   UNL     1      -7.185  -3.134  -7.634  0.00  0.00    +0.145 HD
ATOM     35  H   UNL     1      -8.727  -2.700  -7.128  0.00  0.00    +0.145 HD
ENDBRANCH  25  31
ENDBRANCH  22  24
ENDBRANCH  19  20
ENDBRANCH   1  19
TORSDOF 9
