REMARK  Name = ZINC12660363
REMARK  9 active torsions:
REMARK  status: ('A' for Active; 'I' for Inactive)
REMARK    1  A    between atoms: C_1  and  C_2
REMARK    2  A    between atoms: C_10  and  O_41
REMARK    3  A    between atoms: C_21  and  C_22
REMARK    4  A    between atoms: C_21  and  O_40
REMARK    5  A    between atoms: C_23  and  C_24
REMARK    6  A    between atoms: C_31  and  O_32
REMARK    7  A    between atoms: O_32  and  C_33
REMARK    8  A    between atoms: C_39  and  N_78
REMARK    9  A    between atoms: O_41  and  C_42
REMARK                            x       y       z     vdW  Elec       q    Type
REMARK                         _______ _______ _______ _____ _____    ______ ____
ROOT
ATOM      1  C   UNL     1       6.104   1.580   1.312  0.00  0.00    +0.015 C 
ATOM      2  C   UNL     1       4.603   1.735   1.059  0.00  0.00    +0.011 C 
ATOM      3  C   UNL     1       4.043   0.444   0.493  0.00  0.00    +0.011 C 
ATOM      4  C   UNL     1       4.883   0.091  -0.746  0.00  0.00    +0.009 C 
ATOM      5  C   UNL     1       4.876   1.216  -1.772  0.00  0.00    +0.023 C 
ATOM      6  C   UNL     1       3.531   1.309  -2.438  0.00  0.00    -0.041 A 
ATOM      7  C   UNL     1       2.863   0.122  -2.714  0.00  0.00    +0.008 A 
ATOM      8  C   UNL     1       1.629   0.137  -3.329  0.00  0.00    +0.046 A 
ATOM      9  C   UNL     1       1.048   1.348  -3.676  0.00  0.00    +0.120 A 
ATOM     10  C   UNL     1       1.712   2.530  -3.399  0.00  0.00    +0.049 A 
ATOM     11  C   UNL     1       2.954   2.512  -2.778  0.00  0.00    -0.040 A 
ATOM     12  C   UNL     1       3.616   3.836  -2.496  0.00  0.00    +0.036 C 
ATOM     13  C   UNL     1       5.109   3.644  -2.238  0.00  0.00    +0.009 C 
ATOM     14  C   UNL     1       5.263   2.566  -1.162  0.00  0.00    +0.000 C 
ATOM     15  C   UNL     1       4.359   2.846   0.004  0.00  0.00    +0.002 C 
ATOM     16  C   UNL     1       4.674   4.112   0.809  0.00  0.00    +0.008 C 
ATOM     17  C   UNL     1       4.015   3.823   2.188  0.00  0.00    +0.049 C 
ATOM     18  C   UNL     1       3.923   2.281   2.310  0.00  0.00    +0.132 C 
ENDROOT
BRANCH  18  19
ATOM     19  C   UNL     1       2.515   1.856   2.352  0.00  0.00    -0.068 C 
ATOM     20  C   UNL     1       1.391   1.517   2.385  0.00  0.00    -0.110 C 
BRANCH  20  21
ATOM     21  C   UNL     1      -0.018   1.092   2.427  0.00  0.00    +0.043 C 
ATOM     22  C   UNL     1      -0.673   1.664   3.657  0.00  0.00    -0.001 A 
ATOM     23  C   UNL     1      -1.509   2.759   3.593  0.00  0.00    -0.039 A 
ATOM     24  C   UNL     1      -2.088   3.257   4.751  0.00  0.00    +0.053 A 
ATOM     25  C   UNL     1      -1.836   2.661   5.975  0.00  0.00    +0.170 A 
ATOM     26  C   UNL     1      -0.996   1.555   6.043  0.00  0.00    +0.208 A 
ATOM     27  C   UNL     1      -0.417   1.060   4.884  0.00  0.00    +0.168 A 
ATOM     28  O   UNL     1      -0.908   1.152   7.346  0.00  0.00    -0.449 OA
ATOM     29  C   UNL     1      -2.023   1.771   8.015  0.00  0.00    +0.467 C 
ATOM     30  O   UNL     1      -2.276   2.954   7.234  0.00  0.00    -0.452 OA
ATOM     31  C   UNL     1      -1.824   3.438   2.285  0.00  0.00    +0.017 C 
ATOM     32  C   UNL     1      -0.802   3.028   1.224  0.00  0.00    -0.072 C 
ATOM     33  C   UNL     1      -0.013   1.086   0.008  0.00  0.00    -0.094 C 
ATOM     34  N   UNL     1      -0.723   1.553   1.220  0.00  0.00    +0.390 N 
ATOM     35  H   UNL     1      -1.675   1.167   1.219  0.00  0.00    -0.080 HD
BRANCH  27  36
ATOM     36  O   UNL     1       0.406  -0.021   4.947  0.00  0.00    -0.491 OA
ATOM     37  C   UNL     1       1.798   0.234   5.147  0.00  0.00    +0.277 C 
ENDBRANCH  27  36
ENDBRANCH  20  21
ENDBRANCH  18  19
BRANCH  18  38
ATOM     38  O   UNL     1       4.609   1.836   3.482  0.00  0.00    -0.376 OA
ATOM     39  H   UNL     1       4.233   2.169   4.308  0.00  0.00    +0.211 HD
ENDBRANCH  18  38
BRANCH   9  40
ATOM     40  O   UNL     1      -0.167   1.373  -4.286  0.00  0.00    -0.495 OA
ATOM     41  C   UNL     1      -0.791   0.113  -4.540  0.00  0.00    +0.277 C 
ENDBRANCH   9  40
TORSDOF 5
