REMARK  Name = ZINC36188734
REMARK  12 active torsions:
REMARK  status: ('A' for Active; 'I' for Inactive)
REMARK    1  A    between atoms: C_1  and  C_2
REMARK    2  A    between atoms: C_9  and  N_15
REMARK    3  A    between atoms: C_10  and  C_11
REMARK    4  A    between atoms: C_11  and  O_13
REMARK    5  A    between atoms: O_13  and  C_14
REMARK    6  A    between atoms: C_16  and  C_18
REMARK    7  A    between atoms: C_18  and  S_19
REMARK    8  A    between atoms: S_19  and  C_20
REMARK    9  A    between atoms: C_23  and  C_26
REMARK   10  A    between atoms: N_24  and  N_25
REMARK   11  A    between atoms: C_29  and  O_32
REMARK   12  A    between atoms: O_32  and  C_33
REMARK                            x       y       z     vdW  Elec       q    Type
REMARK                         _______ _______ _______ _____ _____    ______ ____
ROOT
ATOM      1  N   UNL     1       0.698  -5.847   2.435  0.00  0.00    -0.279 N 
ATOM      2  C   UNL     1       1.679  -6.094   3.325  0.00  0.00    +0.228 C 
ATOM      3  O   UNL     1       2.384  -5.189   3.717  0.00  0.00    -0.275 OA
ATOM      4  H   UNL     1       0.134  -6.571   2.121  0.00  0.00    +0.155 HD
ENDROOT
BRANCH   1  12
ATOM      5  C   UNL     1      -0.019   1.526   0.010  0.00  0.00    +0.008 C 
ATOM      6  C   UNL     1       0.002  -0.004   0.002  0.00  0.00    -0.009 C 
ATOM      7  C   UNL     1      -1.434  -0.537   0.019  0.00  0.00    +0.008 C 
ATOM      8  C   UNL     1      -1.432  -2.045  -0.237  0.00  0.00    +0.037 C 
ATOM      9  C   UNL     1      -0.464  -2.704   0.735  0.00  0.00    -0.021 A 
ATOM     10  C   UNL     1       0.485  -1.986   1.374  0.00  0.00    -0.004 A 
ATOM     11  S   UNL     1       1.344  -3.167   2.373  0.00  0.00    -0.077 S 
ATOM     12  C   UNL     1       0.494  -4.558   1.968  0.00  0.00    +0.086 A 
ATOM     13  C   UNL     1      -0.459  -4.120   1.061  0.00  0.00    +0.091 A 
ATOM     14  C   UNL     1       0.739  -0.515   1.248  0.00  0.00    +0.046 C 
BRANCH  13  15
ATOM     15  C   UNL     1      -1.419  -5.045   0.456  0.00  0.00    +0.342 C 
ATOM     16  O   UNL     1      -1.147  -5.610  -0.586  0.00  0.00    -0.245 OA
BRANCH  15  17
ATOM     17  O   UNL     1      -2.607  -5.272   1.056  0.00  0.00    -0.464 OA
ATOM     18  C   UNL     1      -3.495  -6.186   0.410  0.00  0.00    +0.280 C 
ENDBRANCH  15  17
ENDBRANCH  13  15
ENDBRANCH   1  12
BRANCH   2  19
ATOM     19  C   UNL     1       1.901  -7.496   3.832  0.00  0.00    +0.173 C 
BRANCH  19  20
ATOM     20  S   UNL     1       3.283  -7.503   5.007  0.00  0.00    -0.075 S 
BRANCH  20  21
ATOM     21  C   UNL     1       3.413  -9.188   5.502  0.00  0.00    +0.209 A 
ATOM     22  N   UNL     1       2.663 -10.184   5.085  0.00  0.00    -0.121 NA
ATOM     23  N   UNL     1       3.030 -11.279   5.647  0.00  0.00    -0.127 NA
ATOM     24  C   UNL     1       4.037 -11.051   6.459  0.00  0.00    +0.182 A 
ATOM     25  N   UNL     1       4.316  -9.706   6.387  0.00  0.00    -0.224 N 
BRANCH  24  26
ATOM     26  C   UNL     1       4.740 -12.051   7.290  0.00  0.00    +0.021 A 
ATOM     27  C   UNL     1       5.569 -11.636   8.333  0.00  0.00    +0.015 A 
ATOM     28  C   UNL     1       6.222 -12.572   9.106  0.00  0.00    +0.046 A 
ATOM     29  C   UNL     1       6.057 -13.926   8.848  0.00  0.00    +0.120 A 
ATOM     30  C   UNL     1       5.233 -14.343   7.811  0.00  0.00    +0.046 A 
ATOM     31  C   UNL     1       4.571 -13.414   7.037  0.00  0.00    +0.015 A 
BRANCH  29  32
ATOM     32  O   UNL     1       6.703 -14.846   9.611  0.00  0.00    -0.495 OA
ATOM     33  C   UNL     1       6.489 -16.221   9.290  0.00  0.00    +0.277 C 
ENDBRANCH  29  32
ENDBRANCH  24  26
BRANCH  25  34
ATOM     34  N   UNL     1       5.292  -9.028   7.061  0.00  0.00    -0.295 N 
ATOM     35  H   UNL     1       4.949  -8.688   7.948  0.00  0.00    +0.163 HD
ATOM     36  H   UNL     1       6.111  -9.604   7.187  0.00  0.00    +0.163 HD
ENDBRANCH  25  34
ENDBRANCH  20  21
ENDBRANCH  19  20
ENDBRANCH   2  19
TORSDOF 9
