REMARK  Name = ZINC41586303
REMARK  9 active torsions:
REMARK  status: ('A' for Active; 'I' for Inactive)
REMARK    1  A    between atoms: C_1  and  C_2
REMARK    2  A    between atoms: C_2  and  O_3
REMARK    3  A    between atoms: O_3  and  C_4
REMARK    4  A    between atoms: C_4  and  C_6
REMARK    5  A    between atoms: N_9  and  C_12
REMARK    6  A    between atoms: C_12  and  C_13
REMARK    7  A    between atoms: C_14  and  O_35
REMARK    8  A    between atoms: C_20  and  C_31
REMARK    9  A    between atoms: C_21  and  C_24
REMARK                            x       y       z     vdW  Elec       q    Type
REMARK                         _______ _______ _______ _____ _____    ______ ____
ROOT
ATOM      1  C   UNL     1      -5.443  -6.511   1.494  0.00  0.00    +0.020 A 
ATOM      2  C   UNL     1      -5.474  -7.429   0.458  0.00  0.00    +0.122 A 
ATOM      3  C   UNL     1      -5.641  -8.787   0.717  0.00  0.00    +0.046 A 
ATOM      4  C   UNL     1      -5.774  -9.233   2.002  0.00  0.00    +0.019 A 
ATOM      5  C   UNL     1      -5.742  -8.320   3.055  0.00  0.00    +0.065 A 
ATOM      6  C   UNL     1      -5.574  -6.946   2.806  0.00  0.00    +0.144 A 
ATOM      7  O   UNL     1      -5.554  -6.067   3.826  0.00  0.00    -0.450 OA
ATOM      8  C   UNL     1      -5.382  -6.460   5.090  0.00  0.00    +0.219 A 
ATOM      9  C   UNL     1      -5.522  -7.754   5.483  0.00  0.00    +0.076 A 
ATOM     10  C   UNL     1      -5.873  -8.759   4.458  0.00  0.00    +0.201 A 
ATOM     11  O   UNL     1      -6.236  -9.885   4.752  0.00  0.00    -0.286 OA
ENDROOT
BRANCH   9  12
ATOM     12  C   UNL     1      -5.338  -8.143   6.902  0.00  0.00    -0.011 A 
ATOM     13  C   UNL     1      -6.324  -7.848   7.842  0.00  0.00    +0.010 A 
ATOM     14  C   UNL     1      -6.148  -8.213   9.161  0.00  0.00    +0.020 A 
ATOM     15  C   UNL     1      -4.995  -8.871   9.552  0.00  0.00    +0.041 A 
ATOM     16  C   UNL     1      -4.012  -9.166   8.623  0.00  0.00    +0.020 A 
ATOM     17  C   UNL     1      -4.181  -8.811   7.300  0.00  0.00    +0.010 A 
ATOM     18 CL   UNL     1      -4.780  -9.327  11.213  0.00  0.00    -0.084 Cl
ENDBRANCH   9  12
BRANCH   8  19
ATOM     19  C   UNL     1      -5.017  -5.427   6.124  0.00  0.00    +0.451 C 
ATOM     20  F   UNL     1      -4.711  -6.064   7.332  0.00  0.00    -0.163 F 
ATOM     21  F   UNL     1      -3.905  -4.700   5.686  0.00  0.00    -0.163 F 
ATOM     22  F   UNL     1      -6.096  -4.558   6.316  0.00  0.00    -0.163 F 
ENDBRANCH   8  19
BRANCH   2  23
ATOM     23  O   UNL     1      -5.340  -7.001  -0.823  0.00  0.00    -0.506 OA
ATOM     24  H   UNL     1      -4.425  -6.973  -1.135  0.00  0.00    +0.292 HD
ENDBRANCH   2  23
BRANCH   1  25
ATOM     25  C   UNL     1      -5.261  -5.044   1.199  0.00  0.00    -0.036 C 
BRANCH  25  29
ATOM     26  C   UNL     1      -1.422  -3.657  -0.022  0.00  0.00    +0.094 C 
ATOM     27  C   UNL     1      -2.170  -2.920   1.093  0.00  0.00    -0.004 C 
ATOM     28  C   UNL     1      -3.657  -3.272   1.022  0.00  0.00    -0.078 C 
ATOM     29  N   UNL     1      -3.829  -4.721   1.190  0.00  0.00    +0.383 N 
ATOM     30  C   UNL     1      -3.175  -5.431   0.085  0.00  0.00    -0.078 C 
ATOM     31  C   UNL     1      -1.669  -5.162   0.120  0.00  0.00    -0.004 C 
ATOM     32  H   UNL     1      -3.415  -5.008   2.065  0.00  0.00    -0.081 HD
BRANCH  26  33
ATOM     33  C   UNL     1       0.054  -3.376   0.090  0.00  0.00    +0.310 C 
ATOM     34  O   UNL     1       0.831  -4.285   0.265  0.00  0.00    -0.251 OA
BRANCH  33  35
ATOM     35  O   UNL     1       0.507  -2.116  -0.005  0.00  0.00    -0.465 OA
BRANCH  35  37
ATOM     36  C   UNL     1       2.241  -0.433  -0.022  0.00  0.00    +0.048 C 
ATOM     37  C   UNL     1       1.918  -1.923   0.111  0.00  0.00    +0.229 C 
ENDBRANCH  35  37
ENDBRANCH  33  35
ENDBRANCH  26  33
ENDBRANCH  25  29
ENDBRANCH   1  25
TORSDOF 8
