REMARK  Name = ZINC50310544
REMARK  3 active torsions:
REMARK  status: ('A' for Active; 'I' for Inactive)
REMARK    1  A    between atoms: C_4  and  C_7
REMARK    2  A    between atoms: C_17  and  C_19
REMARK    3  A    between atoms: C_20  and  C_21
REMARK                            x       y       z     vdW  Elec       q    Type
REMARK                         _______ _______ _______ _____ _____    ______ ____
ROOT
ATOM      1  C   UNL     1       3.707  -0.706  -0.031  0.00  0.00    +0.067 C 
ATOM      2  C   UNL     1       3.823  -1.565   1.227  0.00  0.00    +0.121 C 
ATOM      3  N   UNL     1       4.960  -2.483   1.044  0.00  0.00    -0.293 N 
ATOM      4  C   UNL     1       4.856  -3.479  -0.028  0.00  0.00    +0.143 C 
ATOM      5  C   UNL     1       4.314  -2.826  -1.276  0.00  0.00    -0.026 A 
ATOM      6  C   UNL     1       3.782  -1.556  -1.271  0.00  0.00    -0.034 A 
ATOM      7  C   UNL     1       3.288  -1.017  -2.453  0.00  0.00    +0.004 A 
ATOM      8  C   UNL     1       3.334  -1.740  -3.627  0.00  0.00    +0.000 A 
ATOM      9  C   UNL     1       3.876  -3.011  -3.631  0.00  0.00    +0.000 A 
ATOM     10  C   UNL     1       4.364  -3.551  -2.458  0.00  0.00    +0.005 A 
ATOM     11  C   UNL     1       6.053  -2.411   1.830  0.00  0.00    +0.240 C 
ATOM     12  O   UNL     1       6.156  -1.515   2.648  0.00  0.00    -0.271 OA
ENDROOT
BRANCH   1  16
ATOM     13  C   UNL     1      -0.026   1.370   0.024  0.00  0.00    +0.000 A 
ATOM     14  C   UNL     1       1.160   2.081   0.019  0.00  0.00    +0.000 A 
ATOM     15  C   UNL     1       2.368   1.409   0.002  0.00  0.00    +0.004 A 
ATOM     16  C   UNL     1       2.390   0.027  -0.011  0.00  0.00    -0.038 A 
ATOM     17  C   UNL     1       1.204  -0.684  -0.006  0.00  0.00    +0.004 A 
ATOM     18  C   UNL     1      -0.004  -0.012   0.011  0.00  0.00    +0.000 A 
ENDBRANCH   1  16
BRANCH  11  19
ATOM     19  C   UNL     1       7.082  -3.377   1.703  0.00  0.00    +0.069 C 
ATOM     20  C   UNL     1       8.130  -3.365   2.558  0.00  0.00    +0.033 C 
BRANCH  20  21
ATOM     21  C   UNL     1       9.195  -4.365   2.426  0.00  0.00    +0.071 A 
ATOM     22  C   UNL     1      10.283  -4.396   3.278  0.00  0.00    +0.074 A 
ATOM     23  S   UNL     1      11.161  -5.703   2.692  0.00  0.00    -0.083 S 
ATOM     24  C   UNL     1      10.160  -6.160   1.425  0.00  0.00    +0.156 A 
ATOM     25  N   UNL     1       9.172  -5.309   1.479  0.00  0.00    -0.248 NA
ENDBRANCH  20  21
ENDBRANCH  11  19
TORSDOF 3
