REMARK  Name = ZINC49469589
REMARK  12 active torsions:
REMARK  status: ('A' for Active; 'I' for Inactive)
REMARK    1  A    between atoms: C_1  and  C_2
REMARK    2  A    between atoms: C_3  and  C_8
REMARK    3  A    between atoms: C_5  and  C_7
REMARK    4  A    between atoms: N_13  and  C_15
REMARK    5  A    between atoms: C_15  and  C_16
REMARK    6  A    between atoms: C_16  and  N_17
REMARK    7  A    between atoms: N_17  and  S_18
REMARK    8  A    between atoms: S_18  and  C_21
REMARK    9  A    between atoms: C_24  and  N_27
REMARK   10  A    between atoms: C_28  and  C_30
REMARK   11  A    between atoms: C_30  and  C_31
REMARK   12  A    between atoms: C_30  and  C_32
REMARK                            x       y       z     vdW  Elec       q    Type
REMARK                         _______ _______ _______ _____ _____    ______ ____
ROOT
ATOM      1  N   UNL     1      -1.618   4.725  -4.599  0.00  0.00    -0.188 NA
ATOM      2  H   UNL     1      -0.756   5.136  -4.427  0.00  0.00    +0.148 HD
ENDROOT
BRANCH   1   3
ATOM      3  S   UNL     1      -2.929   5.669  -4.960  0.00  0.00    +0.058 S 
ATOM      4  O   UNL     1      -2.483   7.018  -4.914  0.00  0.00    -0.153 OA
ATOM      5  O   UNL     1      -3.530   5.104  -6.117  0.00  0.00    -0.153 OA
BRANCH   3   6
ATOM      6  C   UNL     1      -4.087   5.477  -3.646  0.00  0.00    +0.105 A 
ATOM      7  C   UNL     1      -5.040   4.477  -3.707  0.00  0.00    +0.030 A 
ATOM      8  C   UNL     1      -5.949   4.324  -2.678  0.00  0.00    +0.025 A 
ATOM      9  C   UNL     1      -5.905   5.175  -1.582  0.00  0.00    +0.034 A 
ATOM     10  C   UNL     1      -4.946   6.177  -1.523  0.00  0.00    +0.025 A 
ATOM     11  C   UNL     1      -4.037   6.322  -2.553  0.00  0.00    +0.030 A 
BRANCH   9  12
ATOM     12  N   UNL     1      -6.825   5.022  -0.538  0.00  0.00    -0.285 N 
ATOM     13  C   UNL     1      -7.273   3.795  -0.209  0.00  0.00    +0.220 C 
ATOM     14  O   UNL     1      -6.809   2.814  -0.752  0.00  0.00    -0.275 OA
ATOM     15  H   UNL     1      -7.139   5.800  -0.052  0.00  0.00    +0.155 HD
BRANCH  13  16
ATOM     16  C   UNL     1      -8.351   3.641   0.833  0.00  0.00    +0.069 C 
ATOM     17  C   UNL     1      -9.609   4.385   0.379  0.00  0.00    +0.017 C 
ATOM     18  C   UNL     1      -8.675   2.157   1.016  0.00  0.00    +0.017 C 
ENDBRANCH  13  16
ENDBRANCH   9  12
ENDBRANCH   3   6
ENDBRANCH   1   3
BRANCH   1  19
ATOM     19  C   UNL     1      -1.758   3.268  -4.539  0.00  0.00    +0.129 C 
BRANCH  19  20
ATOM     20  C   UNL     1      -0.372   2.620  -4.564  0.00  0.00    +0.164 C 
BRANCH  20  26
ATOM     21  C   UNL     1      -0.656  -0.718  -3.233  0.00  0.00    +0.100 A 
ATOM     22  C   UNL     1      -0.772  -1.537  -4.382  0.00  0.00    +0.036 A 
ATOM     23  C   UNL     1      -0.752  -0.938  -5.606  0.00  0.00    +0.074 A 
ATOM     24  C   UNL     1      -0.617   0.468  -5.652  0.00  0.00    +0.267 A 
ATOM     25  O   UNL     1      -0.595   1.048  -6.726  0.00  0.00    -0.266 OA
ATOM     26  N   UNL     1      -0.513   1.163  -4.504  0.00  0.00    -0.228 N 
ATOM     27  N   UNL     1      -0.538   0.585  -3.358  0.00  0.00    -0.168 NA
BRANCH  21  30
ATOM     28  C   UNL     1      -0.437   0.755  -0.501  0.00  0.00    +0.067 C 
ATOM     29  C   UNL     1      -0.582  -0.737  -0.654  0.00  0.00    +0.055 A 
ATOM     30  C   UNL     1      -0.673  -1.330  -1.887  0.00  0.00    +0.062 A 
ATOM     31  S   UNL     1      -0.820  -3.046  -1.416  0.00  0.00    -0.070 S 
ATOM     32  C   UNL     1      -0.752  -2.835   0.252  0.00  0.00    +0.076 A 
ATOM     33  N   UNL     1      -0.621  -1.538   0.389  0.00  0.00    -0.249 NA
ATOM     34  C   UNL     1      -0.819  -3.885   1.331  0.00  0.00    +0.073 C 
ENDBRANCH  21  30
ENDBRANCH  20  26
ENDBRANCH  19  20
ENDBRANCH   1  19
TORSDOF 8
