REMARK  Name = ZINC59426336
REMARK  6 active torsions:
REMARK  status: ('A' for Active; 'I' for Inactive)
REMARK    1  A    between atoms: C_1  and  C_2
REMARK    2  A    between atoms: C_4  and  C_15
REMARK    3  A    between atoms: C_5  and  C_14
REMARK    4  A    between atoms: N_6  and  C_7
REMARK    5  A    between atoms: N_16  and  C_17
REMARK    6  A    between atoms: C_20  and  N_23
REMARK                            x       y       z     vdW  Elec       q    Type
REMARK                         _______ _______ _______ _____ _____    ______ ____
ROOT
ATOM      1  C   UNL     1      -0.018   1.503   0.010  0.00  0.00    +0.064 C 
ATOM      2  C   UNL     1       0.002  -0.004   0.002  0.00  0.00    +0.022 A 
ATOM      3  C   UNL     1       0.008  -0.777  -1.098  0.00  0.00    +0.032 A 
ATOM      4  C   UNL     1       0.029  -2.169  -0.631  0.00  0.00    +0.014 A 
ATOM      5  C   UNL     1       0.034  -2.109   0.747  0.00  0.00    +0.030 A 
ATOM      6  N   UNL     1       0.023  -0.802   1.111  0.00  0.00    -0.317 N 
ATOM      7  C   UNL     1       0.053  -3.289   1.684  0.00  0.00    +0.064 C 
ENDROOT
BRANCH   6   8
ATOM      8  C   UNL     1       0.030  -0.338   2.433  0.00  0.00    +0.047 A 
ATOM      9  C   UNL     1       1.133  -0.566   3.245  0.00  0.00    +0.027 A 
ATOM     10  C   UNL     1       1.137  -0.107   4.548  0.00  0.00    +0.016 A 
ATOM     11  C   UNL     1       0.043   0.580   5.044  0.00  0.00    +0.014 A 
ATOM     12  C   UNL     1      -1.057   0.809   4.237  0.00  0.00    +0.016 A 
ATOM     13  C   UNL     1      -1.064   0.357   2.932  0.00  0.00    +0.027 A 
ATOM     14  I   UNL     1       0.053   1.274   7.020  0.00  0.00    -0.044 I 
ENDBRANCH   6   8
BRANCH   4  15
ATOM     15  C   UNL     1       0.042  -3.379  -1.463  0.00  0.00    +0.121 C 
ATOM     16  N   UNL     1       0.060  -4.557  -0.901  0.00  0.00    -0.255 NA
BRANCH  16  17
ATOM     17  C   UNL     1       0.072  -5.685  -1.676  0.00  0.00    +0.064 A 
ATOM     18  C   UNL     1      -0.781  -5.789  -2.777  0.00  0.00    +0.030 A 
ATOM     19  C   UNL     1      -0.763  -6.928  -3.554  0.00  0.00    +0.035 A 
ATOM     20  C   UNL     1       0.096  -7.968  -3.244  0.00  0.00    +0.126 A 
ATOM     21  C   UNL     1       0.943  -7.872  -2.154  0.00  0.00    +0.035 A 
ATOM     22  C   UNL     1       0.941  -6.735  -1.373  0.00  0.00    +0.030 A 
BRANCH  20  23
ATOM     23  N   UNL     1       0.109  -9.188  -4.082  0.00  0.00    +0.056 N 
ATOM     24  O   UNL     1      -0.631  -9.275  -5.034  0.00  0.00    -0.126 OA
ATOM     25  O   UNL     1       0.858 -10.098  -3.813  0.00  0.00    -0.126 OA
ENDBRANCH  20  23
ENDBRANCH  16  17
ENDBRANCH   4  15
TORSDOF 4
