REMARK  Name = ZINC22617138
REMARK  9 active torsions:
REMARK  status: ('A' for Active; 'I' for Inactive)
REMARK    1  A    between atoms: N_10  and  C_11
REMARK    2  A    between atoms: C_11  and  C_12
REMARK    3  A    between atoms: N_14  and  N_15
REMARK    4  A    between atoms: C_16  and  C_18
REMARK    5  A    between atoms: C_19  and  C_20
REMARK    6  A    between atoms: C_23  and  S_26
REMARK    7  A    between atoms: S_26  and  N_29
REMARK    8  A    between atoms: N_29  and  C_30
REMARK    9  A    between atoms: C_30  and  C_31
REMARK                            x       y       z     vdW  Elec       q    Type
REMARK                         _______ _______ _______ _____ _____    ______ ____
ROOT
ATOM      1  N   UNL     1       1.155   1.918   0.217  0.00  0.00    -0.231 N 
ATOM      2  C   UNL     1      -0.007   1.236   0.234  0.00  0.00    +0.253 C 
ATOM      3  O   UNL     1      -0.001   0.022   0.150  0.00  0.00    -0.269 OA
ATOM      4  H   UNL     1       1.150   3.016   0.293  0.00  0.00    +0.173 HD
ENDROOT
BRANCH   1   7
ATOM      5  C   UNL     1       3.532   1.913   0.086  0.00  0.00    +0.246 C 
ATOM      6  O   UNL     1       3.526   3.123   0.169  0.00  0.00    -0.273 OA
ATOM      7  N   UNL     1       2.370   1.230   0.103  0.00  0.00    -0.233 N 
ATOM      8  H   UNL     1       2.376   0.133   0.026  0.00  0.00    +0.173 HD
BRANCH   5   9
ATOM      9  C   UNL     1       4.839   1.173  -0.038  0.00  0.00    +0.202 C 
BRANCH   9  19
ATOM     10  C   UNL     1       5.258   4.603  -3.456  0.00  0.00    +0.000 A 
ATOM     11  C   UNL     1       4.863   3.277  -3.470  0.00  0.00    +0.002 A 
ATOM     12  C   UNL     1       5.095   2.479  -2.371  0.00  0.00    +0.023 A 
ATOM     13  C   UNL     1       5.727   2.999  -1.240  0.00  0.00    +0.033 A 
ATOM     14  C   UNL     1       6.115   4.327  -1.230  0.00  0.00    -0.026 A 
ATOM     15  C   UNL     1       5.881   5.123  -2.340  0.00  0.00    +0.005 A 
ATOM     16  C   UNL     1       6.795   4.952  -0.037  0.00  0.00    +0.038 C 
ATOM     17  C   UNL     1       7.302   3.854   0.900  0.00  0.00    +0.024 C 
ATOM     18  C   UNL     1       6.167   2.842   1.100  0.00  0.00    +0.106 C 
ATOM     19  N   UNL     1       5.939   2.138  -0.164  0.00  0.00    -0.321 N 
ENDBRANCH   9  19
ENDBRANCH   5   9
ENDBRANCH   1   7
BRANCH   2  20
ATOM     20  C   UNL     1      -1.277   1.956   0.348  0.00  0.00    +0.069 C 
ATOM     21  C   UNL     1      -2.439   1.273   0.360  0.00  0.00    +0.013 C 
BRANCH  21  22
ATOM     22  C   UNL     1      -3.716   1.997   0.474  0.00  0.00    -0.025 A 
ATOM     23  C   UNL     1      -3.727   3.391   0.577  0.00  0.00    +0.010 A 
ATOM     24  C   UNL     1      -4.928   4.062   0.678  0.00  0.00    +0.029 A 
ATOM     25  C   UNL     1      -6.119   3.358   0.689  0.00  0.00    +0.105 A 
ATOM     26  C   UNL     1      -6.117   1.977   0.594  0.00  0.00    +0.029 A 
ATOM     27  C   UNL     1      -4.925   1.292   0.486  0.00  0.00    +0.010 A 
BRANCH  25  28
ATOM     28  S   UNL     1      -7.648   4.224   0.826  0.00  0.00    +0.059 S 
ATOM     29  O   UNL     1      -7.411   5.543   0.352  0.00  0.00    -0.153 OA
ATOM     30  O   UNL     1      -8.644   3.380   0.265  0.00  0.00    -0.153 OA
BRANCH  28  31
ATOM     31  N   UNL     1      -7.993   4.356   2.440  0.00  0.00    -0.183 NA
ATOM     32  H   UNL     1      -8.774   3.716   2.877  0.00  0.00    +0.148 HD
BRANCH  31  33
ATOM     33  C   UNL     1      -7.124   5.150   3.313  0.00  0.00    +0.180 C 
BRANCH  33  34
ATOM     34  C   UNL     1      -7.831   5.417   4.617  0.00  0.00    +0.120 A 
ATOM     35  C   UNL     1      -7.779   4.640   5.713  0.00  0.00    +0.046 A 
ATOM     36  C   UNL     1      -8.583   5.263   6.695  0.00  0.00    +0.041 A 
ATOM     37  C   UNL     1      -9.078   6.383   6.140  0.00  0.00    +0.195 A 
ATOM     38  O   UNL     1      -8.614   6.475   4.883  0.00  0.00    -0.466 OA
ENDBRANCH  33  34
ENDBRANCH  31  33
ENDBRANCH  28  31
ENDBRANCH  25  28
ENDBRANCH  21  22
ENDBRANCH   2  20
TORSDOF 9
