REMARK  Name = ZINC18119464
REMARK  10 active torsions:
REMARK  status: ('A' for Active; 'I' for Inactive)
REMARK    1  A    between atoms: C_1  and  C_2
REMARK    2  A    between atoms: C_5  and  N_9
REMARK    3  A    between atoms: C_6  and  C_8
REMARK    4  A    between atoms: N_9  and  C_10
REMARK    5  A    between atoms: C_10  and  N_12
REMARK    6  A    between atoms: N_14  and  C_15
REMARK    7  A    between atoms: C_19  and  O_21
REMARK    8  A    between atoms: O_21  and  C_22
REMARK    9  A    between atoms: C_26  and  C_31
REMARK   10  A    between atoms: C_28  and  C_30
REMARK                            x       y       z     vdW  Elec       q    Type
REMARK                         _______ _______ _______ _____ _____    ______ ____
ROOT
ATOM      1  N   UNL     1      -1.813  -8.537  -2.650  0.00  0.00    -0.267 N 
ATOM      2  C   UNL     1      -0.604  -7.926  -2.903  0.00  0.00    +0.202 C 
ATOM      3  N   UNL     1       0.380  -8.039  -2.044  0.00  0.00    -0.216 NA
ATOM      4  N   UNL     1      -0.430  -7.197  -4.056  0.00  0.00    -0.296 N 
ATOM      5  C   UNL     1       0.794  -7.215  -4.710  0.00  0.00    +0.231 A 
ATOM      6  N   UNL     1       1.782  -7.944  -4.213  0.00  0.00    -0.217 NA
ATOM      7  C   UNL     1       2.960  -7.984  -4.812  0.00  0.00    +0.044 A 
ATOM      8  C   UNL     1       3.154  -7.251  -5.972  0.00  0.00    +0.046 A 
ATOM      9  C   UNL     1       2.099  -6.499  -6.465  0.00  0.00    +0.044 A 
ATOM     10  N   UNL     1       0.945  -6.507  -5.819  0.00  0.00    -0.217 NA
ATOM     11  C   UNL     1       2.264  -5.686  -7.723  0.00  0.00    +0.066 C 
ATOM     12  C   UNL     1       4.079  -8.815  -4.239  0.00  0.00    +0.066 C 
ATOM     13  H   UNL     1      -1.162  -6.670  -4.412  0.00  0.00    +0.172 HD
ATOM     14  H   UNL     1      -1.990  -8.918  -1.776  0.00  0.00    +0.157 HD
ENDROOT
BRANCH   3  15
ATOM     15  C   UNL     1       0.145  -8.559  -0.798  0.00  0.00    +0.071 A 
ATOM     16  C   UNL     1       0.180  -7.731   0.325  0.00  0.00    +0.028 A 
ATOM     17  C   UNL     1      -0.056  -8.258   1.578  0.00  0.00    +0.006 A 
ATOM     18  C   UNL     1      -0.328  -9.606   1.725  0.00  0.00    +0.046 A 
ATOM     19  C   UNL     1      -0.364 -10.438   0.614  0.00  0.00    +0.122 A 
ATOM     20  C   UNL     1      -0.135  -9.918  -0.649  0.00  0.00    +0.073 A 
BRANCH  19  21
ATOM     21  O   UNL     1      -0.632 -11.762   0.765  0.00  0.00    -0.495 OA
ATOM     22  C   UNL     1      -0.865 -12.229   2.095  0.00  0.00    +0.277 C 
ENDBRANCH  19  21
ENDBRANCH   3  15
BRANCH   1  23
ATOM     23  C   UNL     1      -2.749  -8.604  -3.617  0.00  0.00    +0.141 C 
ATOM     24  S   UNL     1      -2.376  -8.089  -5.207  0.00  0.00    -0.018 S 
BRANCH  23  25
ATOM     25  N   UNL     1      -3.979  -9.075  -3.333  0.00  0.00    -0.296 N 
ATOM     26  H   UNL     1      -4.216  -9.291  -2.417  0.00  0.00    +0.154 HD
BRANCH  25  31
ATOM     27  C   UNL     1      -7.769  -9.803  -7.491  0.00  0.00    +0.044 C 
ATOM     28  C   UNL     1      -6.762  -9.610  -6.386  0.00  0.00    -0.050 A 
ATOM     29  C   UNL     1      -6.342  -8.335  -6.051  0.00  0.00    +0.005 A 
ATOM     30  C   UNL     1      -5.420  -8.155  -5.039  0.00  0.00    +0.024 A 
ATOM     31  C   UNL     1      -4.914  -9.255  -4.358  0.00  0.00    +0.036 A 
ATOM     32  C   UNL     1      -5.337 -10.533  -4.698  0.00  0.00    -0.029 A 
ATOM     33  C   UNL     1      -6.264 -10.706  -5.707  0.00  0.00    +0.008 A 
ATOM     34  C   UNL     1      -4.790 -11.729  -3.962  0.00  0.00    +0.045 C 
ENDBRANCH  25  31
ENDBRANCH  23  25
ENDBRANCH   1  23
TORSDOF 5
