REMARK  Name = ZINC64450339
REMARK  3 active torsions:
REMARK  status: ('A' for Active; 'I' for Inactive)
REMARK    1  A    between atoms: C_1  and  C_2
REMARK    2  A    between atoms: C_4  and  C_23
REMARK    3  A    between atoms: N_12  and  C_14
REMARK                            x       y       z     vdW  Elec       q    Type
REMARK                         _______ _______ _______ _____ _____    ______ ____
ROOT
ATOM      1  C   UNL     1      -0.363   1.403  -0.058  0.00  0.00    +0.062 C 
ATOM      2  C   UNL     1      -0.195  -0.095  -0.023  0.00  0.00    +0.019 C 
ATOM      3  C   UNL     1      -1.181  -0.943   0.046  0.00  0.00    -0.008 C 
ATOM      4  C   UNL     1      -2.672  -0.742  -0.059  0.00  0.00    +0.058 C 
ATOM      5  C   UNL     1      -3.125  -1.533  -1.295  0.00  0.00    +0.108 C 
ATOM      6  C   UNL     1      -2.378  -2.820  -1.437  0.00  0.00    +0.215 C 
ATOM      7  O   UNL     1      -2.896  -3.665  -2.136  0.00  0.00    -0.276 OA
ATOM      8  N   UNL     1      -1.209  -3.146  -0.886  0.00  0.00    -0.295 N 
ATOM      9  C   UNL     1      -0.574  -2.333   0.143  0.00  0.00    +0.194 C 
ATOM     10  N   UNL     1       0.857  -2.106  -0.088  0.00  0.00    -0.164 NA
ATOM     11  N   UNL     1       1.028  -0.746  -0.066  0.00  0.00    -0.277 N 
ATOM     12  H   UNL     1      -0.764  -3.957  -1.181  0.00  0.00    +0.151 HD
ATOM     13  H   UNL     1       1.889  -0.300  -0.077  0.00  0.00    +0.166 HD
ENDROOT
BRANCH  10  14
ATOM     14  C   UNL     1       1.276  -2.663  -1.381  0.00  0.00    +0.270 C 
ATOM     15  N   UNL     1       2.724  -2.494  -1.557  0.00  0.00    -0.350 N 
ATOM     16  C   UNL     1       2.906  -1.758  -2.615  0.00  0.00    +0.061 A 
ATOM     17  C   UNL     1       4.112  -1.254  -3.287  0.00  0.00    +0.027 A 
ATOM     18  C   UNL     1       3.988  -0.494  -4.394  0.00  0.00    +0.002 A 
ATOM     19  C   UNL     1       2.740  -0.155  -4.945  0.00  0.00    +0.002 A 
ATOM     20  C   UNL     1       1.573  -0.564  -4.407  0.00  0.00    +0.027 A 
ATOM     21  C   UNL     1       1.584  -1.399  -3.198  0.00  0.00    +0.061 A 
ATOM     22  N   UNL     1       0.637  -1.927  -2.478  0.00  0.00    -0.350 N 
ATOM     23  H   UNL     1       3.418  -2.863  -0.988  0.00  0.00    +0.163 HD
ATOM     24  H   UNL     1      -0.316  -1.849  -2.638  0.00  0.00    +0.163 HD
ENDBRANCH  10  14
BRANCH   4  25
ATOM     25  C   UNL     1      -3.355  -1.272   1.176  0.00  0.00    -0.034 A 
ATOM     26  C   UNL     1      -3.225  -2.605   1.519  0.00  0.00    +0.042 A 
ATOM     27  C   UNL     1      -3.851  -3.093   2.653  0.00  0.00    +0.126 A 
ATOM     28  C   UNL     1      -4.608  -2.246   3.444  0.00  0.00    +0.076 A 
ATOM     29  C   UNL     1      -4.737  -0.911   3.101  0.00  0.00    +0.126 A 
ATOM     30  C   UNL     1      -4.105  -0.424   1.969  0.00  0.00    +0.042 A 
ATOM     31  F   UNL     1      -5.474  -0.083   3.872  0.00  0.00    -0.205 F 
ATOM     32  F   UNL     1      -3.725  -4.396   2.987  0.00  0.00    -0.205 F 
ENDBRANCH   4  25
TORSDOF 2
