REMARK  Name = ZINC04785267
REMARK  10 active torsions:
REMARK  status: ('A' for Active; 'I' for Inactive)
REMARK    1  A    between atoms: C_1  and  C_2
REMARK    2  A    between atoms: C_2  and  C_3
REMARK    3  A    between atoms: C_2  and  C_4
REMARK    4  A    between atoms: C_2  and  C_5
REMARK    5  A    between atoms: C_14  and  O_29
REMARK    6  A    between atoms: C_16  and  C_19
REMARK    7  A    between atoms: C_21  and  O_27
REMARK    8  A    between atoms: C_24  and  O_25
REMARK    9  A    between atoms: O_25  and  C_26
REMARK   10  A    between atoms: O_27  and  C_28
REMARK                            x       y       z     vdW  Elec       q    Type
REMARK                         _______ _______ _______ _____ _____    ______ ____
ROOT
ATOM      1  C   UNL     1       0.718  -0.497  -1.257  0.00  0.00    -0.000 C 
ATOM      2  C   UNL     1       0.746  -2.029  -1.264  0.00  0.00    +0.009 C 
ATOM      3  C   UNL     1       1.234  -2.534  -2.624  0.00  0.00    +0.037 C 
ATOM      4  C   UNL     1       2.549  -1.843  -2.959  0.00  0.00    -0.023 A 
ATOM      5  C   UNL     1       2.921  -0.706  -2.328  0.00  0.00    -0.004 A 
ATOM      6  S   UNL     1       4.490  -0.288  -3.040  0.00  0.00    -0.078 S 
ATOM      7  C   UNL     1       4.646  -1.541  -4.114  0.00  0.00    +0.080 A 
ATOM      8  C   UNL     1       3.495  -2.321  -3.950  0.00  0.00    +0.068 A 
ATOM      9  C   UNL     1       3.369  -3.541  -4.788  0.00  0.00    +0.220 C 
ATOM     10  N   UNL     1       4.197  -3.678  -5.787  0.00  0.00    -0.223 NA
ATOM     11  C   UNL     1       5.194  -2.688  -6.176  0.00  0.00    +0.227 C 
ATOM     12  N   UNL     1       5.622  -1.868  -5.028  0.00  0.00    -0.313 N 
ATOM     13  C   UNL     1       2.161   0.028  -1.267  0.00  0.00    +0.046 C 
ATOM     14  H   UNL     1       6.541  -1.575  -4.923  0.00  0.00    +0.149 HD
ENDROOT
BRANCH  11  15
ATOM     15  C   UNL     1       4.605  -1.785  -7.230  0.00  0.00    +0.040 A 
ATOM     16  C   UNL     1       4.952  -0.449  -7.267  0.00  0.00    +0.056 A 
ATOM     17  C   UNL     1       4.410   0.382  -8.237  0.00  0.00    +0.121 A 
ATOM     18  C   UNL     1       3.521  -0.130  -9.171  0.00  0.00    +0.049 A 
ATOM     19  C   UNL     1       3.175  -1.467  -9.134  0.00  0.00    +0.049 A 
ATOM     20  C   UNL     1       3.720  -2.298  -8.167  0.00  0.00    +0.127 A 
BRANCH  20  21
ATOM     21  O   UNL     1       3.384  -3.615  -8.134  0.00  0.00    -0.495 OA
ATOM     22  C   UNL     1       2.467  -4.076  -9.129  0.00  0.00    +0.277 C 
ENDBRANCH  20  21
BRANCH  17  23
ATOM     23  O   UNL     1       4.751   1.698  -8.273  0.00  0.00    -0.495 OA
ATOM     24  C   UNL     1       4.156   2.494  -9.299  0.00  0.00    +0.277 C 
ENDBRANCH  17  23
ENDBRANCH  11  15
BRANCH   1  26
ATOM     25  C   UNL     1      -0.019   1.526   0.010  0.00  0.00    +0.011 C 
ATOM     26  C   UNL     1       0.002  -0.004   0.002  0.00  0.00    -0.035 C 
ATOM     27  C   UNL     1       0.742  -0.511   1.242  0.00  0.00    +0.011 C 
ATOM     28  C   UNL     1      -1.433  -0.534   0.013  0.00  0.00    +0.011 C 
ENDBRANCH   1  26
BRANCH   9  29
ATOM     29  O   UNL     1       2.429  -4.478  -4.524  0.00  0.00    -0.492 OA
ATOM     30  H   UNL     1       2.439  -5.228  -5.134  0.00  0.00    +0.294 HD
ENDBRANCH   9  29
TORSDOF 5
