REMARK  Name = ZINC61770026
REMARK  7 active torsions:
REMARK  status: ('A' for Active; 'I' for Inactive)
REMARK    1  A    between atoms: C_1  and  C_2
REMARK    2  A    between atoms: C_2  and  C_3
REMARK    3  A    between atoms: C_2  and  C_4
REMARK    4  A    between atoms: C_2  and  N_5
REMARK    5  A    between atoms: C_9  and  S_12
REMARK    6  A    between atoms: S_12  and  C_13
REMARK    7  A    between atoms: C_16  and  N_19
REMARK                            x       y       z     vdW  Elec       q    Type
REMARK                         _______ _______ _______ _____ _____    ______ ____
ROOT
ATOM      1  N   UNL     1       0.687  -0.474  -1.205  0.00  0.00    -0.306 N 
ATOM      2  C   UNL     1       0.032  -1.256  -2.111  0.00  0.00    +0.109 A 
ATOM      3  C   UNL     1       0.655  -1.695  -3.226  0.00  0.00    +0.130 A 
ATOM      4  N   UNL     1       1.925  -1.387  -3.486  0.00  0.00    -0.242 NA
ATOM      5  C   UNL     1       2.619  -0.637  -2.656  0.00  0.00    +0.166 A 
ATOM      6  C   UNL     1       1.975  -0.136  -1.437  0.00  0.00    +0.284 A 
ATOM      7  O   UNL     1       2.587   0.565  -0.650  0.00  0.00    -0.265 OA
ENDROOT
BRANCH   1   9
ATOM      8  C   UNL     1      -0.017   1.527   0.012  0.00  0.00    +0.034 C 
ATOM      9  C   UNL     1       0.001  -0.003   0.001  0.00  0.00    +0.040 C 
ATOM     10  C   UNL     1       0.740  -0.513   1.240  0.00  0.00    +0.034 C 
ATOM     11  C   UNL     1      -1.435  -0.531   0.010  0.00  0.00    +0.034 C 
ENDBRANCH   1   9
BRANCH   5  12
ATOM     12  S   UNL     1       4.298  -0.234  -3.009  0.00  0.00    -0.065 S 
BRANCH  12  13
ATOM     13  C   UNL     1       4.662  -1.158  -4.465  0.00  0.00    +0.014 A 
ATOM     14  C   UNL     1       4.544  -0.561  -5.713  0.00  0.00    +0.017 A 
ATOM     15  C   UNL     1       4.829  -1.285  -6.854  0.00  0.00    +0.024 A 
ATOM     16  C   UNL     1       5.233  -2.610  -6.753  0.00  0.00    +0.025 A 
ATOM     17  C   UNL     1       5.351  -3.207  -5.504  0.00  0.00    +0.024 A 
ATOM     18  C   UNL     1       5.072  -2.481  -4.363  0.00  0.00    +0.017 A 
BRANCH  16  19
ATOM     19  N   UNL     1       5.521  -3.343  -7.909  0.00  0.00    -0.358 N 
ATOM     20  H   UNL     1       5.439  -2.927  -8.781  0.00  0.00    +0.142 HD
ATOM     21  H   UNL     1       5.804  -4.269  -7.838  0.00  0.00    +0.142 HD
ENDBRANCH  16  19
ENDBRANCH  12  13
ENDBRANCH   5  12
TORSDOF 4
