REMARK  Name = ZINC32986964
REMARK  5 active torsions:
REMARK  status: ('A' for Active; 'I' for Inactive)
REMARK    1  A    between atoms: C_1  and  C_2
REMARK    2  A    between atoms: C_6  and  C_8
REMARK    3  A    between atoms: N_20  and  C_21
REMARK    4  A    between atoms: C_21  and  C_22
REMARK    5  A    between atoms: C_22  and  C_23
REMARK                            x       y       z     vdW  Elec       q    Type
REMARK                         _______ _______ _______ _____ _____    ______ ____
ROOT
ATOM      1  C   UNL     1      -3.125   4.542   1.381  0.00  0.00    +0.194 C 
ATOM      2  N   UNL     1      -3.818   5.056   2.553  0.00  0.00    -0.322 N 
ATOM      3  C   UNL     1      -5.039   4.558   3.001  0.00  0.00    +0.055 A 
ATOM      4  C   UNL     1      -5.826   5.356   3.830  0.00  0.00    +0.025 A 
ATOM      5  C   UNL     1      -7.024   4.879   4.319  0.00  0.00    +0.002 A 
ATOM      6  C   UNL     1      -7.454   3.607   3.990  0.00  0.00    +0.002 A 
ATOM      7  C   UNL     1      -6.682   2.811   3.163  0.00  0.00    +0.030 A 
ATOM      8  C   UNL     1      -5.486   3.287   2.669  0.00  0.00    +0.126 A 
ATOM      9  S   UNL     1      -4.509   2.272   1.601  0.00  0.00    +0.064 S 
ATOM     10  O   UNL     1      -5.117   2.313   0.318  0.00  0.00    -0.153 OA
ATOM     11  O   UNL     1      -4.259   1.057   2.295  0.00  0.00    -0.153 OA
ATOM     12  N   UNL     1      -3.049   3.070   1.476  0.00  0.00    -0.152 NA
ATOM     13  H   UNL     1      -3.379   5.880   3.135  0.00  0.00    +0.148 HD
ENDROOT
BRANCH   1  19
ATOM     14  C   UNL     1      -6.110   7.737  -1.053  0.00  0.00    +0.044 C 
ATOM     15  C   UNL     1      -5.313   6.458  -1.026  0.00  0.00    -0.050 A 
ATOM     16  C   UNL     1      -5.278   5.641  -2.140  0.00  0.00    +0.003 A 
ATOM     17  C   UNL     1      -4.547   4.469  -2.115  0.00  0.00    +0.001 A 
ATOM     18  C   UNL     1      -3.850   4.113  -0.976  0.00  0.00    +0.007 A 
ATOM     19  C   UNL     1      -3.884   4.930   0.139  0.00  0.00    -0.011 A 
ATOM     20  C   UNL     1      -4.620   6.100   0.115  0.00  0.00    +0.010 A 
ENDBRANCH   1  19
BRANCH  12  21
ATOM     21  C   UNL     1      -1.770   2.355   1.466  0.00  0.00    +0.116 C 
BRANCH  21  22
ATOM     22  C   UNL     1      -1.332   2.114   0.020  0.00  0.00    +0.052 C 
BRANCH  22  23
ATOM     23  C   UNL     1      -0.017   1.378   0.010  0.00  0.00    -0.046 A 
ATOM     24  C   UNL     1       1.171   2.086   0.002  0.00  0.00    +0.005 A 
ATOM     25  C   UNL     1       2.377   1.412  -0.013  0.00  0.00    +0.020 A 
ATOM     26  C   UNL     1       2.397   0.029  -0.021  0.00  0.00    +0.041 A 
ATOM     27  C   UNL     1       1.208  -0.679  -0.013  0.00  0.00    +0.020 A 
ATOM     28  C   UNL     1       0.002  -0.004   0.002  0.00  0.00    +0.005 A 
ATOM     29 CL   UNL     1       3.912  -0.818  -0.040  0.00  0.00    -0.084 Cl
ENDBRANCH  22  23
ENDBRANCH  21  22
ENDBRANCH  12  21
TORSDOF 4
