REMARK  Name = ZINC05035409
REMARK  4 active torsions:
REMARK  status: ('A' for Active; 'I' for Inactive)
REMARK    1  A    between atoms: C_7  and  N_20
REMARK    2  A    between atoms: C_8  and  C_10
REMARK    3  A    between atoms: N_12  and  C_13
REMARK    4  A    between atoms: C_21  and  C_23
REMARK                            x       y       z     vdW  Elec       q    Type
REMARK                         _______ _______ _______ _____ _____    ______ ____
ROOT
ATOM      1  C   UNL     1       0.138   1.359   0.834  0.00  0.00    +0.001 A 
ATOM      2  C   UNL     1       1.320   2.068   0.675  0.00  0.00    +0.004 A 
ATOM      3  C   UNL     1       2.481   1.427   0.299  0.00  0.00    +0.047 A 
ATOM      4  C   UNL     1       2.472   0.055   0.076  0.00  0.00    +0.138 A 
ATOM      5  C   UNL     1       1.272  -0.658   0.239  0.00  0.00    +0.042 A 
ATOM      6  C   UNL     1       0.107   0.010   0.620  0.00  0.00    +0.013 A 
ATOM      7  C   UNL     1       1.593  -2.057  -0.066  0.00  0.00    +0.092 A 
ATOM      8  C   UNL     1       2.925  -2.076  -0.379  0.00  0.00    +0.212 A 
ATOM      9  O   UNL     1       3.427  -0.824  -0.291  0.00  0.00    -0.448 OA
ENDROOT
BRANCH   8  10
ATOM     10  C   UNL     1       3.687  -3.266  -0.751  0.00  0.00    +0.286 C 
ATOM     11  O   UNL     1       3.119  -4.334  -0.890  0.00  0.00    -0.266 OA
ATOM     12  N   UNL     1       5.019  -3.181  -0.940  0.00  0.00    -0.277 N 
ATOM     13  H   UNL     1       5.483  -2.349  -0.755  0.00  0.00    +0.155 HD
BRANCH  12  14
ATOM     14  C   UNL     1       5.732  -4.292  -1.403  0.00  0.00    +0.069 A 
ATOM     15  C   UNL     1       5.084  -5.280  -2.132  0.00  0.00    +0.026 A 
ATOM     16  C   UNL     1       5.791  -6.376  -2.588  0.00  0.00    +0.002 A 
ATOM     17  C   UNL     1       7.143  -6.491  -2.319  0.00  0.00    +0.003 A 
ATOM     18  C   UNL     1       7.792  -5.510  -1.594  0.00  0.00    +0.040 A 
ATOM     19  C   UNL     1       7.093  -4.407  -1.139  0.00  0.00    +0.144 A 
ATOM     20  F   UNL     1       7.729  -3.445  -0.435  0.00  0.00    -0.204 F 
ENDBRANCH  12  14
ENDBRANCH   8  10
BRANCH   7  21
ATOM     21  N   UNL     1       0.724  -3.141  -0.040  0.00  0.00    -0.278 N 
ATOM     22  C   UNL     1      -0.596  -2.951  -0.236  0.00  0.00    +0.254 C 
ATOM     23  O   UNL     1      -1.017  -1.842  -0.503  0.00  0.00    -0.270 OA
ATOM     24  H   UNL     1       1.067  -4.034   0.119  0.00  0.00    +0.155 HD
BRANCH  22  25
ATOM     25  C   UNL     1      -1.529  -4.088  -0.128  0.00  0.00    +0.107 A 
ATOM     26  C   UNL     1      -2.121  -4.397   1.102  0.00  0.00    +0.138 A 
ATOM     27  C   UNL     1      -2.994  -5.465   1.194  0.00  0.00    +0.039 A 
ATOM     28  C   UNL     1      -3.283  -6.226   0.076  0.00  0.00    +0.006 A 
ATOM     29  C   UNL     1      -2.703  -5.927  -1.143  0.00  0.00    +0.039 A 
ATOM     30  C   UNL     1      -1.832  -4.859  -1.255  0.00  0.00    +0.138 A 
ATOM     31  F   UNL     1      -1.270  -4.566  -2.448  0.00  0.00    -0.205 F 
ATOM     32  F   UNL     1      -1.839  -3.656   2.195  0.00  0.00    -0.205 F 
ENDBRANCH  22  25
ENDBRANCH   7  21
TORSDOF 4
