REMARK  Name = ZINC21255841
REMARK  2 active torsions:
REMARK  status: ('A' for Active; 'I' for Inactive)
REMARK    1  A    between atoms: C_4  and  C_7
REMARK    2  A    between atoms: C_12  and  C_18
REMARK                            x       y       z     vdW  Elec       q    Type
REMARK                         _______ _______ _______ _____ _____    ______ ____
ROOT
ATOM      1  C   UNL     1      -2.553   3.869   0.045  0.00  0.00    +0.032 C 
ATOM      2  C   UNL     1      -3.365   3.497  -1.198  0.00  0.00    +0.059 C 
ATOM      3  C   UNL     1      -4.701   4.195  -1.157  0.00  0.00    +0.018 C 
ATOM      4  C   UNL     1      -5.299   4.476   0.021  0.00  0.00    +0.020 C 
ATOM      5  C   UNL     1      -6.641   5.170   0.037  0.00  0.00    +0.063 C 
ATOM      6  C   UNL     1      -7.468   4.705  -1.163  0.00  0.00    +0.109 C 
ATOM      7  C   UNL     1      -6.621   4.783  -2.407  0.00  0.00    +0.218 C 
ATOM      8  O   UNL     1      -7.132   5.066  -3.469  0.00  0.00    -0.275 OA
ATOM      9  N   UNL     1      -5.301   4.541  -2.341  0.00  0.00    -0.289 N 
ATOM     10  C   UNL     1      -4.698   4.139   1.245  0.00  0.00    +0.162 C 
ATOM     11  O   UNL     1      -5.273   4.395   2.284  0.00  0.00    -0.292 OA
ATOM     12  C   UNL     1      -3.352   3.466   1.289  0.00  0.00    +0.088 C 
ATOM     13  H   UNL     1      -4.699   4.624  -3.258  0.00  0.00    +0.155 HD
ENDROOT
BRANCH   5  14
ATOM     14  C   UNL     1      -6.436   6.661  -0.042  0.00  0.00    -0.039 A 
ATOM     15  C   UNL     1      -5.782   7.213  -1.128  0.00  0.00    +0.005 A 
ATOM     16  C   UNL     1      -5.599   8.580  -1.203  0.00  0.00    +0.020 A 
ATOM     17  C   UNL     1      -6.060   9.397  -0.186  0.00  0.00    +0.041 A 
ATOM     18  C   UNL     1      -6.709   8.844   0.904  0.00  0.00    +0.020 A 
ATOM     19  C   UNL     1      -6.897   7.476   0.975  0.00  0.00    +0.005 A 
ATOM     20 CL   UNL     1      -5.825  11.114  -0.277  0.00  0.00    -0.084 Cl
ENDBRANCH   5  14
BRANCH   1  24
ATOM     21  C   UNL     1       1.175   1.783   0.000  0.00  0.00    +0.000 A 
ATOM     22  C   UNL     1      -0.013   1.076   0.008  0.00  0.00    +0.000 A 
ATOM     23  C   UNL     1      -1.219   1.751   0.017  0.00  0.00    +0.004 A 
ATOM     24  C   UNL     1      -1.238   3.133   0.029  0.00  0.00    -0.044 A 
ATOM     25  C   UNL     1      -0.050   3.840   0.022  0.00  0.00    +0.004 A 
ATOM     26  C   UNL     1       1.156   3.165   0.008  0.00  0.00    +0.000 A 
ENDBRANCH   1  24
TORSDOF 2
