REMARK  Name = ZINC21602453
REMARK  9 active torsions:
REMARK  status: ('A' for Active; 'I' for Inactive)
REMARK    1  A    between atoms: C_1  and  C_2
REMARK    2  A    between atoms: C_2  and  C_4
REMARK    3  A    between atoms: C_2  and  O_16
REMARK    4  A    between atoms: N_6  and  C_7
REMARK    5  A    between atoms: C_10  and  C_14
REMARK    6  A    between atoms: O_16  and  C_17
REMARK    7  A    between atoms: C_17  and  C_19
REMARK    8  A    between atoms: C_23  and  N_24
REMARK    9  A    between atoms: C_25  and  C_27
REMARK                            x       y       z     vdW  Elec       q    Type
REMARK                         _______ _______ _______ _____ _____    ______ ____
ROOT
ATOM      1  O   UNL     1       2.967   0.232  -1.033  0.00  0.00    -0.449 OA
ENDROOT
BRANCH   1   3
ATOM      2  C   UNL     1       5.217  -0.691  -1.161  0.00  0.00    +0.062 C 
ATOM      3  C   UNL     1       4.375   0.583  -1.060  0.00  0.00    +0.259 C 
BRANCH   3   4
ATOM      4  C   UNL     1       4.651   1.463  -2.252  0.00  0.00    +0.258 C 
ATOM      5  O   UNL     1       3.749   1.765  -3.004  0.00  0.00    -0.271 OA
ATOM      6  N   UNL     1       5.900   1.915  -2.481  0.00  0.00    -0.282 N 
ATOM      7  H   UNL     1       6.700   1.714  -1.753  0.00  0.00    +0.155 HD
BRANCH   6   8
ATOM      8  C   UNL     1       6.178   2.638  -3.642  0.00  0.00    +0.035 A 
ATOM      9  C   UNL     1       5.506   2.339  -4.823  0.00  0.00    +0.024 A 
ATOM     10  C   UNL     1       5.773   3.053  -5.969  0.00  0.00    +0.022 A 
ATOM     11  C   UNL     1       6.730   4.072  -5.949  0.00  0.00    +0.070 A 
ATOM     12  C   UNL     1       7.408   4.366  -4.762  0.00  0.00    +0.060 A 
ATOM     13  C   UNL     1       7.131   3.650  -3.617  0.00  0.00    +0.044 A 
ATOM     14 CL   UNL     1       8.599   5.629  -4.731  0.00  0.00    -0.082 Cl
BRANCH  11  15
ATOM     15  C   UNL     1       7.015   4.812  -7.141  0.00  0.00    +0.101 C 
ATOM     16  N   UNL     1       7.242   5.399  -8.087  0.00  0.00    -0.191 NA
ENDBRANCH  11  15
ENDBRANCH   6   8
ENDBRANCH   3   4
ENDBRANCH   1   3
BRANCH   1  17
ATOM     17  C   UNL     1       2.413   0.015   0.177  0.00  0.00    +0.343 C 
ATOM     18  O   UNL     1       3.089   0.116   1.183  0.00  0.00    -0.245 OA
BRANCH  17  19
ATOM     19  C   UNL     1       0.997  -0.343   0.281  0.00  0.00    +0.091 A 
ATOM     20  C   UNL     1       0.566  -1.731   0.255  0.00  0.00    -0.021 A 
ATOM     21  C   UNL     1      -0.767  -1.922   0.359  0.00  0.00    -0.004 A 
ATOM     22  S   UNL     1      -1.448  -0.294   0.498  0.00  0.00    -0.077 S 
ATOM     23  C   UNL     1       0.015   0.630   0.408  0.00  0.00    +0.086 A 
ATOM     24  C   UNL     1      -1.495  -3.231   0.361  0.00  0.00    +0.043 C 
ATOM     25  C   UNL     1      -0.537  -4.318  -0.148  0.00  0.00    +0.005 C 
ATOM     26  C   UNL     1       0.800  -4.180   0.585  0.00  0.00    +0.005 C 
ATOM     27  C   UNL     1       1.520  -2.912   0.122  0.00  0.00    +0.037 C 
BRANCH  23  28
ATOM     28  N   UNL     1       0.168   2.007   0.457  0.00  0.00    -0.280 N 
ATOM     29  C   UNL     1      -0.914   2.802   0.579  0.00  0.00    +0.214 C 
ATOM     30  O   UNL     1      -2.021   2.312   0.646  0.00  0.00    -0.276 OA
ATOM     31  C   UNL     1      -0.747   4.298   0.632  0.00  0.00    +0.109 C 
ATOM     32  H   UNL     1       1.173   2.451   0.397  0.00  0.00    +0.155 HD
ENDBRANCH  23  28
ENDBRANCH  17  19
ENDBRANCH   1  17
TORSDOF 7
