REMARK  Name = ZINC21904083
REMARK  6 active torsions:
REMARK  status: ('A' for Active; 'I' for Inactive)
REMARK    1  A    between atoms: C_1  and  C_2
REMARK    2  A    between atoms: C_5  and  S_8
REMARK    3  A    between atoms: S_8  and  N_11
REMARK    4  A    between atoms: C_14  and  C_17
REMARK    5  A    between atoms: N_19  and  N_20
REMARK    6  A    between atoms: C_21  and  C_30
REMARK                            x       y       z     vdW  Elec       q    Type
REMARK                         _______ _______ _______ _____ _____    ______ ____
ROOT
ATOM      1  N   UNL     1      -1.428  -4.751   1.440  0.00  0.00    -0.177 NA
ATOM      2  C   UNL     1      -0.557  -4.248   2.511  0.00  0.00    +0.110 C 
ATOM      3  C   UNL     1      -0.613  -2.717   2.515  0.00  0.00    +0.030 C 
ATOM      4  C   UNL     1      -0.260  -2.195   1.120  0.00  0.00    +0.079 C 
ATOM      5  C   UNL     1      -1.282  -2.713   0.106  0.00  0.00    +0.030 C 
ATOM      6  C   UNL     1      -1.234  -4.244   0.075  0.00  0.00    +0.110 C 
ENDROOT
BRANCH   4   7
ATOM      7  C   UNL     1      -0.280  -0.688   1.129  0.00  0.00    +0.234 C 
ATOM      8  O   UNL     1      -0.550  -0.091   2.149  0.00  0.00    -0.274 OA
ATOM      9  N   UNL     1       0.002  -0.004   0.002  0.00  0.00    -0.218 N 
ATOM     10  H   UNL     1       0.247  -0.546  -0.923  0.00  0.00    +0.176 HD
BRANCH   9  11
ATOM     11  N   UNL     1      -0.017   1.397   0.010  0.00  0.00    -0.210 N 
ATOM     12  C   UNL     1       1.158   2.078   0.002  0.00  0.00    +0.129 A 
ATOM     13  N   UNL     1       1.182   3.384   0.009  0.00  0.00    -0.225 NA
ATOM     14  C   UNL     1       0.055   4.090   0.023  0.00  0.00    +0.115 A 
ATOM     15  C   UNL     1      -1.209   3.473   0.031  0.00  0.00    +0.074 A 
ATOM     16  C   UNL     1      -1.199   2.040   0.019  0.00  0.00    +0.279 A 
ATOM     17  O   UNL     1      -2.245   1.414   0.021  0.00  0.00    -0.265 OA
ATOM     18  C   UNL     1      -2.337   4.386   0.046  0.00  0.00    +0.023 A 
ATOM     19  C   UNL     1      -2.109   5.709   0.050  0.00  0.00    +0.048 A 
ATOM     20  S   UNL     1      -0.330   5.822   0.034  0.00  0.00    -0.077 S 
ATOM     21  C   UNL     1       2.456   1.314  -0.014  0.00  0.00    +0.088 C 
ENDBRANCH   9  11
ENDBRANCH   4   7
BRANCH   1  22
ATOM     22  S   UNL     1      -2.607  -5.867   1.765  0.00  0.00    +0.061 S 
ATOM     23  O   UNL     1      -2.872  -6.546   0.545  0.00  0.00    -0.153 OA
ATOM     24  O   UNL     1      -2.205  -6.550   2.945  0.00  0.00    -0.153 OA
BRANCH  22  29
ATOM     25  C   UNL     1      -7.620  -2.814   3.163  0.00  0.00    +0.044 C 
ATOM     26  C   UNL     1      -6.368  -3.577   2.814  0.00  0.00    -0.050 A 
ATOM     27  C   UNL     1      -6.114  -3.924   1.500  0.00  0.00    +0.005 A 
ATOM     28  C   UNL     1      -4.966  -4.624   1.180  0.00  0.00    +0.029 A 
ATOM     29  C   UNL     1      -4.071  -4.976   2.174  0.00  0.00    +0.105 A 
ATOM     30  C   UNL     1      -4.328  -4.633   3.488  0.00  0.00    +0.029 A 
ATOM     31  C   UNL     1      -5.474  -3.929   3.808  0.00  0.00    +0.005 A 
ENDBRANCH  22  29
ENDBRANCH   1  22
TORSDOF 4
