REMARK  Name = ZINC01251840
REMARK  6 active torsions:
REMARK  status: ('A' for Active; 'I' for Inactive)
REMARK    1  A    between atoms: C_4  and  C_7
REMARK    2  A    between atoms: C_7  and  C_9
REMARK    3  A    between atoms: C_11  and  C_23
REMARK    4  A    between atoms: C_17  and  C_18
REMARK    5  A    between atoms: C_17  and  O_22
REMARK    6  A    between atoms: C_26  and  C_28
REMARK                            x       y       z     vdW  Elec       q    Type
REMARK                         _______ _______ _______ _____ _____    ______ ____
ROOT
ATOM      1  C   UNL     1       3.767   1.858  -0.023  0.00  0.00    +0.147 C 
ATOM      2  C   UNL     1       4.233   2.096   1.417  0.00  0.00    +0.156 C 
ATOM      3  N   UNL     1       4.538   0.808   2.042  0.00  0.00    -0.289 N 
ATOM      4  C   UNL     1       4.961  -0.237   1.316  0.00  0.00    +0.302 C 
ATOM      5  O   UNL     1       5.212  -1.281   1.886  0.00  0.00    -0.253 OA
ATOM      6  N   UNL     1       5.119  -0.176  -0.015  0.00  0.00    -0.264 N 
ATOM      7  C   UNL     1       4.845   1.056  -0.758  0.00  0.00    +0.243 C 
ATOM      8  H   UNL     1       4.434   0.709   3.001  0.00  0.00    +0.151 HD
ATOM      9  H   UNL     1       5.419  -0.963  -0.495  0.00  0.00    +0.153 HD
ENDROOT
BRANCH   2  10
ATOM     10  C   UNL     1       3.140   2.785   2.193  0.00  0.00    +0.127 A 
ATOM     11  C   UNL     1       3.080   4.104   2.464  0.00  0.00    +0.047 A 
ATOM     12  C   UNL     1       1.901   4.319   3.206  0.00  0.00    +0.050 A 
ATOM     13  C   UNL     1       1.301   3.108   3.349  0.00  0.00    +0.135 A 
ATOM     14  O   UNL     1       2.060   2.188   2.724  0.00  0.00    -0.458 OA
BRANCH  13  15
ATOM     15  C   UNL     1       0.032   2.848   4.060  0.00  0.00    +0.019 A 
ATOM     16  C   UNL     1      -0.660   3.898   4.667  0.00  0.00    +0.013 A 
ATOM     17  C   UNL     1      -1.846   3.650   5.325  0.00  0.00    +0.022 A 
ATOM     18  C   UNL     1      -2.347   2.361   5.394  0.00  0.00    +0.059 A 
ATOM     19  C   UNL     1      -1.663   1.313   4.798  0.00  0.00    +0.060 A 
ATOM     20  C   UNL     1      -0.477   1.550   4.132  0.00  0.00    +0.033 A 
ATOM     21 CL   UNL     1      -2.298  -0.300   4.890  0.00  0.00    -0.082 Cl
ATOM     22 CL   UNL     1      -3.838   2.056   6.229  0.00  0.00    -0.082 Cl
ENDBRANCH  13  15
ENDBRANCH   2  10
BRANCH   7  23
ATOM     23  C   UNL     1       6.124   1.889  -0.857  0.00  0.00    +0.436 C 
ATOM     24  F   UNL     1       6.575   2.206   0.429  0.00  0.00    -0.166 F 
ATOM     25  F   UNL     1       7.109   1.156  -1.529  0.00  0.00    -0.166 F 
ATOM     26  F   UNL     1       5.859   3.068  -1.562  0.00  0.00    -0.166 F 
ENDBRANCH   7  23
BRANCH   1  27
ATOM     27  C   UNL     1       2.475   1.081  -0.015  0.00  0.00    +0.173 C 
ATOM     28  O   UNL     1       2.497  -0.132  -0.021  0.00  0.00    -0.292 OA
BRANCH  27  32
ATOM     29  C   UNL     1      -1.236   3.135   0.029  0.00  0.00    +0.000 A 
ATOM     30  C   UNL     1      -1.215   1.751   0.017  0.00  0.00    +0.001 A 
ATOM     31  C   UNL     1      -0.013   1.076   0.008  0.00  0.00    +0.011 A 
ATOM     32  C   UNL     1       1.188   1.793   0.000  0.00  0.00    +0.018 A 
ATOM     33  C   UNL     1       1.158   3.192   0.008  0.00  0.00    +0.011 A 
ATOM     34  C   UNL     1      -0.052   3.852   0.022  0.00  0.00    +0.001 A 
ENDBRANCH  27  32
ENDBRANCH   1  27
BRANCH   7  35
ATOM     35  O   UNL     1       4.386   0.729  -2.071  0.00  0.00    -0.364 OA
ATOM     36  H   UNL     1       5.020   0.220  -2.595  0.00  0.00    +0.212 HD
ENDBRANCH   7  35
TORSDOF 6
