REMARK  Name = ZINC20347705
REMARK  10 active torsions:
REMARK  status: ('A' for Active; 'I' for Inactive)
REMARK    1  A    between atoms: C_1  and  C_2
REMARK    2  A    between atoms: C_7  and  N_8
REMARK    3  A    between atoms: C_9  and  C_11
REMARK    4  A    between atoms: C_11  and  S_12
REMARK    5  A    between atoms: S_12  and  C_13
REMARK    6  A    between atoms: C_14  and  C_36
REMARK    7  A    between atoms: C_15  and  C_27
REMARK    8  A    between atoms: C_21  and  C_25
REMARK    9  A    between atoms: C_21  and  C_26
REMARK   10  A    between atoms: C_31  and  N_33
REMARK                            x       y       z     vdW  Elec       q    Type
REMARK                         _______ _______ _______ _____ _____    ______ ____
ROOT
ATOM      1  C   UNL     1      -2.033   6.317  -1.159  0.00  0.00    +0.080 C 
ATOM      2  C   UNL     1      -0.750   5.869  -1.202  0.00  0.00    +0.069 C 
ATOM      3  C   UNL     1      -0.055   5.392   0.039  0.00  0.00    +0.097 C 
ATOM      4  C   UNL     1      -0.762   5.876   1.280  0.00  0.00    +0.024 C 
ATOM      5  C   UNL     1      -2.035   6.323   1.224  0.00  0.00    +0.016 C 
ATOM      6  N   UNL     1      -2.714   6.347   0.036  0.00  0.00    -0.311 N 
ATOM      7  C   UNL     1      -2.744   6.811   2.463  0.00  0.00    +0.058 C 
ATOM      8  C   UNL     1      -2.213   6.062   3.687  0.00  0.00    -0.023 C 
ATOM      9  C   UNL     1      -0.701   6.294   3.780  0.00  0.00    +0.086 C 
ATOM     10  C   UNL     1      -0.058   5.848   2.496  0.00  0.00    +0.162 C 
ATOM     11  O   UNL     1       1.092   5.456   2.510  0.00  0.00    -0.292 OA
ATOM     12  C   UNL     1      -2.494   4.566   3.537  0.00  0.00    +0.011 C 
ATOM     13  C   UNL     1      -2.893   6.588   4.953  0.00  0.00    +0.011 C 
ATOM     14  H   UNL     1      -3.813   6.390   0.042  0.00  0.00    +0.152 HD
ENDROOT
BRANCH   3  15
ATOM     15  C   UNL     1      -0.029   3.885   0.043  0.00  0.00    -0.033 A 
ATOM     16  C   UNL     1      -1.214   3.173   0.057  0.00  0.00    +0.005 A 
ATOM     17  C   UNL     1      -1.190   1.791   0.054  0.00  0.00    +0.003 A 
ATOM     18  C   UNL     1       0.019   1.121   0.047  0.00  0.00    +0.033 A 
ATOM     19  C   UNL     1       1.204   1.832   0.033  0.00  0.00    +0.126 A 
ATOM     20  C   UNL     1       1.179   3.215   0.031  0.00  0.00    +0.037 A 
BRANCH  19  21
ATOM     21  N   UNL     1       2.498   1.114   0.020  0.00  0.00    +0.056 N 
ATOM     22  O   UNL     1       2.519  -0.103   0.021  0.00  0.00    -0.126 OA
ATOM     23  O   UNL     1       3.542   1.742   0.007  0.00  0.00    -0.126 OA
ENDBRANCH  19  21
ENDBRANCH   3  15
BRANCH   2  24
ATOM     24  C   UNL     1      -0.051   5.853  -2.451  0.00  0.00    +0.098 C 
ATOM     25  N   UNL     1       0.504   5.840  -3.442  0.00  0.00    -0.191 NA
ENDBRANCH   2  24
BRANCH   1  26
ATOM     26  S   UNL     1      -2.825   6.861  -2.637  0.00  0.00    -0.100 S 
BRANCH  26  27
ATOM     27  C   UNL     1      -4.446   7.320  -1.974  0.00  0.00    +0.171 C 
BRANCH  27  29
ATOM     28  N   UNL     1      -6.579   8.231  -2.833  0.00  0.00    -0.285 N 
ATOM     29  C   UNL     1      -5.319   7.829  -3.092  0.00  0.00    +0.227 C 
ATOM     30  O   UNL     1      -4.888   7.877  -4.225  0.00  0.00    -0.275 OA
ATOM     31  H   UNL     1      -7.001   8.103  -1.825  0.00  0.00    +0.155 HD
BRANCH  28  38
ATOM     32  C   UNL     1      -9.412   8.064  -2.626  0.00  0.00    +0.045 C 
ATOM     33  C   UNL     1      -8.737   8.753  -3.784  0.00  0.00    -0.029 A 
ATOM     34  C   UNL     1      -9.496   9.331  -4.783  0.00  0.00    +0.005 A 
ATOM     35  C   UNL     1      -8.877   9.958  -5.848  0.00  0.00    +0.000 A 
ATOM     36  C   UNL     1      -7.496  10.013  -5.915  0.00  0.00    +0.002 A 
ATOM     37  C   UNL     1      -6.732   9.441  -4.917  0.00  0.00    +0.023 A 
ATOM     38  C   UNL     1      -7.351   8.811  -3.846  0.00  0.00    +0.036 A 
ENDBRANCH  28  38
ENDBRANCH  27  29
ENDBRANCH  26  27
ENDBRANCH   1  26
TORSDOF 7
