REMARK  Name = ZINC21324775
REMARK  7 active torsions:
REMARK  status: ('A' for Active; 'I' for Inactive)
REMARK    1  A    between atoms: C_1  and  C_2
REMARK    2  A    between atoms: C_2  and  C_20
REMARK    3  A    between atoms: N_3  and  N_4
REMARK    4  A    between atoms: C_8  and  S_11
REMARK    5  A    between atoms: N_9  and  N_10
REMARK    6  A    between atoms: S_11  and  C_12
REMARK    7  A    between atoms: C_12  and  C_13
REMARK                            x       y       z     vdW  Elec       q    Type
REMARK                         _______ _______ _______ _____ _____    ______ ____
ROOT
ATOM      1  N   UNL     1       1.701  -1.706  -0.023  0.00  0.00    -0.204 N 
ATOM      2  C   UNL     1       1.254  -0.392  -0.012  0.00  0.00    +0.254 A 
ATOM      3  N   UNL     1       0.002  -0.004   0.002  0.00  0.00    -0.109 NA
ATOM      4  N   UNL     1      -0.017   1.397   0.010  0.00  0.00    -0.119 NA
ATOM      5  C   UNL     1       1.225   1.819   0.000  0.00  0.00    +0.210 A 
ATOM      6  N   UNL     1       2.043   0.725  -0.014  0.00  0.00    -0.211 N 
ATOM      7  H   UNL     1       2.780  -1.920  -0.034  0.00  0.00    +0.178 HD
ENDROOT
BRANCH   1  10
ATOM      8  C   UNL     1       2.675  -4.283  -0.045  0.00  0.00    +0.069 C 
ATOM      9  C   UNL     1       1.196  -3.990  -0.030  0.00  0.00    +0.081 C 
ATOM     10  N   UNL     1       0.778  -2.760  -0.020  0.00  0.00    -0.183 NA
BRANCH   9  11
ATOM     11  C   UNL     1       0.226  -5.098  -0.027  0.00  0.00    +0.086 A 
ATOM     12  C   UNL     1      -1.144  -4.820  -0.007  0.00  0.00    +0.029 A 
ATOM     13  C   UNL     1      -2.042  -5.872  -0.010  0.00  0.00    +0.004 A 
ATOM     14  C   UNL     1      -1.545  -7.169  -0.022  0.00  0.00    +0.020 A 
ATOM     15  C   UNL     1      -0.177  -7.373  -0.035  0.00  0.00    +0.111 A 
ATOM     16  N   UNL     1       0.659  -6.355  -0.037  0.00  0.00    -0.254 NA
ENDBRANCH   9  11
ENDBRANCH   1  10
BRANCH   6  17
ATOM     17  N   UNL     1       3.409   0.744  -0.026  0.00  0.00    -0.294 N 
ATOM     18  H   UNL     1       3.946   1.704  -0.026  0.00  0.00    +0.163 HD
ATOM     19  H   UNL     1       3.971  -0.202  -0.037  0.00  0.00    +0.163 HD
ENDBRANCH   6  17
BRANCH   5  20
ATOM     20  S   UNL     1       1.747   3.502   0.004  0.00  0.00    -0.080 S 
BRANCH  20  21
ATOM     21  C   UNL     1       0.138   4.330   0.024  0.00  0.00    +0.112 C 
BRANCH  21  22
ATOM     22  C   UNL     1       0.341   5.823   0.029  0.00  0.00    -0.036 A 
ATOM     23  C   UNL     1       0.423   6.514  -1.165  0.00  0.00    +0.004 A 
ATOM     24  C   UNL     1       0.609   7.884  -1.161  0.00  0.00    +0.001 A 
ATOM     25  C   UNL     1       0.713   8.563   0.039  0.00  0.00    +0.015 A 
ATOM     26  C   UNL     1       0.632   7.872   1.234  0.00  0.00    +0.018 A 
ATOM     27  C   UNL     1       0.441   6.502   1.229  0.00  0.00    +0.019 A 
ATOM     28 BR   UNL     1       0.775   8.801   2.875  0.00  0.00    -0.050 Br
ENDBRANCH  21  22
ENDBRANCH  20  21
ENDBRANCH   5  20
TORSDOF 6
