REMARK  Name = ZINC11873939
REMARK  6 active torsions:
REMARK  status: ('A' for Active; 'I' for Inactive)
REMARK    1  A    between atoms: C_3  and  C_6
REMARK    2  A    between atoms: C_6  and  C_7
REMARK    3  A    between atoms: C_7  and  N_8
REMARK    4  A    between atoms: N_8  and  C_9
REMARK    5  A    between atoms: C_12  and  C_14
REMARK    6  A    between atoms: C_22  and  N_62
REMARK                            x       y       z     vdW  Elec       q    Type
REMARK                         _______ _______ _______ _____ _____    ______ ____
ROOT
ATOM      1  C   UNL     1      -2.327   2.592  -5.955  0.00  0.00    +0.096 A 
ATOM      2  C   UNL     1      -0.938   2.691  -6.004  0.00  0.00    +0.042 A 
ATOM      3  C   UNL     1      -0.210   2.485  -4.863  0.00  0.00    +0.018 A 
ATOM      4  C   UNL     1      -0.895   2.168  -3.680  0.00  0.00    +0.053 A 
ATOM      5  C   UNL     1      -2.288   2.085  -3.704  0.00  0.00    +0.097 A 
ATOM      6  N   UNL     1      -3.029   2.291  -4.822  0.00  0.00    -0.349 N 
ATOM      7  H   UNL     1      -4.054   2.225  -4.817  0.00  0.00    +0.167 HD
ENDROOT
BRANCH   4   8
ATOM      8  C   UNL     1      -0.153   1.932  -2.426  0.00  0.00    +0.248 C 
ATOM      9  O   UNL     1       0.934   2.448  -2.257  0.00  0.00    -0.270 OA
ATOM     10  N   UNL     1      -0.682   1.145  -1.468  0.00  0.00    -0.299 N 
ATOM     11  C   UNL     1       0.150   0.790  -0.302  0.00  0.00    +0.106 C 
ATOM     12  C   UNL     1      -0.663   0.855   1.003  0.00  0.00    +0.000 C 
ATOM     13  C   UNL     1      -1.580   2.058   0.971  0.00  0.00    -0.077 C 
ATOM     14  C   UNL     1      -3.019   1.688  -0.970  0.00  0.00    -0.059 C 
ATOM     15  C   UNL     1      -2.045   0.678  -1.624  0.00  0.00    +0.089 C 
ATOM     16  N   UNL     1      -2.904   1.596   0.465  0.00  0.00    +0.383 N 
ATOM     17  H   UNL     1      -3.021   0.611   0.731  0.00  0.00    -0.081 HD
BRANCH  16  18
ATOM     18  C   UNL     1      -3.970   2.386   1.093  0.00  0.00    -0.069 C 
ATOM     19  C   UNL     1      -5.286   1.632   0.892  0.00  0.00    -0.015 C 
ATOM     20  C   UNL     1      -6.422   2.397   1.575  0.00  0.00    -0.002 C 
ATOM     21  C   UNL     1      -6.536   3.794   0.963  0.00  0.00    -0.000 C 
ATOM     22  C   UNL     1      -5.220   4.548   1.164  0.00  0.00    -0.002 C 
ATOM     23  C   UNL     1      -4.085   3.784   0.481  0.00  0.00    -0.015 C 
ENDBRANCH  16  18
ENDBRANCH   4   8
BRANCH   1  24
ATOM     24  N   UNL     1      -3.067   2.806  -7.106  0.00  0.00    -0.330 N 
ATOM     25  H   UNL     1      -4.035   2.739  -7.080  0.00  0.00    +0.147 HD
BRANCH  24  26
ATOM     26  C   UNL     1      -2.389   3.133  -8.362  0.00  0.00    +0.110 C 
BRANCH  26  27
ATOM     27  C   UNL     1      -3.429   3.318  -9.470  0.00  0.00    +0.093 C 
BRANCH  27  30
ATOM     28  C   UNL     1      -1.709   3.515 -12.723  0.00  0.00    +0.041 A 
ATOM     29  C   UNL     1      -2.300   2.769 -11.678  0.00  0.00    +0.044 A 
ATOM     30  C   UNL     1      -2.731   3.655 -10.762  0.00  0.00    +0.106 A 
ATOM     31  O   UNL     1      -2.440   4.892 -11.199  0.00  0.00    -0.468 OA
ATOM     32  C   UNL     1      -1.815   4.812 -12.385  0.00  0.00    +0.195 A 
ENDBRANCH  27  30
ENDBRANCH  26  27
ENDBRANCH  24  26
ENDBRANCH   1  24
TORSDOF 6
