REMARK  Name = ZINC50998310
REMARK  5 active torsions:
REMARK  status: ('A' for Active; 'I' for Inactive)
REMARK    1  A    between atoms: C_1  and  C_2
REMARK    2  A    between atoms: C_2  and  C_3
REMARK    3  A    between atoms: C_2  and  C_4
REMARK    4  A    between atoms: C_6  and  C_11
REMARK    5  A    between atoms: N_8  and  C_9
REMARK                            x       y       z     vdW  Elec       q    Type
REMARK                         _______ _______ _______ _____ _____    ______ ____
ROOT
ATOM      1  C   UNL     1      -1.412  -0.526   0.013  0.00  0.00    +0.079 C 
ATOM      2  N   UNL     1      -2.407   0.141   0.480  0.00  0.00    -0.363 N 
ATOM      3  C   UNL     1      -3.620  -0.676   0.325  0.00  0.00    +0.172 C 
ATOM      4  C   UNL     1      -3.119  -1.951  -0.328  0.00  0.00    +0.100 C 
ATOM      5  N   UNL     1      -1.763  -1.752  -0.478  0.00  0.00    -0.282 N 
ATOM      6  C   UNL     1      -0.834  -2.715  -1.074  0.00  0.00    +0.138 C 
ATOM      7  N   UNL     1      -3.809  -2.989  -0.669  0.00  0.00    -0.388 N 
ATOM      8  H   UNL     1      -4.766  -3.008  -0.513  0.00  0.00    +0.157 HD
ATOM      9  H   UNL     1      -3.369  -3.748  -1.082  0.00  0.00    +0.157 HD
ATOM     10  H   UNL     1      -2.365   1.029   0.867  0.00  0.00    +0.162 HD
ENDROOT
BRANCH   3  11
ATOM     11  C   UNL     1      -4.232  -0.975   1.669  0.00  0.00    -0.013 A 
ATOM     12  C   UNL     1      -5.607  -0.983   1.815  0.00  0.00    +0.055 A 
ATOM     13  C   UNL     1      -6.173  -1.259   3.050  0.00  0.00    +0.164 A 
ATOM     14  C   UNL     1      -5.356  -1.528   4.141  0.00  0.00    +0.180 A 
ATOM     15  C   UNL     1      -3.976  -1.517   3.989  0.00  0.00    +0.087 A 
ATOM     16  C   UNL     1      -3.418  -1.246   2.752  0.00  0.00    +0.030 A 
ATOM     17 CL   UNL     1      -2.951  -1.849   5.349  0.00  0.00    -0.080 Cl
ATOM     18  O   UNL     1      -5.891  -1.809   5.361  0.00  0.00    -0.483 OA
ATOM     19  C   UNL     1      -7.261  -1.446   5.561  0.00  0.00    +0.270 C 
ATOM     20  C   UNL     1      -8.065  -1.908   4.338  0.00  0.00    +0.270 C 
ATOM     21  O   UNL     1      -7.528  -1.260   3.179  0.00  0.00    -0.485 OA
ENDBRANCH   3  11
BRANCH   1  23
ATOM     22  C   UNL     1      -0.019   1.526   0.010  0.00  0.00    +0.015 C 
ATOM     23  C   UNL     1       0.002  -0.004   0.002  0.00  0.00    +0.044 C 
ATOM     24  C   UNL     1       0.742  -0.511   1.242  0.00  0.00    +0.015 C 
ENDBRANCH   1  23
TORSDOF 2
