REMARK  Name = ZINC19166883
REMARK  3 active torsions:
REMARK  status: ('A' for Active; 'I' for Inactive)
REMARK    1  A    between atoms: C_1  and  C_2
REMARK    2  A    between atoms: C_5  and  C_8
REMARK    3  A    between atoms: N_16  and  C_19
REMARK                            x       y       z     vdW  Elec       q    Type
REMARK                         _______ _______ _______ _____ _____    ______ ____
ROOT
ATOM      1  C   UNL     1       0.059  -4.275  -0.021  0.00  0.00    +0.117 C 
ATOM      2  C   UNL     1      -1.296  -4.827   0.395  0.00  0.00    +0.126 C 
ATOM      3  C   UNL     1      -1.064  -4.825   1.952  0.00  0.00    +0.173 C 
ATOM      4  C   UNL     1      -2.416  -4.928   2.452  0.00  0.00    +0.246 C 
ATOM      5  O   UNL     1      -2.789  -5.495   3.457  0.00  0.00    -0.273 OA
ATOM      6  N   UNL     1      -3.187  -4.246   1.546  0.00  0.00    -0.209 N 
ATOM      7  C   UNL     1      -2.519  -3.964   0.374  0.00  0.00    +0.233 C 
ATOM      8  O   UNL     1      -2.844  -3.180  -0.492  0.00  0.00    -0.274 OA
ATOM      9  N   UNL     1       0.193  -5.464   2.085  0.00  0.00    -0.227 NA
ATOM     10  N   UNL     1       1.003  -4.790   1.011  0.00  0.00    -0.231 NA
ATOM     11  C   UNL     1       1.694  -3.656   1.662  0.00  0.00    +0.104 C 
ATOM     12  C   UNL     1       2.074  -4.244   3.045  0.00  0.00    +0.034 C 
ATOM     13  C   UNL     1       0.849  -5.156   3.376  0.00  0.00    +0.104 C 
ENDROOT
BRANCH   6  14
ATOM     14  C   UNL     1      -4.521  -3.882   1.779  0.00  0.00    +0.045 A 
ATOM     15  C   UNL     1      -5.235  -3.196   0.805  0.00  0.00    +0.025 A 
ATOM     16  C   UNL     1      -6.549  -2.839   1.036  0.00  0.00    +0.023 A 
ATOM     17  C   UNL     1      -7.154  -3.163   2.238  0.00  0.00    +0.059 A 
ATOM     18  C   UNL     1      -6.445  -3.846   3.211  0.00  0.00    +0.061 A 
ATOM     19  C   UNL     1      -5.131  -4.211   2.981  0.00  0.00    +0.045 A 
ATOM     20 CL   UNL     1      -7.207  -4.252   4.717  0.00  0.00    -0.082 Cl
ATOM     21 CL   UNL     1      -8.806  -2.712   2.526  0.00  0.00    -0.082 Cl
ENDBRANCH   6  14
BRANCH   1  26
ATOM     22  C   UNL     1      -0.017   1.503   0.008  0.00  0.00    +0.044 C 
ATOM     23  C   UNL     1       0.003  -0.004   0.000  0.00  0.00    -0.050 A 
ATOM     24  C   UNL     1       0.853  -0.680  -0.855  0.00  0.00    +0.003 A 
ATOM     25  C   UNL     1       0.872  -2.062  -0.862  0.00  0.00    +0.005 A 
ATOM     26  C   UNL     1       0.040  -2.768  -0.013  0.00  0.00    -0.028 A 
ATOM     27  C   UNL     1      -0.810  -2.093   0.843  0.00  0.00    +0.005 A 
ATOM     28  C   UNL     1      -0.825  -0.711   0.853  0.00  0.00    +0.003 A 
ENDBRANCH   1  26
TORSDOF 2
