REMARK  Name = ZINC13855980
REMARK  9 active torsions:
REMARK  status: ('A' for Active; 'I' for Inactive)
REMARK    1  A    between atoms: C_1  and  C_2
REMARK    2  A    between atoms: C_2  and  C_3
REMARK    3  A    between atoms: C_7  and  C_37
REMARK    4  A    between atoms: C_8  and  N_9
REMARK    5  A    between atoms: C_10  and  C_12
REMARK    6  A    between atoms: C_12  and  C_14
REMARK    7  A    between atoms: C_12  and  N_21
REMARK    8  A    between atoms: C_14  and  C_15
REMARK    9  A    between atoms: C_37  and  C_38
REMARK                            x       y       z     vdW  Elec       q    Type
REMARK                         _______ _______ _______ _____ _____    ______ ____
ROOT
ATOM      1  C   UNL     1       3.091  -1.672  -4.850  0.00  0.00    +0.174 C 
ENDROOT
BRANCH   1   2
ATOM      2  N   UNL     1       2.317  -0.429  -4.799  0.00  0.00    -0.229 N 
ATOM      3  C   UNL     1       2.369   0.552  -5.774  0.00  0.00    +0.227 C 
ATOM      4  O   UNL     1       2.781   0.468  -6.911  0.00  0.00    -0.275 OA
ATOM      5  C   UNL     1       1.812   1.696  -5.102  0.00  0.00    +0.095 C 
ATOM      6  C   UNL     1       1.364   3.094  -5.205  0.00  0.00    +0.025 C 
ATOM      7  C   UNL     1       1.255   3.296  -3.623  0.00  0.00    +0.016 C 
ATOM      8  C   UNL     1       0.137   2.191  -3.464  0.00  0.00    +0.025 C 
ATOM      9  C   UNL     1       0.617   1.003  -4.327  0.00  0.00    +0.095 C 
ATOM     10  C   UNL     1       1.452  -0.108  -3.779  0.00  0.00    +0.227 C 
ATOM     11  O   UNL     1       1.383  -0.612  -2.679  0.00  0.00    -0.275 OA
ATOM     12  C   UNL     1      -0.854   2.793  -4.506  0.00  0.00    -0.027 C 
ATOM     13  C   UNL     1      -0.116   3.246  -5.530  0.00  0.00    -0.027 C 
ENDBRANCH   1   2
BRANCH   1  15
ATOM     14  N   UNL     1       4.806  -2.814  -3.482  0.00  0.00    -0.283 N 
ATOM     15  C   UNL     1       3.995  -1.750  -3.647  0.00  0.00    +0.239 C 
ATOM     16  O   UNL     1       3.993  -0.856  -2.827  0.00  0.00    -0.273 OA
ATOM     17  H   UNL     1       4.779  -3.643  -4.204  0.00  0.00    +0.155 HD
BRANCH  14  23
ATOM     18  C   UNL     1       5.670  -3.960  -1.539  0.00  0.00    -0.025 A 
ATOM     19  C   UNL     1       6.539  -4.008  -0.467  0.00  0.00    +0.020 A 
ATOM     20  C   UNL     1       7.413  -2.961  -0.235  0.00  0.00    +0.019 A 
ATOM     21  C   UNL     1       7.423  -1.865  -1.079  0.00  0.00    +0.020 A 
ATOM     22  C   UNL     1       6.560  -1.814  -2.156  0.00  0.00    -0.025 A 
ATOM     23  C   UNL     1       5.682  -2.863  -2.391  0.00  0.00    +0.040 A 
ATOM     24 BR   UNL     1       8.597  -3.028   1.239  0.00  0.00    -0.050 Br
BRANCH  18  26
ATOM     25  C   UNL     1       5.260  -5.987  -2.907  0.00  0.00    +0.009 C 
ATOM     26  C   UNL     1       4.714  -5.098  -1.787  0.00  0.00    +0.033 C 
ENDBRANCH  18  26
BRANCH  22  27
ATOM     27  C   UNL     1       6.571  -0.619  -3.075  0.00  0.00    +0.033 C 
ATOM     28  C   UNL     1       7.063   0.610  -2.308  0.00  0.00    +0.009 C 
ENDBRANCH  22  27
ENDBRANCH  14  23
ENDBRANCH   1  15
BRANCH   1  29
ATOM     29  C   UNL     1       2.137  -2.868  -4.850  0.00  0.00    +0.067 C 
BRANCH  29  30
ATOM     30  C   UNL     1       1.317  -2.856  -6.114  0.00  0.00    -0.045 A 
ATOM     31  C   UNL     1       1.774  -3.515  -7.240  0.00  0.00    +0.004 A 
ATOM     32  C   UNL     1       1.024  -3.500  -8.402  0.00  0.00    +0.000 A 
ATOM     33  C   UNL     1      -0.187  -2.835  -8.434  0.00  0.00    +0.000 A 
ATOM     34  C   UNL     1      -0.644  -2.175  -7.309  0.00  0.00    +0.000 A 
ATOM     35  C   UNL     1       0.108  -2.186  -6.149  0.00  0.00    +0.004 A 
ENDBRANCH  29  30
ENDBRANCH   1  29
TORSDOF 7
