REMARK  Name = ZINC12368187
REMARK  6 active torsions:
REMARK  status: ('A' for Active; 'I' for Inactive)
REMARK    1  A    between atoms: C_1  and  C_2
REMARK    2  A    between atoms: C_7  and  C_8
REMARK    3  A    between atoms: C_8  and  O_9
REMARK    4  A    between atoms: O_9  and  N_10
REMARK    5  A    between atoms: C_11  and  C_12
REMARK    6  A    between atoms: N_19  and  C_20
REMARK                            x       y       z     vdW  Elec       q    Type
REMARK                         _______ _______ _______ _____ _____    ______ ____
ROOT
ATOM      1  N   UNL     1       1.099   1.738   0.001  0.00  0.00    -0.091 NA
ATOM      2  C   UNL     1      -0.013   1.076   0.008  0.00  0.00    +0.183 C 
ENDROOT
BRANCH   2   3
ATOM      3  C   UNL     1      -1.301   1.796   0.018  0.00  0.00    +0.121 A 
ATOM      4  C   UNL     1      -2.584   1.203   0.021  0.00  0.00    +0.065 A 
ATOM      5  C   UNL     1      -3.499   2.194   0.031  0.00  0.00    +0.135 A 
ATOM      6  N   UNL     1      -2.828   3.381   0.035  0.00  0.00    -0.190 N 
ATOM      7  N   UNL     1      -1.455   3.104   0.032  0.00  0.00    -0.161 NA
ATOM      8  C   UNL     1      -3.389   4.607   0.045  0.00  0.00    +0.335 C 
ATOM      9  O   UNL     1      -4.598   4.722   0.052  0.00  0.00    -0.248 OA
ATOM     10  N   UNL     1      -2.608   5.705   0.048  0.00  0.00    -0.299 N 
ATOM     11  C   UNL     1      -3.217   7.038   0.059  0.00  0.00    +0.130 C 
ATOM     12 BR   UNL     1      -2.953  -0.652   0.011  0.00  0.00    -0.046 Br
ATOM     13  H   UNL     1      -1.642   5.614   0.042  0.00  0.00    +0.150 HD
ENDBRANCH   2   3
BRANCH   1  14
ATOM     14  O   UNL     1       1.079   3.154   0.009  0.00  0.00    -0.389 OA
BRANCH  14  15
ATOM     15  C   UNL     1       2.377   3.752  -0.001  0.00  0.00    +0.298 C 
BRANCH  15  22
ATOM     16  C   UNL     1       4.734   5.422  -0.014  0.00  0.00    +0.044 C 
ATOM     17  C   UNL     1       3.365   6.052   0.002  0.00  0.00    -0.044 A 
ATOM     18  C   UNL     1       3.238   7.428   0.011  0.00  0.00    +0.004 A 
ATOM     19  C   UNL     1       1.982   8.006   0.025  0.00  0.00    +0.000 A 
ATOM     20  C   UNL     1       0.854   7.207   0.032  0.00  0.00    +0.000 A 
ATOM     21  C   UNL     1       0.981   5.831   0.018  0.00  0.00    +0.007 A 
ATOM     22  C   UNL     1       2.237   5.253   0.009  0.00  0.00    -0.005 A 
ENDBRANCH  15  22
ENDBRANCH  14  15
ENDBRANCH   1  14
TORSDOF 4
