REMARK  Name = ZINC34787363
REMARK  12 active torsions:
REMARK  status: ('A' for Active; 'I' for Inactive)
REMARK    1  A    between atoms: C_1  and  C_2
REMARK    2  A    between atoms: C_2  and  C_3
REMARK    3  A    between atoms: C_4  and  C_36
REMARK    4  A    between atoms: C_8  and  N_19
REMARK    5  A    between atoms: C_13  and  C_18
REMARK    6  A    between atoms: C_15  and  C_17
REMARK    7  A    between atoms: N_19  and  N_20
REMARK    8  A    between atoms: N_19  and  N_29
REMARK    9  A    between atoms: N_20  and  C_21
REMARK   10  A    between atoms: C_26  and  O_27
REMARK   11  A    between atoms: O_27  and  C_28
REMARK   12  A    between atoms: N_29  and  C_30
REMARK                            x       y       z     vdW  Elec       q    Type
REMARK                         _______ _______ _______ _____ _____    ______ ____
ROOT
ATOM      1  C   UNL     1       0.207   1.785   1.423  0.00  0.00    -0.025 A 
ATOM      2  C   UNL     1       1.305   2.554   1.470  0.00  0.00    -0.007 A 
ATOM      3  S   UNL     1       2.426   1.618   2.492  0.00  0.00    -0.073 S 
ATOM      4  C   UNL     1       1.390   0.218   2.829  0.00  0.00    +0.116 A 
ATOM      5  C   UNL     1       0.195   0.521   2.139  0.00  0.00    +0.054 A 
ATOM      6  C   UNL     1      -0.835  -0.454   2.245  0.00  0.00    +0.167 A 
ATOM      7  N   UNL     1      -0.622  -1.545   2.961  0.00  0.00    -0.192 NA
ATOM      8  C   UNL     1       0.525  -1.764   3.588  0.00  0.00    +0.254 A 
ATOM      9  N   UNL     1       1.524  -0.897   3.518  0.00  0.00    -0.203 NA
ATOM     10  N   UNL     1       0.688  -2.936   4.328  0.00  0.00    -0.202 N 
ATOM     11  C   UNL     1       1.798  -3.296   5.025  0.00  0.00    +0.045 A 
ATOM     12  C   UNL     1       1.550  -4.495   5.598  0.00  0.00    +0.048 A 
ATOM     13  C   UNL     1       0.252  -4.883   5.244  0.00  0.00    +0.061 A 
ATOM     14  N   UNL     1      -0.266  -3.949   4.489  0.00  0.00    -0.169 NA
ATOM     15  C   UNL     1      -0.433  -6.158   5.665  0.00  0.00    +0.067 C 
ATOM     16  C   UNL     1       3.074  -2.502   5.138  0.00  0.00    +0.066 C 
ATOM     17  C   UNL     1       1.535   3.891   0.814  0.00  0.00    +0.052 C 
ENDROOT
BRANCH   1  19
ATOM     18  C   UNL     1      -1.530   3.543   1.221  0.00  0.00    +0.009 C 
ATOM     19  C   UNL     1      -1.002   2.229   0.641  0.00  0.00    +0.033 C 
ENDBRANCH   1  19
BRANCH   6  20
ATOM     20  N   UNL     1      -2.047  -0.262   1.606  0.00  0.00    -0.166 N 
BRANCH  20  21
ATOM     21  N   UNL     1      -2.120  -0.325   0.209  0.00  0.00    -0.245 N 
ATOM     22  H   UNL     1      -2.212   0.490  -0.309  0.00  0.00    +0.172 HD
BRANCH  21  23
ATOM     23  C   UNL     1      -2.059  -1.563  -0.441  0.00  0.00    +0.087 A 
ATOM     24  C   UNL     1      -2.039  -2.736   0.300  0.00  0.00    +0.028 A 
ATOM     25  C   UNL     1      -1.979  -3.958  -0.344  0.00  0.00    +0.002 A 
ATOM     26  C   UNL     1      -1.939  -4.015  -1.724  0.00  0.00    +0.004 A 
ATOM     27  C   UNL     1      -1.958  -2.850  -2.469  0.00  0.00    +0.047 A 
ATOM     28  C   UNL     1      -2.024  -1.622  -1.832  0.00  0.00    +0.142 A 
BRANCH  28  29
ATOM     29  O   UNL     1      -2.049  -0.475  -2.563  0.00  0.00    -0.493 OA
ATOM     30  C   UNL     1      -2.010  -0.611  -3.985  0.00  0.00    +0.277 C 
ENDBRANCH  28  29
ENDBRANCH  21  23
ENDBRANCH  20  21
BRANCH  20  31
ATOM     31  N   UNL     1      -3.173  -0.012   2.338  0.00  0.00    -0.218 NA
ATOM     32  H   UNL     1      -3.240  -0.640   3.125  0.00  0.00    +0.146 HD
BRANCH  31  33
ATOM     33  C   UNL     1      -3.214   1.389   2.778  0.00  0.00    +0.075 C 
ATOM     34  C   UNL     1      -2.625   1.500   4.186  0.00  0.00    +0.020 C 
ATOM     35  C   UNL     1      -2.668   2.959   4.643  0.00  0.00    +0.002 C 
ATOM     36  C   UNL     1      -4.119   3.446   4.658  0.00  0.00    +0.000 C 
ATOM     37  C   UNL     1      -4.708   3.335   3.250  0.00  0.00    +0.002 C 
ATOM     38  C   UNL     1      -4.665   1.876   2.792  0.00  0.00    +0.020 C 
ENDBRANCH  31  33
ENDBRANCH  20  31
ENDBRANCH   6  20
TORSDOF 7
