REMARK  Name = ZINC18024570
REMARK  9 active torsions:
REMARK  status: ('A' for Active; 'I' for Inactive)
REMARK    1  A    between atoms: C_1  and  C_2
REMARK    2  A    between atoms: C_2  and  N_3
REMARK    3  A    between atoms: N_3  and  C_4
REMARK    4  A    between atoms: N_3  and  C_6
REMARK    5  A    between atoms: C_4  and  C_5
REMARK    6  A    between atoms: C_6  and  C_7
REMARK    7  A    between atoms: C_12  and  C_13
REMARK    8  A    between atoms: C_13  and  N_14
REMARK    9  A    between atoms: C_15  and  C_17
REMARK                            x       y       z     vdW  Elec       q    Type
REMARK                         _______ _______ _______ _____ _____    ______ ____
ROOT
ATOM      1  N   UNL     1       4.236  -2.412   1.984  0.00  0.00    -0.311 N 
ATOM      2  C   UNL     1       4.808  -2.174   3.181  0.00  0.00    +0.220 C 
ATOM      3  O   UNL     1       5.113  -1.042   3.492  0.00  0.00    -0.275 OA
ATOM      4  H   UNL     1       3.992  -3.317   1.735  0.00  0.00    +0.149 HD
ENDROOT
BRANCH   2   5
ATOM      5  C   UNL     1       5.066  -3.313   4.133  0.00  0.00    +0.049 C 
ATOM      6  C   UNL     1       6.002  -4.327   3.472  0.00  0.00    +0.019 C 
ATOM      7  C   UNL     1       6.265  -5.484   4.439  0.00  0.00    -0.008 C 
ATOM      8  C   UNL     1       6.915  -4.945   5.714  0.00  0.00    +0.007 C 
ATOM      9  C   UNL     1       5.979  -3.931   6.375  0.00  0.00    -0.008 C 
ATOM     10  C   UNL     1       5.716  -2.774   5.409  0.00  0.00    +0.019 C 
ATOM     11  C   UNL     1       4.655  -4.612   6.726  0.00  0.00    +0.021 C 
ATOM     12  C   UNL     1       4.005  -5.151   5.450  0.00  0.00    +0.028 C 
ATOM     13  C   UNL     1       4.941  -6.165   4.790  0.00  0.00    +0.021 C 
ATOM     14  C   UNL     1       3.742  -3.995   4.484  0.00  0.00    +0.034 C 
ATOM     15 BR   UNL     1       2.304  -6.027   5.902  0.00  0.00    -0.084 Br
ENDBRANCH   2   5
BRANCH   1  16
ATOM     16  C   UNL     1       3.985  -1.304   1.058  0.00  0.00    +0.139 C 
BRANCH  16  22
ATOM     17  C   UNL     1       1.991  -2.115  -0.219  0.00  0.00    -0.059 A 
ATOM     18  C   UNL     1       1.402  -2.596  -1.374  0.00  0.00    +0.002 A 
ATOM     19  C   UNL     1       2.168  -2.804  -2.505  0.00  0.00    +0.000 A 
ATOM     20  C   UNL     1       3.523  -2.529  -2.483  0.00  0.00    +0.000 A 
ATOM     21  C   UNL     1       4.111  -2.047  -1.329  0.00  0.00    +0.005 A 
ATOM     22  C   UNL     1       3.344  -1.835  -0.198  0.00  0.00    -0.029 A 
BRANCH  17  23
ATOM     23  C   UNL     1       1.156  -1.888   1.015  0.00  0.00    -0.043 C 
BRANCH  23  24
ATOM     24  N   UNL     1       0.822  -0.462   1.126  0.00  0.00    +0.382 N 
ATOM     25  H   UNL     1       1.671   0.084   1.108  0.00  0.00    -0.081 HD
BRANCH  24  27
ATOM     26  C   UNL     1      -0.262   1.442   0.032  0.00  0.00    -0.017 C 
ATOM     27  C   UNL     1      -0.035  -0.070  -0.001  0.00  0.00    -0.082 C 
ENDBRANCH  24  27
BRANCH  24  28
ATOM     28  C   UNL     1       0.111  -0.222   2.389  0.00  0.00    -0.082 C 
ATOM     29  C   UNL     1       1.053  -0.495   3.563  0.00  0.00    -0.017 C 
ENDBRANCH  24  28
ENDBRANCH  23  24
ENDBRANCH  17  23
ENDBRANCH  16  22
ENDBRANCH   1  16
TORSDOF 7
