REMARK  Name = ZINC38683959
REMARK  16 active torsions:
REMARK  status: ('A' for Active; 'I' for Inactive)
REMARK    1  A    between atoms: C_1  and  C_2
REMARK    2  A    between atoms: C_2  and  C_3
REMARK    3  A    between atoms: C_3  and  O_4
REMARK    4  A    between atoms: O_4  and  C_5
REMARK    5  A    between atoms: C_8  and  C_14
REMARK    6  A    between atoms: C_10  and  O_11
REMARK    7  A    between atoms: O_11  and  C_12
REMARK    8  A    between atoms: C_12  and  C_13
REMARK    9  A    between atoms: C_19  and  O_28
REMARK   10  A    between atoms: C_23  and  N_27
REMARK   11  A    between atoms: C_24  and  C_25
REMARK   12  A    between atoms: O_28  and  C_29
REMARK   13  A    between atoms: C_29  and  C_31
REMARK   14  A    between atoms: C_31  and  C_32
REMARK   15  A    between atoms: C_35  and  O_38
REMARK   16  A    between atoms: O_38  and  C_39
REMARK                            x       y       z     vdW  Elec       q    Type
REMARK                         _______ _______ _______ _____ _____    ______ ____
ROOT
ATOM      1  C   UNL     1      -6.454  -4.568   0.074  0.00  0.00    +0.098 C 
ATOM      2  C   UNL     1      -7.218  -4.180  -1.163  0.00  0.00    +0.008 A 
ATOM      3  C   UNL     1      -6.816  -4.671  -2.393  0.00  0.00    +0.012 A 
ATOM      4  C   UNL     1      -7.505  -4.325  -3.539  0.00  0.00    +0.047 A 
ATOM      5  C   UNL     1      -8.605  -3.483  -3.459  0.00  0.00    +0.135 A 
ATOM      6  C   UNL     1      -9.010  -2.990  -2.230  0.00  0.00    +0.093 A 
ATOM      7  C   UNL     1      -8.316  -3.338  -1.078  0.00  0.00    +0.138 A 
ATOM      8  O   UNL     1      -8.725  -2.848   0.118  0.00  0.00    -0.441 OA
ATOM      9  C   UNL     1      -8.341  -3.449   1.256  0.00  0.00    +0.199 C 
ATOM     10  C   UNL     1      -7.272  -4.274   1.300  0.00  0.00    +0.098 C 
ENDROOT
BRANCH   1  14
ATOM     11  C   UNL     1      -2.808  -2.339   0.242  0.00  0.00    +0.162 A 
ATOM     12  C   UNL     1      -4.027  -1.680   0.240  0.00  0.00    +0.050 A 
ATOM     13  C   UNL     1      -5.203  -2.404   0.185  0.00  0.00    +0.008 A 
ATOM     14  C   UNL     1      -5.168  -3.785   0.133  0.00  0.00    -0.031 A 
ATOM     15  C   UNL     1      -3.955  -4.448   0.136  0.00  0.00    +0.054 A 
ATOM     16  C   UNL     1      -2.772  -3.729   0.184  0.00  0.00    +0.162 A 
BRANCH  11  17
ATOM     17  O   UNL     1      -1.649  -1.629   0.295  0.00  0.00    -0.488 OA
BRANCH  17  18
ATOM     18  C   UNL     1      -1.762  -0.206   0.353  0.00  0.00    +0.229 C 
BRANCH  18  20
ATOM     19  C   UNL     1      -0.487   1.939   0.469  0.00  0.00    +0.007 C 
ATOM     20  C   UNL     1      -0.365   0.415   0.407  0.00  0.00    +0.038 C 
ENDBRANCH  18  20
ENDBRANCH  17  18
ENDBRANCH  11  17
BRANCH  16  21
ATOM     21  O   UNL     1      -1.578  -4.380   0.180  0.00  0.00    -0.489 OA
BRANCH  21  22
ATOM     22  C   UNL     1      -1.617  -5.808   0.119  0.00  0.00    +0.226 C 
ATOM     23  C   UNL     1      -0.190  -6.358   0.125  0.00  0.00    +0.048 C 
ENDBRANCH  21  22
ENDBRANCH  16  21
ENDBRANCH   1  14
BRANCH   9  24
ATOM     24  N   UNL     1      -9.053  -3.217   2.406  0.00  0.00    -0.328 N 
ATOM     25  H   UNL     1      -9.822  -2.625   2.389  0.00  0.00    +0.145 HD
ATOM     26  H   UNL     1      -8.788  -3.644   3.235  0.00  0.00    +0.145 HD
ENDBRANCH   9  24
BRANCH  10  27
ATOM     27  C   UNL     1      -6.914  -4.884   2.546  0.00  0.00    +0.101 C 
ATOM     28  N   UNL     1      -6.630  -5.367   3.534  0.00  0.00    -0.191 NA
ENDBRANCH  10  27
BRANCH   5  29
ATOM     29  O   UNL     1      -9.284  -3.142  -4.587  0.00  0.00    -0.425 OA
BRANCH  29  30
ATOM     30  C   UNL     1      -9.200  -1.872  -5.013  0.00  0.00    +0.317 C 
ATOM     31  O   UNL     1      -8.454  -1.097  -4.461  0.00  0.00    -0.250 OA
BRANCH  30  32
ATOM     32  C   UNL     1     -10.035  -1.412  -6.180  0.00  0.00    +0.156 C 
BRANCH  32  33
ATOM     33  C   UNL     1      -9.756   0.043  -6.455  0.00  0.00    -0.037 A 
ATOM     34  C   UNL     1     -10.504   1.021  -5.825  0.00  0.00    +0.008 A 
ATOM     35  C   UNL     1     -10.250   2.355  -6.076  0.00  0.00    +0.046 A 
ATOM     36  C   UNL     1      -9.243   2.715  -6.960  0.00  0.00    +0.120 A 
ATOM     37  C   UNL     1      -8.494   1.732  -7.591  0.00  0.00    +0.046 A 
ATOM     38  C   UNL     1      -8.748   0.399  -7.333  0.00  0.00    +0.008 A 
BRANCH  36  39
ATOM     39  O   UNL     1      -8.992   4.027  -7.209  0.00  0.00    -0.495 OA
ATOM     40  C   UNL     1      -7.941   4.323  -8.131  0.00  0.00    +0.277 C 
ENDBRANCH  36  39
ENDBRANCH  32  33
ENDBRANCH  30  32
ENDBRANCH  29  30
ENDBRANCH   5  29
TORSDOF 13
