REMARK  Name = ZINC27018451
REMARK  3 active torsions:
REMARK  status: ('A' for Active; 'I' for Inactive)
REMARK    1  A    between atoms: C_1  and  C_2
REMARK    2  A    between atoms: C_5  and  C_8
REMARK    3  A    between atoms: C_18  and  C_20
REMARK                            x       y       z     vdW  Elec       q    Type
REMARK                         _______ _______ _______ _____ _____    ______ ____
ROOT
ATOM      1  C   UNL     1       0.045   1.181   0.189  0.00  0.00    +0.028 C 
ATOM      2  C   UNL     1       1.227   1.760  -0.144  0.00  0.00    +0.082 A 
ATOM      3  C   UNL     1       1.511   3.148  -0.530  0.00  0.00    +0.288 A 
ATOM      4  O   UNL     1       0.621   3.976  -0.590  0.00  0.00    -0.265 OA
ATOM      5  N   UNL     1       2.782   3.480  -0.812  0.00  0.00    -0.170 N 
ATOM      6  C   UNL     1       3.741   2.504  -0.735  0.00  0.00    +0.201 A 
ATOM      7  S   UNL     1       2.858   1.039  -0.239  0.00  0.00    -0.044 S 
ATOM      8  N   UNL     1       5.011   2.707  -0.993  0.00  0.00    -0.181 NA
ATOM      9  C   UNL     1       5.451   3.918  -1.355  0.00  0.00    +0.300 A 
ATOM     10  O   UNL     1       6.632   4.109  -1.595  0.00  0.00    -0.263 OA
ATOM     11  C   UNL     1       4.470   5.014  -1.457  0.00  0.00    +0.158 A 
ATOM     12  N   UNL     1       3.214   4.779  -1.194  0.00  0.00    -0.156 NA
ENDROOT
BRANCH   1  17
ATOM     13  C   UNL     1      -4.648   4.423   0.891  0.00  0.00    +0.044 C 
ATOM     14  C   UNL     1      -3.417   3.573   0.707  0.00  0.00    -0.050 A 
ATOM     15  C   UNL     1      -3.526   2.321   0.125  0.00  0.00    +0.004 A 
ATOM     16  C   UNL     1      -2.405   1.537  -0.047  0.00  0.00    +0.008 A 
ATOM     17  C   UNL     1      -1.155   2.010   0.368  0.00  0.00    -0.024 A 
ATOM     18  C   UNL     1      -1.055   3.275   0.960  0.00  0.00    +0.008 A 
ATOM     19  C   UNL     1      -2.184   4.048   1.120  0.00  0.00    +0.004 A 
ENDBRANCH   1  17
BRANCH  11  20
ATOM     20  C   UNL     1       4.908   6.373  -1.854  0.00  0.00    +0.007 A 
ATOM     21  C   UNL     1       4.029   7.225  -2.521  0.00  0.00    +0.010 A 
ATOM     22  C   UNL     1       4.441   8.491  -2.884  0.00  0.00    +0.001 A 
ATOM     23  C   UNL     1       5.727   8.911  -2.597  0.00  0.00    +0.000 A 
ATOM     24  C   UNL     1       6.606   8.068  -1.940  0.00  0.00    +0.001 A 
ATOM     25  C   UNL     1       6.204   6.802  -1.567  0.00  0.00    +0.010 A 
ENDBRANCH  11  20
TORSDOF 2
