REMARK  Name = ZINC39623455
REMARK  7 active torsions:
REMARK  status: ('A' for Active; 'I' for Inactive)
REMARK    1  A    between atoms: C_1  and  C_2
REMARK    2  A    between atoms: C_2  and  C_3
REMARK    3  A    between atoms: C_3  and  C_4
REMARK    4  A    between atoms: C_4  and  C_5
REMARK    5  A    between atoms: C_5  and  N_6
REMARK    6  A    between atoms: C_7  and  C_9
REMARK    7  A    between atoms: C_20  and  C_22
REMARK                            x       y       z     vdW  Elec       q    Type
REMARK                         _______ _______ _______ _____ _____    ______ ____
ROOT
ATOM      1  C   UNL     1       2.139  -5.657  -3.896  0.00  0.00    +0.100 C 
ATOM      2  C   UNL     1       0.766  -6.322  -3.650  0.00  0.00    +0.121 C 
ATOM      3  N   UNL     1       0.325  -6.777  -4.989  0.00  0.00    -0.296 N 
ATOM      4  C   UNL     1       1.561  -7.284  -5.632  0.00  0.00    +0.115 C 
ATOM      5  C   UNL     1       2.659  -6.294  -5.196  0.00  0.00    -0.004 C 
ATOM      6  C   UNL     1       3.966  -7.036  -4.935  0.00  0.00    -0.010 C 
ATOM      7  C   UNL     1       4.493  -7.611  -6.252  0.00  0.00    -0.082 C 
ATOM      8  N   UNL     1       4.709  -6.522  -7.212  0.00  0.00    +0.379 N 
ATOM      9  C   UNL     1       3.431  -5.873  -7.529  0.00  0.00    -0.082 C 
ATOM     10  C   UNL     1       2.859  -5.224  -6.266  0.00  0.00    -0.010 C 
ATOM     11  C   UNL     1      -0.919  -6.739  -5.506  0.00  0.00    +0.249 C 
ATOM     12  O   UNL     1      -1.142  -7.239  -6.591  0.00  0.00    -0.270 OA
ATOM     13  H   UNL     1       5.339  -5.843  -6.813  0.00  0.00    -0.086 HD
ATOM     14  H   UNL     1       5.114  -6.896  -8.058  0.00  0.00    -0.086 HD
ENDROOT
BRANCH  11  15
ATOM     15  C   UNL     1      -2.012  -6.089  -4.754  0.00  0.00    +0.073 A 
ATOM     16  C   UNL     1      -2.045  -6.164  -3.360  0.00  0.00    +0.036 A 
ATOM     17  C   UNL     1      -3.068  -5.555  -2.663  0.00  0.00    +0.042 A 
ATOM     18  C   UNL     1      -4.063  -4.870  -3.343  0.00  0.00    +0.023 A 
ATOM     19  C   UNL     1      -4.037  -4.791  -4.723  0.00  0.00    +0.040 A 
ATOM     20  C   UNL     1      -3.015  -5.392  -5.434  0.00  0.00    +0.136 A 
ATOM     21  F   UNL     1      -2.988  -5.310  -6.782  0.00  0.00    -0.205 F 
ATOM     22 CL   UNL     1      -3.111  -5.647  -0.930  0.00  0.00    -0.084 Cl
ENDBRANCH  11  15
BRANCH   1  24
ATOM     23  N   UNL     1       2.990  -3.339  -3.750  0.00  0.00    -0.315 N 
ATOM     24  C   UNL     1       1.978  -4.168  -4.070  0.00  0.00    +0.218 C 
ATOM     25  O   UNL     1       0.936  -3.717  -4.497  0.00  0.00    -0.275 OA
ATOM     26  H   UNL     1       3.823  -3.700  -3.408  0.00  0.00    +0.149 HD
BRANCH  23  27
ATOM     27  C   UNL     1       2.833  -1.892  -3.918  0.00  0.00    +0.104 C 
BRANCH  27  28
ATOM     28  C   UNL     1       4.120  -1.186  -3.486  0.00  0.00    +0.019 C 
BRANCH  28  29
ATOM     29  C   UNL     1       3.956   0.325  -3.662  0.00  0.00    +0.001 C 
BRANCH  29  31
ATOM     30  C   UNL     1       5.079   2.543  -3.406  0.00  0.00    +0.004 C 
ATOM     31  C   UNL     1       5.242   1.032  -3.230  0.00  0.00    -0.003 C 
ENDBRANCH  29  31
ENDBRANCH  28  29
ENDBRANCH  27  28
ENDBRANCH  23  27
ENDBRANCH   1  24
TORSDOF 6
