REMARK  Name = ZINC12302454
REMARK  8 active torsions:
REMARK  status: ('A' for Active; 'I' for Inactive)
REMARK    1  A    between atoms: C_1  and  C_2
REMARK    2  A    between atoms: C_7  and  C_10
REMARK    3  A    between atoms: C_11  and  C_13
REMARK    4  A    between atoms: C_14  and  C_23
REMARK    5  A    between atoms: C_23  and  N_57
REMARK    6  A    between atoms: C_24  and  C_25
REMARK    7  A    between atoms: C_24  and  C_28
REMARK    8  A    between atoms: C_24  and  N_57
REMARK                            x       y       z     vdW  Elec       q    Type
REMARK                         _______ _______ _______ _____ _____    ______ ____
ROOT
ATOM      1  C   UNL     1      -1.656   5.597   0.294  0.00  0.00    +0.146 A 
ATOM      2  C   UNL     1      -2.324   4.407   0.320  0.00  0.00    +0.039 A 
ATOM      3  N   UNL     1      -1.387   3.420   0.265  0.00  0.00    -0.303 N 
ATOM      4  C   UNL     1      -1.486   2.056   0.255  0.00  0.00    +0.113 A 
ATOM      5  C   UNL     1      -0.379   1.287   0.198  0.00  0.00    +0.058 A 
ATOM      6  C   UNL     1       0.895   1.880   0.138  0.00  0.00    +0.025 A 
ATOM      7  C   UNL     1       1.009   3.234   0.141  0.00  0.00    +0.048 A 
ATOM      8  C   UNL     1      -0.157   4.027   0.207  0.00  0.00    +0.139 A 
ATOM      9  N   UNL     1      -0.337   5.337   0.225  0.00  0.00    -0.223 NA
ATOM     10 CL   UNL     1      -0.528  -0.443   0.193  0.00  0.00    -0.082 Cl
ENDROOT
BRANCH   1  19
ATOM     11  C   UNL     1       2.057   8.780   1.495  0.00  0.00    +0.039 C 
ATOM     12  C   UNL     1       0.532   8.712   1.597  0.00  0.00    +0.133 C 
ATOM     13  C   UNL     1      -0.027   7.926   0.411  0.00  0.00    +0.139 C 
ATOM     14  N   UNL     1      -1.495   8.035   0.426  0.00  0.00    -0.291 N 
ATOM     15  C   UNL     1      -2.088   9.376   0.548  0.00  0.00    +0.139 C 
ATOM     16  C   UNL     1      -1.428  10.090   1.733  0.00  0.00    +0.133 C 
ATOM     17  O   UNL     1      -0.007  10.036   1.584  0.00  0.00    -0.371 OA
ATOM     18  C   UNL     1      -1.884  11.550   1.768  0.00  0.00    +0.039 C 
ATOM     19  C   UNL     1      -2.272   6.938   0.336  0.00  0.00    +0.267 C 
ATOM     20  O   UNL     1      -3.482   7.052   0.290  0.00  0.00    -0.268 OA
ENDBRANCH   1  19
BRANCH   2  21
ATOM     21  C   UNL     1      -3.818   4.220   0.396  0.00  0.00    -0.025 C 
BRANCH  21  22
ATOM     22  N   UNL     1      -4.225   4.149   1.812  0.00  0.00    +0.385 N 
ATOM     23  H   UNL     1      -3.886   4.985   2.303  0.00  0.00    -0.085 HD
ATOM     24  H   UNL     1      -3.816   3.311   2.240  0.00  0.00    -0.085 HD
BRANCH  22  25
ATOM     25  C   UNL     1      -5.695   4.084   1.919  0.00  0.00    -0.065 C 
BRANCH  25  26
ATOM     26  C   UNL     1      -6.144   2.621   1.888  0.00  0.00    -0.025 C 
ATOM     27  C   UNL     1      -6.826   2.119   0.614  0.00  0.00    +0.002 C 
ATOM     28  C   UNL     1      -7.648   2.344   1.885  0.00  0.00    +0.002 C 
ENDBRANCH  25  26
BRANCH  25  29
ATOM     29  C   UNL     1      -6.131   4.723   3.239  0.00  0.00    -0.025 C 
ATOM     30  C   UNL     1      -7.224   5.792   3.178  0.00  0.00    +0.002 C 
ATOM     31  C   UNL     1      -5.775   6.194   3.462  0.00  0.00    +0.002 C 
ENDBRANCH  25  29
ENDBRANCH  22  25
ENDBRANCH  21  22
ENDBRANCH   2  21
TORSDOF 6
