REMARK  Name = ZINC03671902
REMARK  7 active torsions:
REMARK  status: ('A' for Active; 'I' for Inactive)
REMARK    1  A    between atoms: C_1  and  C_2
REMARK    2  A    between atoms: C_2  and  C_30
REMARK    3  A    between atoms: C_6  and  C_17
REMARK    4  A    between atoms: C_11  and  O_15
REMARK    5  A    between atoms: C_24  and  S_26
REMARK    6  A    between atoms: S_26  and  C_27
REMARK    7  A    between atoms: C_27  and  C_28
REMARK                            x       y       z     vdW  Elec       q    Type
REMARK                         _______ _______ _______ _____ _____    ______ ____
ROOT
ATOM      1  C   UNL     1      -0.502   8.063  -2.584  0.00  0.00    +0.031 C 
ATOM      2  C   UNL     1      -1.944   7.843  -2.125  0.00  0.00    +0.034 C 
ATOM      3  C   UNL     1      -2.094   8.259  -0.654  0.00  0.00    +0.098 C 
ATOM      4  C   UNL     1      -1.145   7.405   0.190  0.00  0.00    +0.207 C 
ATOM      5  C   UNL     1      -1.460   7.623   1.677  0.00  0.00    +0.086 C 
ATOM      6  C   UNL     1      -1.401   9.124   1.966  0.00  0.00    +0.058 C 
ATOM      7  C   UNL     1      -0.132   9.702   1.392  0.00  0.00    +0.004 A 
ATOM      8  C   UNL     1       0.305  10.935   1.849  0.00  0.00    +0.031 A 
ATOM      9  C   UNL     1       1.457  11.501   1.340  0.00  0.00    +0.083 A 
ATOM     10  C   UNL     1       2.183  10.832   0.363  0.00  0.00    +0.139 A 
ATOM     11  C   UNL     1       1.751   9.598  -0.093  0.00  0.00    +0.093 A 
ATOM     12  C   UNL     1       0.592   9.029   0.422  0.00  0.00    +0.131 A 
ATOM     13  O   UNL     1       0.203   7.815  -0.048  0.00  0.00    -0.464 OA
ATOM     14 CL   UNL     1       1.996  13.046   1.918  0.00  0.00    -0.080 Cl
ATOM     15  N   UNL     1      -1.303   5.992  -0.135  0.00  0.00    -0.218 NA
ATOM     16  C   UNL     1      -1.813   5.562  -1.243  0.00  0.00    +0.154 C 
ATOM     17  N   UNL     1      -2.285   6.414  -2.214  0.00  0.00    -0.319 N 
ATOM     18  C   UNL     1      -2.899   8.660  -2.998  0.00  0.00    +0.031 C 
ATOM     19  H   UNL     1      -2.831   6.080  -2.943  0.00  0.00    +0.148 HD
ENDROOT
BRANCH   6  20
ATOM     20  C   UNL     1      -1.424   9.348   3.456  0.00  0.00    -0.040 A 
ATOM     21  C   UNL     1      -0.429   8.812   4.252  0.00  0.00    +0.004 A 
ATOM     22  C   UNL     1      -0.448   9.022   5.618  0.00  0.00    +0.000 A 
ATOM     23  C   UNL     1      -1.468   9.758   6.190  0.00  0.00    +0.000 A 
ATOM     24  C   UNL     1      -2.466  10.290   5.395  0.00  0.00    +0.000 A 
ATOM     25  C   UNL     1      -2.445  10.085   4.028  0.00  0.00    +0.004 A 
ENDBRANCH   6  20
BRANCH  10  26
ATOM     26  O   UNL     1       3.317  11.386  -0.142  0.00  0.00    -0.505 OA
ATOM     27  H   UNL     1       3.169  11.946  -0.917  0.00  0.00    +0.292 HD
ENDBRANCH  10  26
BRANCH  16  28
ATOM     28  S   UNL     1      -1.913   3.824  -1.515  0.00  0.00    -0.087 S 
BRANCH  28  29
ATOM     29  C   UNL     1      -1.176   3.222   0.025  0.00  0.00    +0.103 C 
BRANCH  29  30
ATOM     30  C   UNL     1      -1.156   1.715   0.017  0.00  0.00    -0.023 C 
ATOM     31  C   UNL     1      -0.013   1.076   0.008  0.00  0.00    +0.005 C 
ENDBRANCH  29  30
ENDBRANCH  28  29
ENDBRANCH  16  28
TORSDOF 5
