REMARK  Name = ZINC02303065
REMARK  6 active torsions:
REMARK  status: ('A' for Active; 'I' for Inactive)
REMARK    1  A    between atoms: C_1  and  C_2
REMARK    2  A    between atoms: C_2  and  C_3
REMARK    3  A    between atoms: C_3  and  C_4
REMARK    4  A    between atoms: C_4  and  C_5
REMARK    5  A    between atoms: N_15  and  N_16
REMARK    6  A    between atoms: C_17  and  C_19
REMARK                            x       y       z     vdW  Elec       q    Type
REMARK                         _______ _______ _______ _____ _____    ______ ____
ROOT
ATOM      1  N   UNL     1       1.048  -4.752  -1.754  0.00  0.00    -0.214 N 
ATOM      2  C   UNL     1      -0.101  -5.409  -2.008  0.00  0.00    +0.271 C 
ATOM      3  O   UNL     1      -0.730  -5.166  -3.021  0.00  0.00    -0.268 OA
ATOM      4  H   UNL     1       1.510  -4.891  -0.913  0.00  0.00    +0.176 HD
ENDROOT
BRANCH   2   5
ATOM      5  C   UNL     1      -0.594  -6.417  -1.063  0.00  0.00    +0.150 A 
ATOM      6  C   UNL     1       0.061  -6.613   0.184  0.00  0.00    +0.205 A 
ATOM      7  C   UNL     1      -0.479  -7.647   1.088  0.00  0.00    +0.046 A 
ATOM      8  C   UNL     1       0.123  -7.888   2.323  0.00  0.00    +0.014 A 
ATOM      9  C   UNL     1      -0.390  -8.856   3.156  0.00  0.00    +0.001 A 
ATOM     10  C   UNL     1      -1.500  -9.590   2.766  0.00  0.00    +0.006 A 
ATOM     11  C   UNL     1      -2.103  -9.362   1.547  0.00  0.00    -0.023 A 
ATOM     12  C   UNL     1      -1.607  -8.385   0.690  0.00  0.00    +0.059 A 
ATOM     13  N   UNL     1      -2.199  -8.131  -0.533  0.00  0.00    -0.307 N 
ATOM     14  C   UNL     1      -1.709  -7.184  -1.374  0.00  0.00    +0.268 A 
ATOM     15  O   UNL     1      -2.324  -6.987  -2.557  0.00  0.00    -0.267 OA
ATOM     16  C   UNL     1      -3.392  -8.875  -0.956  0.00  0.00    +0.126 C 
ATOM     17  C   UNL     1      -3.355 -10.288  -0.371  0.00  0.00    +0.026 C 
ATOM     18  C   UNL     1      -3.305 -10.184   1.155  0.00  0.00    +0.039 C 
ATOM     19  O   UNL     1       1.036  -5.951   0.495  0.00  0.00    -0.286 OA
ENDBRANCH   2   5
BRANCH   1  30
ATOM     20  C   UNL     1       1.470  -2.528  -2.510  0.00  0.00    +0.131 A 
ATOM     21  N   UNL     1       1.937  -1.647  -3.341  0.00  0.00    -0.232 NA
ATOM     22  C   UNL     1       2.567  -2.012  -4.485  0.00  0.00    +0.078 A 
ATOM     23  C   UNL     1       3.070  -1.064  -5.380  0.00  0.00    +0.028 A 
ATOM     24  C   UNL     1       3.703  -1.480  -6.529  0.00  0.00    +0.002 A 
ATOM     25  C   UNL     1       3.849  -2.832  -6.811  0.00  0.00    +0.001 A 
ATOM     26  C   UNL     1       3.362  -3.786  -5.945  0.00  0.00    +0.015 A 
ATOM     27  C   UNL     1       2.718  -3.386  -4.776  0.00  0.00    +0.066 A 
ATOM     28  C   UNL     1       2.178  -4.358  -3.814  0.00  0.00    +0.279 A 
ATOM     29  O   UNL     1       2.275  -5.556  -4.004  0.00  0.00    -0.265 OA
ATOM     30  N   UNL     1       1.575  -3.869  -2.705  0.00  0.00    -0.209 N 
BRANCH  20  31
ATOM     31  C   UNL     1       0.783  -2.039  -1.261  0.00  0.00    +0.076 C 
BRANCH  31  32
ATOM     32  C   UNL     1       0.779  -0.510  -1.246  0.00  0.00    +0.007 C 
BRANCH  32  34
ATOM     33  C   UNL     1       0.077   1.516   0.036  0.00  0.00    +0.004 C 
ATOM     34  C   UNL     1       0.081  -0.013   0.021  0.00  0.00    -0.003 C 
ENDBRANCH  32  34
ENDBRANCH  31  32
ENDBRANCH  20  31
ENDBRANCH   1  30
TORSDOF 5
