REMARK  Name = ZINC42362454
REMARK  4 active torsions:
REMARK  status: ('A' for Active; 'I' for Inactive)
REMARK    1  A    between atoms: C_1  and  N_2
REMARK    2  A    between atoms: N_2  and  C_3
REMARK    3  A    between atoms: C_3  and  C_4
REMARK    4  A    between atoms: C_13  and  C_16
REMARK                            x       y       z     vdW  Elec       q    Type
REMARK                         _______ _______ _______ _____ _____    ______ ____
ROOT
ATOM      1  C   UNL     1      -0.018   1.461   0.010  0.00  0.00    +0.131 C 
ATOM      2  N   UNL     1       0.002  -0.004   0.002  0.00  0.00    -0.314 N 
ATOM      3  C   UNL     1       0.000  -0.690  -1.201  0.00  0.00    +0.121 A 
ATOM      4  C   UNL     1       0.090   0.020  -2.397  0.00  0.00    +0.044 A 
ATOM      5  C   UNL     1       0.088  -0.662  -3.584  0.00  0.00    +0.016 A 
ATOM      6  C   UNL     1      -0.006  -2.061  -3.553  0.00  0.00    +0.030 A 
ATOM      7  C   UNL     1      -0.093  -2.706  -2.319  0.00  0.00    +0.124 A 
ATOM      8  N   UNL     1      -0.083  -2.013  -1.199  0.00  0.00    -0.240 NA
ENDROOT
BRANCH   6   9
ATOM      9  C   UNL     1      -0.013  -2.840  -4.808  0.00  0.00    +0.096 C 
ATOM     10  N   UNL     1      -0.103  -4.169  -4.766  0.00  0.00    -0.387 N 
ATOM     11  N   UNL     1       0.071  -2.214  -5.981  0.00  0.00    -0.345 N 
ATOM     12  H   UNL     1      -0.164  -4.625  -3.912  0.00  0.00    +0.157 HD
ATOM     13  H   UNL     1       0.136  -1.246  -6.011  0.00  0.00    +0.144 HD
ATOM     14  H   UNL     1       0.066  -2.725  -6.805  0.00  0.00    +0.144 HD
ATOM     15  H   UNL     1      -0.107  -4.680  -5.591  0.00  0.00    +0.157 HD
ENDBRANCH   6   9
BRANCH   2  16
ATOM     16  C   UNL     1       0.024  -0.743   1.267  0.00  0.00    +0.141 C 
BRANCH  16  17
ATOM     17  C   UNL     1      -1.389  -1.016   1.714  0.00  0.00    -0.022 A 
ATOM     18  C   UNL     1      -2.057  -0.112   2.519  0.00  0.00    +0.028 A 
ATOM     19  C   UNL     1      -3.328  -0.389   2.903  0.00  0.00    +0.055 A 
ATOM     20  S   UNL     1      -3.616  -1.966   2.119  0.00  0.00    -0.090 S 
ATOM     21  C   UNL     1      -2.026  -2.148   1.328  0.00  0.00    +0.051 A 
ATOM     22 BR   UNL     1      -4.492   0.632   3.989  0.00  0.00    -0.043 Br
ENDBRANCH  16  17
ENDBRANCH   2  16
TORSDOF 3
