REMARK  Name = ZINC07508447
REMARK  10 active torsions:
REMARK  status: ('A' for Active; 'I' for Inactive)
REMARK    1  A    between atoms: C_1  and  C_2
REMARK    2  A    between atoms: C_2  and  C_3
REMARK    3  A    between atoms: C_7  and  N_9
REMARK    4  A    between atoms: C_10  and  C_12
REMARK    5  A    between atoms: C_12  and  O_13
REMARK    6  A    between atoms: O_13  and  C_14
REMARK    7  A    between atoms: C_14  and  C_16
REMARK    8  A    between atoms: C_16  and  C_17
REMARK    9  A    between atoms: C_17  and  C_19
REMARK   10  A    between atoms: C_17  and  N_26
REMARK                            x       y       z     vdW  Elec       q    Type
REMARK                         _______ _______ _______ _____ _____    ______ ____
ROOT
ATOM      1  C   UNL     1       4.087   1.363   0.787  0.00  0.00    +0.310 C 
ATOM      2  O   UNL     1       4.245   2.516   0.461  0.00  0.00    -0.251 OA
ENDROOT
BRANCH   1   3
ATOM      3  O   UNL     1       2.851   0.898   1.031  0.00  0.00    -0.455 OA
BRANCH   3   4
ATOM      4  C   UNL     1       1.753   1.836   0.882  0.00  0.00    +0.328 C 
BRANCH   4   6
ATOM      5  N   UNL     1      -0.710   1.818   1.116  0.00  0.00    -0.283 N 
ATOM      6  C   UNL     1       0.453   1.141   1.194  0.00  0.00    +0.255 C 
ATOM      7  O   UNL     1       0.452  -0.030   1.510  0.00  0.00    -0.272 OA
ATOM      8  H   UNL     1      -0.704   2.771   0.935  0.00  0.00    +0.155 HD
BRANCH   5  13
ATOM      9  C   UNL     1      -4.192   1.130   2.075  0.00  0.00    -0.046 A 
ATOM     10  C   UNL     1      -4.326  -0.180   1.651  0.00  0.00    +0.004 A 
ATOM     11  C   UNL     1      -3.262  -0.828   1.050  0.00  0.00    +0.002 A 
ATOM     12  C   UNL     1      -2.063  -0.166   0.867  0.00  0.00    +0.023 A 
ATOM     13  C   UNL     1      -1.924   1.147   1.296  0.00  0.00    +0.034 A 
ATOM     14  C   UNL     1      -2.994   1.795   1.898  0.00  0.00    +0.027 A 
BRANCH   9  16
ATOM     15  C   UNL     1      -6.194   2.533   1.659  0.00  0.00    +0.009 C 
ATOM     16  C   UNL     1      -5.354   1.832   2.729  0.00  0.00    +0.032 C 
ENDBRANCH   9  16
ENDBRANCH   5  13
ENDBRANCH   4   6
ENDBRANCH   3   4
ENDBRANCH   1   3
BRANCH   1  17
ATOM     17  C   UNL     1       5.276   0.448   0.921  0.00  0.00    +0.147 C 
BRANCH  17  18
ATOM     18  C   UNL     1       6.555   1.221   0.591  0.00  0.00    +0.115 C 
BRANCH  18  19
ATOM     19  C   UNL     1       7.753   0.342   0.843  0.00  0.00    -0.027 A 
ATOM     20  C   UNL     1       7.646  -0.745   1.690  0.00  0.00    +0.007 A 
ATOM     21  C   UNL     1       8.743  -1.555   1.917  0.00  0.00    +0.020 A 
ATOM     22  C   UNL     1       9.951  -1.271   1.305  0.00  0.00    +0.041 A 
ATOM     23  C   UNL     1      10.058  -0.179   0.462  0.00  0.00    +0.020 A 
ATOM     24  C   UNL     1       8.959   0.626   0.231  0.00  0.00    +0.007 A 
ATOM     25 CL   UNL     1      11.331  -2.283   1.596  0.00  0.00    -0.084 Cl
ENDBRANCH  18  19
BRANCH  18  26
ATOM     26  N   UNL     1       6.532   1.623  -0.818  0.00  0.00    -0.292 N 
ATOM     27  C   UNL     1       6.465   0.687  -1.785  0.00  0.00    +0.298 C 
ATOM     28  O   UNL     1       6.518  -0.493  -1.494  0.00  0.00    -0.253 OA
ATOM     29  N   UNL     1       6.339   1.058  -3.075  0.00  0.00    -0.313 N 
ATOM     30  H   UNL     1       6.565   2.563  -1.054  0.00  0.00    +0.151 HD
ATOM     31  H   UNL     1       6.297   1.998  -3.307  0.00  0.00    +0.146 HD
ATOM     32  H   UNL     1       6.291   0.384  -3.771  0.00  0.00    +0.146 HD
ENDBRANCH  18  26
ENDBRANCH  17  18
ENDBRANCH   1  17
TORSDOF 9
