REMARK  Name = ZINC13341880
REMARK  8 active torsions:
REMARK  status: ('A' for Active; 'I' for Inactive)
REMARK    1  A    between atoms: C_1  and  O_2
REMARK    2  A    between atoms: O_2  and  C_3
REMARK    3  A    between atoms: C_6  and  C_11
REMARK    4  A    between atoms: C_8  and  C_9
REMARK    5  A    between atoms: C_11  and  N_12
REMARK    6  A    between atoms: C_13  and  C_15
REMARK    7  A    between atoms: C_15  and  S_16
REMARK    8  A    between atoms: S_16  and  C_17
REMARK                            x       y       z     vdW  Elec       q    Type
REMARK                         _______ _______ _______ _____ _____    ______ ____
ROOT
ATOM      1  N   UNL     1      -3.012   4.097  -1.329  0.00  0.00    -0.311 N 
ATOM      2  C   UNL     1      -4.178   4.733  -1.560  0.00  0.00    +0.224 C 
ATOM      3  O   UNL     1      -4.861   5.106  -0.630  0.00  0.00    -0.275 OA
ATOM      4  H   UNL     1      -2.466   3.799  -2.073  0.00  0.00    +0.149 HD
ENDROOT
BRANCH   1   5
ATOM      5  C   UNL     1      -2.570   3.856   0.047  0.00  0.00    +0.139 C 
BRANCH   5   9
ATOM      6  C   UNL     1       1.180   1.785   0.000  0.00  0.00    +0.134 A 
ATOM      7  C   UNL     1      -0.013   1.076   0.008  0.00  0.00    +0.047 A 
ATOM      8  C   UNL     1      -1.218   1.749   0.017  0.00  0.00    +0.009 A 
ATOM      9  C   UNL     1      -1.248   3.134   0.031  0.00  0.00    -0.029 A 
ATOM     10  C   UNL     1      -0.073   3.855   0.024  0.00  0.00    +0.024 A 
ATOM     11  C   UNL     1       1.154   3.186   0.008  0.00  0.00    +0.105 A 
BRANCH  11  12
ATOM     12  C   UNL     1       2.414   3.951   0.001  0.00  0.00    +0.390 C 
ATOM     13  O   UNL     1       3.480   3.366  -0.012  0.00  0.00    -0.240 OA
ATOM     14  O   UNL     1       2.385   5.298   0.008  0.00  0.00    -0.240 OA
ENDBRANCH  11  12
BRANCH   6  16
ATOM     15  C   UNL     1       2.312  -0.303  -0.023  0.00  0.00    +0.277 C 
ATOM     16  O   UNL     1       2.365   1.125  -0.015  0.00  0.00    -0.494 OA
ENDBRANCH   6  16
ENDBRANCH   5   9
ENDBRANCH   1   5
BRANCH   2  17
ATOM     17  C   UNL     1      -4.632   4.981  -2.975  0.00  0.00    +0.171 C 
BRANCH  17  18
ATOM     18  S   UNL     1      -6.221   5.848  -2.956  0.00  0.00    -0.096 S 
BRANCH  18  19
ATOM     19  C   UNL     1      -6.506   6.004  -4.687  0.00  0.00    +0.109 A 
ATOM     20  C   UNL     1      -7.680   6.645  -5.171  0.00  0.00    +0.043 A 
ATOM     21  C   UNL     1      -8.781   7.243  -4.399  0.00  0.00    -0.025 A 
ATOM     22  C   UNL     1      -9.785   7.794  -5.099  0.00  0.00    -0.004 A 
ATOM     23  S   UNL     1      -9.345   7.555  -6.806  0.00  0.00    -0.073 S 
ATOM     24  C   UNL     1      -7.803   6.713  -6.571  0.00  0.00    +0.113 A 
ATOM     25  N   UNL     1      -6.880   6.210  -7.369  0.00  0.00    -0.228 NA
ATOM     26  C   UNL     1      -5.811   5.626  -6.864  0.00  0.00    +0.223 A 
ATOM     27  N   UNL     1      -5.628   5.531  -5.559  0.00  0.00    -0.229 NA
ATOM     28  C   UNL     1     -10.848   8.377  -4.207  0.00  0.00    +0.043 C 
ATOM     29  C   UNL     1     -10.169   8.502  -2.826  0.00  0.00    +0.010 C 
ATOM     30  C   UNL     1      -9.090   7.404  -2.907  0.00  0.00    +0.037 C 
ENDBRANCH  18  19
ENDBRANCH  17  18
ENDBRANCH   2  17
TORSDOF 7
