REMARK  Name = ZINC16468613
REMARK  14 active torsions:
REMARK  status: ('A' for Active; 'I' for Inactive)
REMARK    1  A    between atoms: C_1  and  C_2
REMARK    2  A    between atoms: C_2  and  C_3
REMARK    3  A    between atoms: C_3  and  C_4
REMARK    4  A    between atoms: C_4  and  N_5
REMARK    5  A    between atoms: N_5  and  C_6
REMARK    6  A    between atoms: C_7  and  N_22
REMARK    7  A    between atoms: N_8  and  C_15
REMARK    8  A    between atoms: C_15  and  C_16
REMARK    9  A    between atoms: C_23  and  C_25
REMARK   10  A    between atoms: C_26  and  C_27
REMARK   11  A    between atoms: C_29  and  C_33
REMARK   12  A    between atoms: C_30  and  C_32
REMARK   13  A    between atoms: C_33  and  O_35
REMARK   14  A    between atoms: O_35  and  C_36
REMARK                            x       y       z     vdW  Elec       q    Type
REMARK                         _______ _______ _______ _____ _____    ______ ____
ROOT
ATOM      1  N   UNL     1       1.230   3.460   0.050  0.00  0.00    -0.261 N 
ATOM      2  C   UNL     1       2.307   4.268  -0.015  0.00  0.00    +0.244 C 
ATOM      3  O   UNL     1       3.411   3.795  -0.221  0.00  0.00    -0.270 OA
ENDROOT
BRANCH   1   4
ATOM      4  C   UNL     1       1.394   2.060  -0.004  0.00  0.00    +0.140 A 
ATOM      5  C   UNL     1       0.895   1.336  -1.068  0.00  0.00    +0.128 A 
ATOM      6  N   UNL     1       1.071  -0.028  -1.093  0.00  0.00    -0.276 N 
ATOM      7  C   UNL     1       1.721  -0.649  -0.092  0.00  0.00    +0.331 A 
ATOM      8  O   UNL     1       1.866  -1.856  -0.133  0.00  0.00    -0.246 OA
ATOM      9  N   UNL     1       2.213   0.040   0.953  0.00  0.00    -0.273 N 
ATOM     10  H   UNL     1       2.692  -0.446   1.684  0.00  0.00    +0.173 HD
ATOM     11  C   UNL     1       2.068   1.378   1.026  0.00  0.00    +0.277 A 
ATOM     12  O   UNL     1       2.514   1.992   1.980  0.00  0.00    -0.266 OA
BRANCH   5  13
ATOM     13  N   UNL     1       0.232   1.970  -2.091  0.00  0.00    -0.343 N 
ATOM     14  H   UNL     1      -0.052   1.468  -2.870  0.00  0.00    +0.144 HD
ATOM     15  H   UNL     1       0.048   2.921  -2.034  0.00  0.00    +0.144 HD
ENDBRANCH   5  13
BRANCH   6  16
ATOM     16  C   UNL     1       0.547  -0.809  -2.216  0.00  0.00    +0.163 C 
BRANCH  16  17
ATOM     17  C   UNL     1      -0.862  -1.248  -1.909  0.00  0.00    -0.028 A 
ATOM     18  C   UNL     1      -1.087  -2.454  -1.272  0.00  0.00    +0.005 A 
ATOM     19  C   UNL     1      -2.379  -2.853  -0.986  0.00  0.00    +0.000 A 
ATOM     20  C   UNL     1      -3.446  -2.052  -1.346  0.00  0.00    +0.000 A 
ATOM     21  C   UNL     1      -3.221  -0.848  -1.988  0.00  0.00    +0.000 A 
ATOM     22  C   UNL     1      -1.929  -0.446  -2.269  0.00  0.00    +0.005 A 
ENDBRANCH  16  17
ENDBRANCH   6  16
ENDBRANCH   1   4
BRANCH   2  23
ATOM     23  C   UNL     1       2.155   5.665   0.155  0.00  0.00    +0.071 C 
ATOM     24  C   UNL     1       3.238   6.478   0.090  0.00  0.00    +0.051 C 
BRANCH  24  25
ATOM     25  C   UNL     1       3.087   7.877   0.261  0.00  0.00    +0.129 A 
ATOM     26  C   UNL     1       4.093   8.797   0.217  0.00  0.00    +0.064 A 
ATOM     27  C   UNL     1       3.493  10.063   0.437  0.00  0.00    +0.100 A 
ATOM     28  C   UNL     1       2.143   9.833   0.602  0.00  0.00    +0.117 A 
ATOM     29  O   UNL     1       1.923   8.520   0.487  0.00  0.00    -0.460 OA
ATOM     30  C   UNL     1       1.095  10.883   0.862  0.00  0.00    +0.087 C 
BRANCH  27  31
ATOM     31  C   UNL     1       4.177  11.368   0.479  0.00  0.00    +0.342 C 
ATOM     32  O   UNL     1       3.538  12.382   0.677  0.00  0.00    -0.245 OA
BRANCH  31  33
ATOM     33  O   UNL     1       5.510  11.435   0.299  0.00  0.00    -0.464 OA
ATOM     34  C   UNL     1       6.117  12.754   0.354  0.00  0.00    +0.280 C 
ENDBRANCH  31  33
ENDBRANCH  27  31
ENDBRANCH  24  25
ENDBRANCH   2  23
BRANCH   1  35
ATOM     35  C   UNL     1      -0.111   4.036   0.178  0.00  0.00    +0.114 C 
BRANCH  35  36
ATOM     36  C   UNL     1      -0.505   4.088   1.655  0.00  0.00    +0.019 C 
BRANCH  36  38
ATOM     37  C   UNL     1      -2.300   4.742   3.266  0.00  0.00    +0.004 C 
ATOM     38  C   UNL     1      -1.906   4.690   1.788  0.00  0.00    -0.002 C 
ENDBRANCH  36  38
ENDBRANCH  35  36
ENDBRANCH   1  35
TORSDOF 11
