REMARK  Name = ZINC14164839
REMARK  5 active torsions:
REMARK  status: ('A' for Active; 'I' for Inactive)
REMARK    1  A    between atoms: C_1  and  C_2
REMARK    2  A    between atoms: C_7  and  C_15
REMARK    3  A    between atoms: C_18  and  C_21
REMARK    4  A    between atoms: C_21  and  C_22
REMARK    5  A    between atoms: C_21  and  C_23
REMARK                            x       y       z     vdW  Elec       q    Type
REMARK                         _______ _______ _______ _____ _____    ______ ____
ROOT
ATOM      1  C   UNL     1      -7.173   5.951   2.568  0.00  0.00    +0.008 C 
ATOM      2  C   UNL     1      -5.906   5.179   2.942  0.00  0.00    -0.001 C 
ATOM      3  C   UNL     1      -5.185   5.895   4.085  0.00  0.00    +0.055 C 
ATOM      4  C   UNL     1      -3.958   5.109   4.484  0.00  0.00    +0.020 C 
ATOM      5  C   UNL     1      -3.927   3.764   4.366  0.00  0.00    +0.041 C 
ATOM      6  C   UNL     1      -2.716   2.949   4.763  0.00  0.00    +0.175 C 
ATOM      7  N   UNL     1      -1.801   3.767   5.550  0.00  0.00    -0.221 N 
ATOM      8  C   UNL     1      -1.891   5.117   5.634  0.00  0.00    +0.218 A 
ATOM      9  N   UNL     1      -0.925   5.538   6.404  0.00  0.00    -0.201 NA
ATOM     10  C   UNL     1      -0.207   4.495   6.832  0.00  0.00    +0.247 A 
ATOM     11  N   UNL     1      -0.711   3.392   6.333  0.00  0.00    -0.156 NA
ATOM     12  N   UNL     1      -2.888   5.818   4.975  0.00  0.00    -0.287 N 
ATOM     13  C   UNL     1      -5.035   3.058   3.861  0.00  0.00    +0.163 C 
ATOM     14  O   UNL     1      -4.982   1.847   3.784  0.00  0.00    -0.292 OA
ATOM     15  C   UNL     1      -6.281   3.771   3.415  0.00  0.00    +0.083 C 
ATOM     16  H   UNL     1      -2.832   6.779   4.862  0.00  0.00    +0.155 HD
ENDROOT
BRANCH   6  17
ATOM     17  C   UNL     1      -2.011   2.463   3.523  0.00  0.00    -0.018 A 
ATOM     18  C   UNL     1      -1.869   1.107   3.295  0.00  0.00    +0.006 A 
ATOM     19  C   UNL     1      -1.222   0.662   2.158  0.00  0.00    +0.004 A 
ATOM     20  C   UNL     1      -0.718   1.572   1.248  0.00  0.00    -0.045 A 
ATOM     21  C   UNL     1      -0.856   2.928   1.478  0.00  0.00    +0.004 A 
ATOM     22  C   UNL     1      -1.507   3.374   2.613  0.00  0.00    +0.006 A 
BRANCH  20  23
ATOM     23  C   UNL     1      -0.013   1.086   0.008  0.00  0.00    +0.013 C 
ATOM     24  C   UNL     1       1.423   1.615  -0.003  0.00  0.00    +0.012 C 
ATOM     25  C   UNL     1      -0.753   1.593  -1.232  0.00  0.00    +0.012 C 
ENDBRANCH  20  23
ENDBRANCH   6  17
TORSDOF 2
