REMARK  Name = ZINC03544855
REMARK  5 active torsions:
REMARK  status: ('A' for Active; 'I' for Inactive)
REMARK    1  A    between atoms: C_1  and  C_2
REMARK    2  A    between atoms: C_2  and  C_4
REMARK    3  A    between atoms: C_2  and  S_15
REMARK    4  A    between atoms: S_15  and  C_16
REMARK    5  A    between atoms: N_29  and  C_30
REMARK                            x       y       z     vdW  Elec       q    Type
REMARK                         _______ _______ _______ _____ _____    ______ ____
ROOT
ATOM      1  C   UNL     1      -0.008   1.366   0.008  0.00  0.00    +0.173 A 
ATOM      2  N   UNL     1       1.112   2.061   0.022  0.00  0.00    -0.216 NA
ATOM      3  C   UNL     1       2.291   1.451   0.018  0.00  0.00    +0.117 A 
ATOM      4  C   UNL     1       2.408   0.051  -0.001  0.00  0.00    +0.076 A 
ATOM      5  C   UNL     1       3.774  -0.476  -0.004  0.00  0.00    -0.023 A 
ATOM      6  C   UNL     1       4.778   0.424   0.012  0.00  0.00    -0.004 A 
ATOM      7  S   UNL     1       3.977   2.005   0.031  0.00  0.00    -0.073 S 
ATOM      8  C   UNL     1       6.249   0.143   0.013  0.00  0.00    +0.043 C 
ATOM      9  C   UNL     1       6.460  -1.336   0.369  0.00  0.00    +0.005 C 
ATOM     10  C   UNL     1       5.513  -2.185  -0.484  0.00  0.00    +0.005 C 
ATOM     11  C   UNL     1       4.070  -1.974  -0.025  0.00  0.00    +0.037 C 
ATOM     12  C   UNL     1       1.177  -0.678  -0.016  0.00  0.00    +0.263 A 
ATOM     13  O   UNL     1       1.180  -1.897  -0.034  0.00  0.00    -0.267 OA
ATOM     14  N   UNL     1       0.015   0.001  -0.011  0.00  0.00    -0.290 N 
ATOM     15  C   UNL     1      -1.250  -0.738  -0.026  0.00  0.00    +0.154 C 
ENDROOT
BRANCH   1  16
ATOM     16  S   UNL     1      -1.554   2.210   0.006  0.00  0.00    -0.075 S 
BRANCH  16  18
ATOM     17  C   UNL     1      -0.248   4.195   1.353  0.00  0.00    +0.029 C 
ATOM     18  C   UNL     1      -0.977   3.925   0.036  0.00  0.00    +0.137 C 
BRANCH  18  19
ATOM     19  C   UNL     1      -2.157   4.854  -0.085  0.00  0.00    +0.233 C 
ATOM     20  O   UNL     1      -3.270   4.460   0.191  0.00  0.00    -0.274 OA
ATOM     21  N   UNL     1      -1.976   6.124  -0.500  0.00  0.00    -0.270 N 
ATOM     22  C   UNL     1      -0.702   6.682  -0.961  0.00  0.00    +0.118 C 
ATOM     23  C   UNL     1      -1.010   8.145  -1.323  0.00  0.00    +0.056 C 
ATOM     24  C   UNL     1      -2.482   8.309  -1.020  0.00  0.00    -0.024 A 
ATOM     25  C   UNL     1      -2.974   7.102  -0.549  0.00  0.00    +0.040 A 
ATOM     26  C   UNL     1      -4.322   7.009  -0.199  0.00  0.00    +0.024 A 
ATOM     27  C   UNL     1      -5.150   8.104  -0.324  0.00  0.00    +0.002 A 
ATOM     28  C   UNL     1      -4.650   9.304  -0.794  0.00  0.00    +0.000 A 
ATOM     29  C   UNL     1      -3.315   9.405  -1.142  0.00  0.00    +0.005 A 
ENDBRANCH  18  19
ENDBRANCH  16  18
ENDBRANCH   1  16
TORSDOF 3
