REMARK  Name = ZINC38821594
REMARK  3 active torsions:
REMARK  status: ('A' for Active; 'I' for Inactive)
REMARK    1  A    between atoms: C_9  and  O_28
REMARK    2  A    between atoms: C_10  and  C_11
REMARK    3  A    between atoms: N_12  and  N_13
REMARK                            x       y       z     vdW  Elec       q    Type
REMARK                         _______ _______ _______ _____ _____    ______ ____
ROOT
ATOM      1  N   UNL     1       7.321   0.147  -0.067  0.00  0.00    -0.206 N 
ATOM      2  C   UNL     1       8.518  -0.540  -0.081  0.00  0.00    +0.227 C 
ATOM      3  N   UNL     1       8.477  -1.851  -0.092  0.00  0.00    -0.220 NA
ATOM      4  C   UNL     1       9.746  -2.570  -0.188  0.00  0.00    +0.253 C 
ATOM      5  C   UNL     1      10.797  -1.669   0.445  0.00  0.00    +0.115 C 
ATOM      6  C   UNL     1      11.483  -2.462   1.313  0.00  0.00    +0.025 A 
ATOM      7  C   UNL     1      12.633  -2.230   2.107  0.00  0.00    +0.012 A 
ATOM      8  C   UNL     1      13.065  -3.251   2.896  0.00  0.00    +0.001 A 
ATOM      9  C   UNL     1      12.448  -4.503   2.968  0.00  0.00    +0.002 A 
ATOM     10  C   UNL     1      11.345  -4.838   2.247  0.00  0.00    +0.026 A 
ATOM     11  C   UNL     1      10.809  -3.796   1.357  0.00  0.00    +0.046 A 
ATOM     12  N   UNL     1       9.796  -3.826   0.546  0.00  0.00    -0.358 N 
ATOM     13  N   UNL     1      10.815  -0.353   0.208  0.00  0.00    -0.171 NA
ATOM     14  N   UNL     1       9.666   0.178  -0.089  0.00  0.00    -0.247 N 
ATOM     15  H   UNL     1       7.319   1.117  -0.062  0.00  0.00    +0.177 HD
ATOM     16  H   UNL     1       9.629   1.120  -0.320  0.00  0.00    +0.192 HD
ATOM     17  H   UNL     1       9.175  -4.564   0.445  0.00  0.00    +0.162 HD
ENDROOT
BRANCH   1  19
ATOM     18  C   UNL     1       4.982   0.092  -0.045  0.00  0.00    +0.142 C 
ATOM     19  N   UNL     1       6.110  -0.556  -0.059  0.00  0.00    -0.187 NA
BRANCH  18  29
ATOM     20  C   UNL     1      -0.016   1.357   0.009  0.00  0.00    +0.001 A 
ATOM     21  C   UNL     1       1.167   2.091   0.002  0.00  0.00    +0.001 A 
ATOM     22  C   UNL     1       2.379   1.466  -0.013  0.00  0.00    +0.009 A 
ATOM     23  C   UNL     1       2.435   0.067  -0.021  0.00  0.00    -0.006 A 
ATOM     24  C   UNL     1       1.233  -0.683  -0.013  0.00  0.00    -0.017 A 
ATOM     25  C   UNL     1       0.002  -0.004   0.002  0.00  0.00    +0.008 A 
ATOM     26  C   UNL     1       1.291  -2.087  -0.021  0.00  0.00    +0.012 A 
ATOM     27  C   UNL     1       2.487  -2.733  -0.035  0.00  0.00    +0.046 A 
ATOM     28  C   UNL     1       3.696  -2.041  -0.043  0.00  0.00    +0.126 A 
ATOM     29  C   UNL     1       3.711  -0.645  -0.036  0.00  0.00    +0.044 A 
BRANCH  28  30
ATOM     30  O   UNL     1       4.868  -2.728  -0.057  0.00  0.00    -0.506 OA
ATOM     31  H   UNL     1       5.199  -2.922  -0.945  0.00  0.00    +0.292 HD
ENDBRANCH  28  30
ENDBRANCH  18  29
ENDBRANCH   1  19
TORSDOF 3
