REMARK  Name = ZINC38984474
REMARK  7 active torsions:
REMARK  status: ('A' for Active; 'I' for Inactive)
REMARK    1  A    between atoms: C_1  and  C_2
REMARK    2  A    between atoms: C_5  and  O_33
REMARK    3  A    between atoms: C_6  and  N_8
REMARK    4  A    between atoms: N_8  and  C_9
REMARK    5  A    between atoms: N_12  and  S_13
REMARK    6  A    between atoms: S_13  and  C_16
REMARK    7  A    between atoms: O_33  and  C_34
REMARK                            x       y       z     vdW  Elec       q    Type
REMARK                         _______ _______ _______ _____ _____    ______ ____
ROOT
ATOM      1  C   UNL     1       0.159  -2.072   3.668  0.00  0.00    +0.237 C 
ATOM      2  C   UNL     1      -0.836  -2.681   4.630  0.00  0.00    +0.192 C 
ATOM      3  N   UNL     1      -2.102  -2.717   4.335  0.00  0.00    -0.110 NA
ATOM      4  N   UNL     1      -0.393  -3.183   5.794  0.00  0.00    -0.226 NA
ATOM      5  C   UNL     1       0.883  -3.159   6.115  0.00  0.00    +0.089 A 
ATOM      6  C   UNL     1       1.315  -3.699   7.353  0.00  0.00    +0.030 A 
ATOM      7  C   UNL     1       2.624  -3.676   7.688  0.00  0.00    +0.002 A 
ATOM      8  C   UNL     1       3.613  -3.129   6.854  0.00  0.00    +0.002 A 
ATOM      9  C   UNL     1       3.309  -2.588   5.653  0.00  0.00    +0.027 A 
ATOM     10  C   UNL     1       1.906  -2.575   5.214  0.00  0.00    +0.063 A 
ATOM     11  N   UNL     1       1.576  -2.062   4.062  0.00  0.00    -0.359 N 
ATOM     12  H   UNL     1       2.251  -1.683   3.477  0.00  0.00    +0.162 HD
ENDROOT
BRANCH   3  13
ATOM     13  S   UNL     1      -3.181  -3.387   5.397  0.00  0.00    +0.103 S 
ATOM     14  O   UNL     1      -2.876  -4.773   5.467  0.00  0.00    -0.146 OA
ATOM     15  O   UNL     1      -3.192  -2.551   6.546  0.00  0.00    -0.146 OA
BRANCH  13  16
ATOM     16  C   UNL     1      -4.779  -3.259   4.667  0.00  0.00    +0.141 A 
ATOM     17  C   UNL     1      -5.459  -4.380   4.327  0.00  0.00    +0.031 A 
ATOM     18  C   UNL     1      -6.726  -4.317   3.748  0.00  0.00    +0.004 A 
ATOM     19  C   UNL     1      -7.331  -3.132   3.498  0.00  0.00    +0.031 A 
ATOM     20  C   UNL     1      -6.678  -1.914   3.828  0.00  0.00    +0.102 A 
ATOM     21  C   UNL     1      -5.356  -1.980   4.440  0.00  0.00    +0.127 A 
ATOM     22  N   UNL     1      -4.842  -0.779   4.710  0.00  0.00    -0.189 NA
ATOM     23  S   UNL     1      -5.951   0.285   4.232  0.00  0.00    +0.117 S 
ATOM     24  N   UNL     1      -7.115  -0.665   3.658  0.00  0.00    -0.191 NA
ENDBRANCH  13  16
ENDBRANCH   3  13
BRANCH   1  25
ATOM     25  N   UNL     1       0.052  -2.794   2.398  0.00  0.00    -0.315 N 
ATOM     26  H   UNL     1       0.097  -3.763   2.386  0.00  0.00    +0.149 HD
BRANCH  25  32
ATOM     27  C   UNL     1      -0.146   1.502   0.016  0.00  0.00    +0.044 C 
ATOM     28  C   UNL     1      -0.216  -0.003   0.018  0.00  0.00    -0.048 A 
ATOM     29  C   UNL     1      -0.446  -0.684  -1.164  0.00  0.00    +0.007 A 
ATOM     30  C   UNL     1      -0.510  -2.065  -1.169  0.00  0.00    +0.048 A 
ATOM     31  C   UNL     1      -0.346  -2.771   0.011  0.00  0.00    +0.141 A 
ATOM     32  C   UNL     1      -0.115  -2.086   1.202  0.00  0.00    +0.071 A 
ATOM     33  C   UNL     1      -0.046  -0.700   1.199  0.00  0.00    +0.030 A 
BRANCH  31  34
ATOM     34  O   UNL     1      -0.410  -4.130   0.008  0.00  0.00    -0.493 OA
ATOM     35  C   UNL     1      -0.650  -4.764  -1.250  0.00  0.00    +0.277 C 
ENDBRANCH  31  34
ENDBRANCH  25  32
ENDBRANCH   1  25
TORSDOF 5
