REMARK  Name = ZINC01305795
REMARK  12 active torsions:
REMARK  status: ('A' for Active; 'I' for Inactive)
REMARK    1  A    between atoms: C_1  and  C_2
REMARK    2  A    between atoms: C_2  and  C_3
REMARK    3  A    between atoms: C_3  and  N_4
REMARK    4  A    between atoms: C_11  and  C_23
REMARK    5  A    between atoms: C_13  and  C_19
REMARK    6  A    between atoms: C_13  and  C_21
REMARK    7  A    between atoms: C_14  and  N_18
REMARK    8  A    between atoms: C_15  and  C_16
REMARK    9  A    between atoms: C_25  and  O_31
REMARK   10  A    between atoms: C_28  and  O_29
REMARK   11  A    between atoms: O_29  and  C_30
REMARK   12  A    between atoms: O_31  and  C_32
REMARK                            x       y       z     vdW  Elec       q    Type
REMARK                         _______ _______ _______ _____ _____    ______ ____
ROOT
ATOM      1  N   UNL     1      -1.520  -2.038  -0.122  0.00  0.00    -0.298 NA
ATOM      2  C   UNL     1      -1.005  -2.586  -1.389  0.00  0.00    +0.112 C 
ATOM      3  C   UNL     1      -0.812  -4.071  -1.198  0.00  0.00    -0.007 C 
ATOM      4  C   UNL     1      -1.624  -4.744  -0.405  0.00  0.00    -0.026 C 
ATOM      5  C   UNL     1      -2.793  -4.112   0.295  0.00  0.00    +0.044 C 
ATOM      6  C   UNL     1      -2.837  -2.606   0.177  0.00  0.00    +0.093 C 
ATOM      7  C   UNL     1      -2.782  -4.576   1.752  0.00  0.00    +0.071 C 
ATOM      8  C   UNL     1      -2.977  -6.092   1.790  0.00  0.00    +0.188 C 
ATOM      9  C   UNL     1      -2.032  -6.799   0.868  0.00  0.00    +0.054 C 
ATOM     10  C   UNL     1      -1.400  -6.192  -0.169  0.00  0.00    +0.074 C 
ENDROOT
BRANCH   7  11
ATOM     11  C   UNL     1      -3.899  -3.901   2.505  0.00  0.00    +0.004 A 
ATOM     12  C   UNL     1      -5.190  -3.949   2.016  0.00  0.00    +0.053 A 
ATOM     13  C   UNL     1      -6.218  -3.329   2.709  0.00  0.00    +0.121 A 
ATOM     14  C   UNL     1      -5.951  -2.660   3.894  0.00  0.00    +0.049 A 
ATOM     15  C   UNL     1      -4.660  -2.611   4.384  0.00  0.00    +0.049 A 
ATOM     16  C   UNL     1      -3.633  -3.237   3.693  0.00  0.00    +0.124 A 
BRANCH  16  17
ATOM     17  O   UNL     1      -2.363  -3.194   4.178  0.00  0.00    -0.495 OA
ATOM     18  C   UNL     1      -2.161  -2.492   5.406  0.00  0.00    +0.277 C 
ENDBRANCH  16  17
BRANCH  13  19
ATOM     19  O   UNL     1      -7.489  -3.376   2.227  0.00  0.00    -0.495 OA
ATOM     20  C   UNL     1      -8.499  -2.715   2.993  0.00  0.00    +0.277 C 
ENDBRANCH  13  19
ENDBRANCH   7  11
BRANCH   9  21
ATOM     21  N   UNL     1      -1.792  -8.128   1.082  0.00  0.00    -0.358 N 
ATOM     22  H   UNL     1      -2.230  -8.587   1.816  0.00  0.00    +0.142 HD
ATOM     23  H   UNL     1      -1.185  -8.611   0.500  0.00  0.00    +0.142 HD
ENDBRANCH   9  21
BRANCH  10  24
ATOM     24  C   UNL     1      -0.528  -6.940  -1.025  0.00  0.00    +0.101 C 
ATOM     25  N   UNL     1       0.163  -7.532  -1.704  0.00  0.00    -0.191 NA
ENDBRANCH  10  24
BRANCH   8  26
ATOM     26  C   UNL     1      -4.360  -6.407   1.394  0.00  0.00    +0.091 C 
ATOM     27  N   UNL     1      -5.426  -6.650   1.089  0.00  0.00    -0.194 NA
ENDBRANCH   8  26
BRANCH   8  28
ATOM     28  C   UNL     1      -2.754  -6.569   3.165  0.00  0.00    +0.091 C 
ATOM     29  N   UNL     1      -2.581  -6.938   4.225  0.00  0.00    -0.194 NA
ENDBRANCH   8  28
BRANCH   1  30
ATOM     30  C   UNL     1      -1.578  -0.570  -0.169  0.00  0.00    +0.084 C 
BRANCH  30  32
ATOM     31  C   UNL     1      -0.217   1.522  -0.281  0.00  0.00    +0.005 C 
ATOM     32  C   UNL     1      -0.157  -0.006  -0.233  0.00  0.00    +0.012 C 
ENDBRANCH  30  32
ENDBRANCH   1  30
TORSDOF 9
