REMARK  Name = ZINC35641315
REMARK  12 active torsions:
REMARK  status: ('A' for Active; 'I' for Inactive)
REMARK    1  A    between atoms: C_1  and  C_2
REMARK    2  A    between atoms: C_2  and  N_3
REMARK    3  A    between atoms: C_4  and  C_24
REMARK    4  A    between atoms: C_5  and  C_19
REMARK    5  A    between atoms: C_6  and  C_11
REMARK    6  A    between atoms: C_19  and  O_21
REMARK    7  A    between atoms: O_21  and  C_22
REMARK    8  A    between atoms: C_22  and  C_23
REMARK    9  A    between atoms: C_24  and  N_25
REMARK   10  A    between atoms: N_25  and  C_26
REMARK   11  A    between atoms: N_25  and  C_27
REMARK   12  A    between atoms: C_27  and  C_28
REMARK                            x       y       z     vdW  Elec       q    Type
REMARK                         _______ _______ _______ _____ _____    ______ ____
ROOT
ATOM      1  N   UNL     1       0.413  -0.480   1.206  0.00  0.00    -0.261 N 
ATOM      2  C   UNL     1       1.774  -0.564   1.281  0.00  0.00    +0.010 C 
ATOM      3  C   UNL     1       2.387  -0.950   2.421  0.00  0.00    +0.077 C 
ATOM      4  C   UNL     1       1.514  -1.285   3.612  0.00  0.00    +0.145 C 
ATOM      5  N   UNL     1       0.058  -1.162   3.428  0.00  0.00    -0.288 N 
ATOM      6  C   UNL     1      -0.405  -0.759   2.228  0.00  0.00    +0.307 C 
ATOM      7  O   UNL     1      -1.605  -0.650   2.067  0.00  0.00    -0.252 OA
ATOM      8  H   UNL     1      -0.553  -1.363   4.154  0.00  0.00    +0.151 HD
ENDROOT
BRANCH   4   9
ATOM      9  C   UNL     1       1.915  -0.384   4.751  0.00  0.00    -0.004 A 
ATOM     10  C   UNL     1       1.269   0.824   4.937  0.00  0.00    +0.008 A 
ATOM     11  C   UNL     1       1.637   1.652   5.981  0.00  0.00    +0.020 A 
ATOM     12  C   UNL     1       2.651   1.271   6.841  0.00  0.00    +0.042 A 
ATOM     13  C   UNL     1       3.298   0.062   6.656  0.00  0.00    +0.040 A 
ATOM     14  C   UNL     1       2.926  -0.768   5.614  0.00  0.00    +0.048 A 
ATOM     15 CL   UNL     1       3.732  -2.288   5.385  0.00  0.00    -0.083 Cl
ATOM     16 CL   UNL     1       3.114   2.311   8.152  0.00  0.00    -0.083 Cl
ENDBRANCH   4   9
BRANCH   1  18
ATOM     17  C   UNL     1      -0.450   1.452  -0.020  0.00  0.00    +0.025 C 
ATOM     18  C   UNL     1      -0.184  -0.054  -0.062  0.00  0.00    +0.111 C 
ENDBRANCH   1  18
BRANCH   3  19
ATOM     19  C   UNL     1       3.797  -1.039   2.499  0.00  0.00    +0.339 C 
ATOM     20  O   UNL     1       4.346  -2.119   2.386  0.00  0.00    -0.245 OA
BRANCH  19  21
ATOM     21  O   UNL     1       4.533   0.075   2.700  0.00  0.00    -0.462 OA
BRANCH  21  22
ATOM     22  C   UNL     1       5.954  -0.071   2.657  0.00  0.00    +0.229 C 
ATOM     23  C   UNL     1       6.614   1.260   3.024  0.00  0.00    +0.048 C 
ENDBRANCH  21  22
ENDBRANCH  19  21
ENDBRANCH   3  19
BRANCH   2  24
ATOM     24  C   UNL     1       2.606  -0.221   0.071  0.00  0.00    -0.027 C 
BRANCH  24  25
ATOM     25  N   UNL     1       2.523  -1.315  -0.905  0.00  0.00    +0.381 N 
ATOM     26  C   UNL     1       3.168  -2.514  -0.354  0.00  0.00    -0.096 C 
ATOM     27  H   UNL     1       1.555  -1.516  -1.105  0.00  0.00    -0.082 HD
BRANCH  25  28
ATOM     28  C   UNL     1       3.207  -0.918  -2.144  0.00  0.00    -0.082 C 
ATOM     29  C   UNL     1       3.014  -2.005  -3.204  0.00  0.00    -0.017 C 
ENDBRANCH  25  28
ENDBRANCH  24  25
ENDBRANCH   2  24
TORSDOF 8
