REMARK  Name = ZINC12649409
REMARK  13 active torsions:
REMARK  status: ('A' for Active; 'I' for Inactive)
REMARK    1  A    between atoms: C_1  and  C_2
REMARK    2  A    between atoms: C_2  and  C_3
REMARK    3  A    between atoms: C_2  and  O_4
REMARK    4  A    between atoms: O_4  and  C_5
REMARK    5  A    between atoms: C_10  and  C_11
REMARK    6  A    between atoms: N_12  and  N_13
REMARK    7  A    between atoms: N_13  and  C_14
REMARK    8  A    between atoms: C_17  and  S_23
REMARK    9  A    between atoms: C_19  and  N_20
REMARK   10  A    between atoms: S_23  and  N_26
REMARK   11  A    between atoms: N_26  and  C_27
REMARK   12  A    between atoms: C_32  and  O_33
REMARK   13  A    between atoms: O_33  and  C_34
REMARK                            x       y       z     vdW  Elec       q    Type
REMARK                         _______ _______ _______ _____ _____    ______ ____
ROOT
ATOM      1  C   UNL     1       0.437   3.552   3.526  0.00  0.00    +0.079 A 
ATOM      2  C   UNL     1      -0.052   4.091   2.342  0.00  0.00    +0.029 A 
ATOM      3  C   UNL     1      -0.400   3.259   1.298  0.00  0.00    +0.031 A 
ATOM      4  C   UNL     1      -0.273   1.888   1.432  0.00  0.00    +0.111 A 
ATOM      5  C   UNL     1       0.213   1.347   2.608  0.00  0.00    +0.063 A 
ATOM      6  C   UNL     1       0.569   2.174   3.655  0.00  0.00    +0.150 A 
ENDROOT
BRANCH   6   7
ATOM      7  N   UNL     1       1.089   1.594   4.915  0.00  0.00    +0.058 N 
ATOM      8  O   UNL     1       1.315   0.400   4.987  0.00  0.00    -0.126 OA
ATOM      9  O   UNL     1       1.291   2.312   5.878  0.00  0.00    -0.126 OA
ENDBRANCH   6   7
BRANCH   4  10
ATOM     10  S   UNL     1      -0.725   0.828   0.099  0.00  0.00    +0.073 S 
ATOM     11  O   UNL     1       0.005  -0.378   0.273  0.00  0.00    -0.150 OA
ATOM     12  O   UNL     1      -0.638   1.607  -1.086  0.00  0.00    -0.150 OA
BRANCH  10  13
ATOM     13  N   UNL     1      -2.324   0.447   0.298  0.00  0.00    -0.213 N 
ATOM     14  H   UNL     1      -2.592  -0.479   0.412  0.00  0.00    +0.174 HD
BRANCH  13  15
ATOM     15  C   UNL     1      -3.291   1.459   0.295  0.00  0.00    +0.090 A 
ATOM     16  C   UNL     1      -3.141   2.562  -0.533  0.00  0.00    +0.028 A 
ATOM     17  C   UNL     1      -4.099   3.558  -0.538  0.00  0.00    +0.002 A 
ATOM     18  C   UNL     1      -5.203   3.463   0.289  0.00  0.00    +0.004 A 
ATOM     19  C   UNL     1      -5.357   2.369   1.121  0.00  0.00    +0.047 A 
ATOM     20  C   UNL     1      -4.404   1.365   1.128  0.00  0.00    +0.142 A 
BRANCH  20  21
ATOM     21  O   UNL     1      -4.553   0.288   1.946  0.00  0.00    -0.493 OA
ATOM     22  C   UNL     1      -5.718   0.259   2.773  0.00  0.00    +0.277 C 
ENDBRANCH  20  21
ENDBRANCH  13  15
ENDBRANCH  10  13
ENDBRANCH   4  10
BRANCH   1  23
ATOM     23  N   UNL     1       0.796   4.391   4.582  0.00  0.00    -0.236 N 
ATOM     24  H   UNL     1       1.063   4.011   5.433  0.00  0.00    +0.174 HD
BRANCH  23  26
ATOM     25  C   UNL     1       1.103   6.562   5.394  0.00  0.00    +0.141 C 
ATOM     26  N   UNL     1       0.770   5.781   4.411  0.00  0.00    -0.190 NA
BRANCH  25  32
ATOM     27  C   UNL     1       0.690   8.577   3.986  0.00  0.00    +0.129 A 
ATOM     28  C   UNL     1       0.667   9.952   3.828  0.00  0.00    +0.046 A 
ATOM     29  C   UNL     1       1.023  10.777   4.879  0.00  0.00    +0.004 A 
ATOM     30  C   UNL     1       1.405  10.236   6.095  0.00  0.00    +0.001 A 
ATOM     31  C   UNL     1       1.428   8.868   6.270  0.00  0.00    +0.013 A 
ATOM     32  C   UNL     1       1.076   8.024   5.215  0.00  0.00    +0.036 A 
BRANCH  27  33
ATOM     33  O   UNL     1       0.341   7.766   2.953  0.00  0.00    -0.489 OA
BRANCH  33  35
ATOM     34  C   UNL     1       1.165   8.782   0.922  0.00  0.00    +0.051 C 
ATOM     35  C   UNL     1      -0.070   8.400   1.740  0.00  0.00    +0.167 C 
ATOM     36  C   UNL     1      -0.941   7.438   0.930  0.00  0.00    +0.051 C 
ENDBRANCH  33  35
ENDBRANCH  27  33
ENDBRANCH  25  32
ENDBRANCH  23  26
ENDBRANCH   1  23
TORSDOF 10
