REMARK  Name = ZINC05173381
REMARK  6 active torsions:
REMARK  status: ('A' for Active; 'I' for Inactive)
REMARK    1  A    between atoms: C_1  and  C_2
REMARK    2  A    between atoms: C_4  and  C_32
REMARK    3  A    between atoms: C_4  and  C_33
REMARK    4  A    between atoms: C_7  and  C_13
REMARK    5  A    between atoms: N_11  and  C_12
REMARK    6  A    between atoms: C_24  and  C_26
REMARK                            x       y       z     vdW  Elec       q    Type
REMARK                         _______ _______ _______ _____ _____    ______ ____
ROOT
ATOM      1  C   UNL     1       2.353   1.464  -0.677  0.00  0.00    +0.142 C 
ATOM      2  C   UNL     1       2.433  -0.003  -0.338  0.00  0.00    -0.015 A 
ATOM      3  C   UNL     1       3.644  -0.659  -0.327  0.00  0.00    +0.006 A 
ATOM      4  C   UNL     1       3.697  -2.008  -0.017  0.00  0.00    +0.000 A 
ATOM      5  C   UNL     1       2.539  -2.703   0.282  0.00  0.00    +0.001 A 
ATOM      6  C   UNL     1       1.319  -2.057   0.276  0.00  0.00    +0.008 A 
ATOM      7  C   UNL     1       1.260  -0.699  -0.035  0.00  0.00    -0.019 A 
ATOM      8  C   UNL     1      -0.030   0.019  -0.047  0.00  0.00    +0.023 C 
ATOM      9  C   UNL     1      -0.028   1.359  -0.033  0.00  0.00    +0.080 C 
ATOM     10  N   UNL     1       1.181   2.040  -0.007  0.00  0.00    -0.262 N 
ATOM     11  C   UNL     1       1.278   3.224   0.630  0.00  0.00    +0.251 C 
ATOM     12  O   UNL     1       2.353   3.787   0.707  0.00  0.00    -0.270 OA
ENDROOT
BRANCH   1  18
ATOM     13  C   UNL     1       3.825   3.008  -7.809  0.00  0.00    +0.029 C 
ATOM     14  C   UNL     1       3.481   2.040  -6.675  0.00  0.00    +0.080 C 
ATOM     15  C   UNL     1       4.211   2.440  -5.372  0.00  0.00    +0.010 C 
ATOM     16  C   UNL     1       3.193   2.107  -4.300  0.00  0.00    -0.019 A 
ATOM     17  C   UNL     1       3.319   1.955  -2.934  0.00  0.00    +0.011 A 
ATOM     18  C   UNL     1       2.214   1.631  -2.168  0.00  0.00    -0.022 A 
ATOM     19  C   UNL     1       0.983   1.455  -2.774  0.00  0.00    +0.007 A 
ATOM     20  C   UNL     1       0.851   1.615  -4.137  0.00  0.00    +0.024 A 
ATOM     21  C   UNL     1       1.959   1.944  -4.916  0.00  0.00    +0.034 A 
ATOM     22  N   UNL     1       2.056   2.160  -6.296  0.00  0.00    -0.329 N 
ATOM     23  C   UNL     1       1.231   1.198  -7.039  0.00  0.00    +0.129 C 
ATOM     24  C   UNL     1       4.533   3.936  -5.369  0.00  0.00    +0.018 C 
ATOM     25  C   UNL     1       5.483   1.610  -5.188  0.00  0.00    +0.018 C 
ENDBRANCH   1  18
BRANCH  11  26
ATOM     26  C   UNL     1       0.078   3.838   1.236  0.00  0.00    +0.037 A 
ATOM     27  C   UNL     1      -0.078   5.226   1.231  0.00  0.00    +0.013 A 
ATOM     28  C   UNL     1      -1.204   5.792   1.792  0.00  0.00    +0.001 A 
ATOM     29  C   UNL     1      -2.171   4.989   2.370  0.00  0.00    +0.000 A 
ATOM     30  C   UNL     1      -2.020   3.614   2.384  0.00  0.00    +0.001 A 
ATOM     31  C   UNL     1      -0.902   3.034   1.820  0.00  0.00    +0.013 A 
ENDBRANCH  11  26
TORSDOF 2
