REMARK  Name = ZINC55104784
REMARK  8 active torsions:
REMARK  status: ('A' for Active; 'I' for Inactive)
REMARK    1  A    between atoms: C_1  and  N_2
REMARK    2  A    between atoms: C_9  and  C_12
REMARK    3  A    between atoms: C_9  and  O_35
REMARK    4  A    between atoms: C_12  and  C_13
REMARK    5  A    between atoms: C_13  and  C_15
REMARK    6  A    between atoms: C_18  and  N_21
REMARK    7  A    between atoms: N_21  and  S_22
REMARK    8  A    between atoms: S_22  and  C_25
REMARK                            x       y       z     vdW  Elec       q    Type
REMARK                         _______ _______ _______ _____ _____    ______ ____
ROOT
ATOM      1  C   UNL     1       3.454  -3.549  -2.374  0.00  0.00    +0.018 A 
ATOM      2  C   UNL     1       2.753  -4.103  -3.453  0.00  0.00    +0.013 A 
ATOM      3  C   UNL     1       3.436  -4.679  -4.485  0.00  0.00    +0.027 A 
ATOM      4  C   UNL     1       4.829  -4.717  -4.466  0.00  0.00    +0.074 A 
ATOM      5  C   UNL     1       5.530  -4.168  -3.395  0.00  0.00    +0.027 A 
ATOM      6  C   UNL     1       4.854  -3.585  -2.361  0.00  0.00    +0.013 A 
ENDROOT
BRANCH   1   7
ATOM      7  C   UNL     1       2.724  -2.928  -1.263  0.00  0.00    +0.167 C 
ATOM      8  O   UNL     1       3.332  -2.444  -0.332  0.00  0.00    -0.292 OA
BRANCH   7   9
ATOM      9  C   UNL     1       1.217  -2.890  -1.279  0.00  0.00    +0.129 C 
BRANCH   9  18
ATOM     10  C   UNL     1      -0.018   1.461   0.010  0.00  0.00    +0.138 C 
ATOM     11  N   UNL     1       0.002  -0.004   0.002  0.00  0.00    -0.271 N 
ATOM     12  C   UNL     1      -1.146  -0.797   0.003  0.00  0.00    +0.042 A 
ATOM     13  C   UNL     1      -2.495  -0.448   0.012  0.00  0.00    +0.024 A 
ATOM     14  C   UNL     1      -3.464  -1.429   0.011  0.00  0.00    +0.002 A 
ATOM     15  C   UNL     1      -3.107  -2.765   0.002  0.00  0.00    +0.000 A 
ATOM     16  C   UNL     1      -1.769  -3.120  -0.007  0.00  0.00    +0.009 A 
ATOM     17  C   UNL     1      -0.800  -2.143  -0.007  0.00  0.00    +0.015 A 
ATOM     18  C   UNL     1       0.711  -2.193  -0.015  0.00  0.00    +0.175 C 
ATOM     19  C   UNL     1       1.128  -0.738  -0.013  0.00  0.00    +0.256 C 
ATOM     20  O   UNL     1       2.264  -0.314  -0.022  0.00  0.00    -0.272 OA
BRANCH  18  21
ATOM     21  O   UNL     1       1.196  -2.858   1.153  0.00  0.00    -0.374 OA
ATOM     22  H   UNL     1       2.160  -2.919   1.200  0.00  0.00    +0.211 HD
ENDBRANCH  18  21
ENDBRANCH   9  18
ENDBRANCH   7   9
ENDBRANCH   1   7
BRANCH   4  23
ATOM     23  N   UNL     1       5.520  -5.305  -5.517  0.00  0.00    -0.098 NA
BRANCH  23  24
ATOM     24  S   UNL     1       7.175  -5.352  -5.497  0.00  0.00    +0.092 S 
ATOM     25  O   UNL     1       7.621  -4.006  -5.594  0.00  0.00    -0.148 OA
ATOM     26  O   UNL     1       7.544  -6.200  -4.418  0.00  0.00    -0.148 OA
BRANCH  24  27
ATOM     27  C   UNL     1       7.692  -6.162  -6.974  0.00  0.00    +0.111 A 
ATOM     28  C   UNL     1       7.851  -7.546  -6.978  0.00  0.00    +0.029 A 
ATOM     29  C   UNL     1       8.249  -8.203  -8.102  0.00  0.00    +0.010 A 
ATOM     30  C   UNL     1       8.504  -7.477  -9.277  0.00  0.00    -0.018 A 
ATOM     31  C   UNL     1       8.916  -8.120 -10.457  0.00  0.00    +0.008 A 
ATOM     32  C   UNL     1       9.154  -7.384 -11.577  0.00  0.00    +0.001 A 
ATOM     33  C   UNL     1       8.995  -5.999 -11.573  0.00  0.00    +0.001 A 
ATOM     34  C   UNL     1       8.598  -5.343 -10.449  0.00  0.00    +0.008 A 
ATOM     35  C   UNL     1       8.343  -6.069  -9.273  0.00  0.00    -0.016 A 
ATOM     36  C   UNL     1       7.925  -5.427  -8.095  0.00  0.00    +0.037 A 
ENDBRANCH  24  27
ENDBRANCH  23  24
ENDBRANCH   4  23
TORSDOF 7
