REMARK  Name = ZINC08800488
REMARK  9 active torsions:
REMARK  status: ('A' for Active; 'I' for Inactive)
REMARK    1  A    between atoms: C_1  and  N_2
REMARK    2  A    between atoms: C_9  and  C_11
REMARK    3  A    between atoms: C_11  and  C_13
REMARK    4  A    between atoms: C_11  and  N_50
REMARK    5  A    between atoms: C_13  and  N_14
REMARK    6  A    between atoms: N_14  and  S_15
REMARK    7  A    between atoms: S_15  and  C_18
REMARK    8  A    between atoms: C_26  and  N_50
REMARK    9  A    between atoms: C_27  and  N_50
REMARK                            x       y       z     vdW  Elec       q    Type
REMARK                         _______ _______ _______ _____ _____    ______ ____
ROOT
ATOM      1  C   UNL     1      -3.498   6.106  -0.997  0.00  0.00    -0.023 C 
ENDROOT
BRANCH   1  10
ATOM      2  C   UNL     1      -0.314   0.768   0.798  0.00  0.00    +0.129 C 
ATOM      3  N   UNL     1      -1.547   0.875   0.006  0.00  0.00    -0.332 N 
ATOM      4  C   UNL     1      -1.337   0.381  -1.372  0.00  0.00    +0.109 C 
ATOM      5  C   UNL     1      -2.315   1.247  -2.199  0.00  0.00    +0.056 C 
ATOM      6  C   UNL     1      -2.458   2.496  -1.351  0.00  0.00    -0.025 A 
ATOM      7  C   UNL     1      -1.982   2.206  -0.078  0.00  0.00    +0.033 A 
ATOM      8  C   UNL     1      -1.998   3.204   0.895  0.00  0.00    +0.023 A 
ATOM      9  C   UNL     1      -2.486   4.458   0.594  0.00  0.00    +0.004 A 
ATOM     10  C   UNL     1      -2.963   4.735  -0.674  0.00  0.00    -0.059 A 
ATOM     11  C   UNL     1      -2.948   3.750  -1.646  0.00  0.00    +0.007 A 
ENDBRANCH   1  10
BRANCH   1  14
ATOM     12  C   UNL     1      -3.614   7.347   1.079  0.00  0.00    -0.096 C 
ATOM     13  C   UNL     1      -5.510   7.326  -0.426  0.00  0.00    -0.096 C 
ATOM     14  N   UNL     1      -4.380   6.538   0.108  0.00  0.00    +0.381 N 
ATOM     15  H   UNL     1      -4.749   5.706   0.584  0.00  0.00    -0.082 HD
ENDBRANCH   1  14
BRANCH   1  16
ATOM     16  C   UNL     1      -2.333   7.083  -1.160  0.00  0.00    +0.095 C 
BRANCH  16  17
ATOM     17  N   UNL     1      -2.852   8.410  -1.503  0.00  0.00    -0.191 NA
ATOM     18  H   UNL     1      -3.754   8.504  -1.847  0.00  0.00    +0.148 HD
BRANCH  17  19
ATOM     19  S   UNL     1      -1.898   9.749  -1.303  0.00  0.00    +0.061 S 
ATOM     20  O   UNL     1      -2.665  10.862  -1.742  0.00  0.00    -0.153 OA
ATOM     21  O   UNL     1      -1.354   9.668   0.007  0.00  0.00    -0.153 OA
BRANCH  19  22
ATOM     22  C   UNL     1      -0.545   9.597  -2.422  0.00  0.00    +0.143 A 
ATOM     23  C   UNL     1      -0.404  10.496  -3.462  0.00  0.00    +0.069 A 
ATOM     24  C   UNL     1       0.661  10.379  -4.338  0.00  0.00    +0.125 A 
ATOM     25  C   UNL     1       1.580   9.355  -4.178  0.00  0.00    +0.041 A 
ATOM     26  C   UNL     1       1.436   8.454  -3.141  0.00  0.00    +0.043 A 
ATOM     27  C   UNL     1       0.373   8.574  -2.262  0.00  0.00    +0.150 A 
ATOM     28  F   UNL     1       0.233   7.692  -1.247  0.00  0.00    -0.203 F 
ATOM     29  F   UNL     1       0.801  11.260  -5.353  0.00  0.00    -0.205 F 
ENDBRANCH  19  22
ENDBRANCH  17  19
ENDBRANCH  16  17
ENDBRANCH   1  16
TORSDOF 6
