REMARK  Name = ZINC12502549
REMARK  11 active torsions:
REMARK  status: ('A' for Active; 'I' for Inactive)
REMARK    1  A    between atoms: C_1  and  C_2
REMARK    2  A    between atoms: C_5  and  C_29
REMARK    3  A    between atoms: C_6  and  O_8
REMARK    4  A    between atoms: O_8  and  C_9
REMARK    5  A    between atoms: C_9  and  C_10
REMARK    6  A    between atoms: N_12  and  N_13
REMARK    7  A    between atoms: N_13  and  C_14
REMARK    8  A    between atoms: C_14  and  N_16
REMARK    9  A    between atoms: C_17  and  C_19
REMARK   10  A    between atoms: C_29  and  C_30
REMARK   11  A    between atoms: C_29  and  C_31
REMARK                            x       y       z     vdW  Elec       q    Type
REMARK                         _______ _______ _______ _____ _____    ______ ____
ROOT
ATOM      1  N   UNL     1       3.325   9.996   0.023  0.00  0.00    -0.245 N 
ATOM      2  H   UNL     1       3.998  10.695   0.020  0.00  0.00    +0.172 HD
ENDROOT
BRANCH   1   5
ATOM      3  C   UNL     1       1.591  11.627   0.049  0.00  0.00    +0.267 C 
ATOM      4  O   UNL     1       2.432  12.501   0.045  0.00  0.00    -0.271 OA
ATOM      5  N   UNL     1       1.965  10.332   0.038  0.00  0.00    -0.232 N 
ATOM      6  H   UNL     1       1.293   9.633   0.041  0.00  0.00    +0.173 HD
BRANCH   3   7
ATOM      7  C   UNL     1       0.129  11.989   0.065  0.00  0.00    +0.326 C 
BRANCH   7   8
ATOM      8  O   UNL     1      -0.011  13.411   0.074  0.00  0.00    -0.482 OA
BRANCH   8  14
ATOM      9  C   UNL     1      -4.825  12.611   0.117  0.00  0.00    +0.044 C 
ATOM     10  C   UNL     1      -3.646  13.550   0.111  0.00  0.00    -0.047 A 
ATOM     11  C   UNL     1      -3.851  14.917   0.121  0.00  0.00    +0.004 A 
ATOM     12  C   UNL     1      -2.771  15.780   0.114  0.00  0.00    +0.008 A 
ATOM     13  C   UNL     1      -1.484  15.278   0.099  0.00  0.00    -0.003 A 
ATOM     14  C   UNL     1      -1.276  13.907   0.089  0.00  0.00    +0.125 A 
ATOM     15  C   UNL     1      -2.361  13.043   0.090  0.00  0.00    +0.049 A 
BRANCH  13  16
ATOM     16  C   UNL     1      -0.307  16.220   0.093  0.00  0.00    +0.016 C 
ATOM     17  C   UNL     1      -0.372  17.109  -1.151  0.00  0.00    +0.012 C 
ATOM     18  C   UNL     1      -0.348  17.095   1.347  0.00  0.00    +0.012 C 
ENDBRANCH  13  16
ENDBRANCH   8  14
ENDBRANCH   7   8
ENDBRANCH   3   7
ENDBRANCH   1   5
BRANCH   1  19
ATOM     19  C   UNL     1       3.699   8.701   0.012  0.00  0.00    +0.153 C 
ATOM     20  S   UNL     1       5.361   8.290  -0.007  0.00  0.00    -0.017 S 
BRANCH  19  21
ATOM     21  N   UNL     1       2.765   7.730   0.016  0.00  0.00    -0.262 N 
ATOM     22  C   UNL     1       3.139   6.435   0.006  0.00  0.00    +0.258 C 
ATOM     23  O   UNL     1       4.320   6.143  -0.008  0.00  0.00    -0.269 OA
ATOM     24  H   UNL     1       1.823   7.963   0.027  0.00  0.00    +0.157 HD
BRANCH  22  25
ATOM     25  C   UNL     1       2.122   5.378   0.010  0.00  0.00    +0.094 A 
ATOM     26  C   UNL     1       2.301   4.028   0.001  0.00  0.00    +0.068 A 
ATOM     27  C   UNL     1       1.183   3.173   0.007  0.00  0.00    +0.008 A 
ATOM     28  C   UNL     1       1.164   1.754   0.000  0.00  0.00    +0.010 A 
ATOM     29  C   UNL     1      -0.013   1.076   0.008  0.00  0.00    +0.001 A 
ATOM     30  C   UNL     1      -1.235   1.737   0.017  0.00  0.00    +0.001 A 
ATOM     31  C   UNL     1      -1.261   3.117   0.030  0.00  0.00    +0.016 A 
ATOM     32  C   UNL     1      -0.075   3.819   0.023  0.00  0.00    +0.021 A 
ATOM     33  S   UNL     1       0.345   5.544   0.028  0.00  0.00    -0.082 S 
ATOM     34 CL   UNL     1       3.905   3.364  -0.018  0.00  0.00    -0.082 Cl
ENDBRANCH  22  25
ENDBRANCH  19  21
ENDBRANCH   1  19
TORSDOF 8
