REMARK  Name = ZINC39379815
REMARK  6 active torsions:
REMARK  status: ('A' for Active; 'I' for Inactive)
REMARK    1  A    between atoms: C_4  and  C_7
REMARK    2  A    between atoms: C_7  and  C_12
REMARK    3  A    between atoms: C_12  and  N_13
REMARK    4  A    between atoms: C_14  and  C_16
REMARK    5  A    between atoms: N_22  and  C_25
REMARK    6  A    between atoms: C_25  and  C_26
REMARK                            x       y       z     vdW  Elec       q    Type
REMARK                         _______ _______ _______ _____ _____    ______ ____
ROOT
ATOM      1  C   UNL     1       5.187   3.121   2.086  0.00  0.00    +0.082 C 
ATOM      2  C   UNL     1       6.458   3.845   1.636  0.00  0.00    +0.020 C 
ATOM      3  C   UNL     1       6.033   3.883   3.104  0.00  0.00    -0.021 C 
ATOM      4  C   UNL     1       6.851   3.065   4.109  0.00  0.00    -0.011 C 
ATOM      5  C   UNL     1       6.035   2.918   5.397  0.00  0.00    -0.078 C 
ATOM      6  N   UNL     1       5.674   4.247   5.904  0.00  0.00    +0.380 N 
ATOM      7  C   UNL     1       4.752   4.910   4.974  0.00  0.00    -0.078 C 
ATOM      8  C   UNL     1       5.476   5.200   3.655  0.00  0.00    -0.011 C 
ATOM      9  H   UNL     1       6.508   4.805   6.002  0.00  0.00    -0.082 HD
ENDROOT
BRANCH   1  11
ATOM     10  N   UNL     1       4.123   0.926   2.493  0.00  0.00    -0.314 N 
ATOM     11  C   UNL     1       5.225   1.616   2.137  0.00  0.00    +0.217 C 
ATOM     12  O   UNL     1       6.246   1.025   1.857  0.00  0.00    -0.275 OA
ATOM     13  H   UNL     1       3.306   1.398   2.716  0.00  0.00    +0.149 HD
BRANCH  10  14
ATOM     14  C   UNL     1       4.160  -0.538   2.542  0.00  0.00    +0.115 C 
BRANCH  14  15
ATOM     15  C   UNL     1       2.759  -1.073   2.845  0.00  0.00    +0.011 C 
ATOM     16  C   UNL     1       1.758  -0.569   1.784  0.00  0.00    +0.013 C 
ATOM     17  C   UNL     1       1.682  -1.724   0.755  0.00  0.00    +0.001 C 
ATOM     18  C   UNL     1       1.748  -2.986   1.652  0.00  0.00    +0.001 C 
ATOM     19  C   UNL     1       2.752  -2.610   2.761  0.00  0.00    +0.013 C 
BRANCH  15  23
ATOM     20  C   UNL     1       1.523   0.182   6.737  0.00  0.00    +0.000 A 
ATOM     21  C   UNL     1       0.643  -0.502   5.919  0.00  0.00    +0.000 A 
ATOM     22  C   UNL     1       1.043  -0.908   4.660  0.00  0.00    +0.004 A 
ATOM     23  C   UNL     1       2.322  -0.630   4.218  0.00  0.00    -0.040 A 
ATOM     24  C   UNL     1       3.202   0.056   5.034  0.00  0.00    +0.004 A 
ATOM     25  C   UNL     1       2.803   0.461   6.294  0.00  0.00    +0.000 A 
ENDBRANCH  15  23
ENDBRANCH  14  15
ENDBRANCH  10  14
ENDBRANCH   1  11
BRANCH   6  26
ATOM     26  C   UNL     1       5.026   4.108   7.215  0.00  0.00    -0.062 C 
BRANCH  26  27
ATOM     27  C   UNL     1       4.776   5.496   7.809  0.00  0.00    +0.082 C 
ATOM     28  C   UNL     1       6.111   6.208   7.906  0.00  0.00    -0.007 C 
ATOM     29  C   UNL     1       6.504   6.636   9.139  0.00  0.00    -0.007 A 
ATOM     30  C   UNL     1       7.778   7.331   9.322  0.00  0.00    +0.009 A 
ATOM     31  C   UNL     1       8.129   7.739  10.569  0.00  0.00    +0.001 A 
ATOM     32  C   UNL     1       7.301   7.507  11.669  0.00  0.00    +0.002 A 
ATOM     33  C   UNL     1       6.108   6.867  11.565  0.00  0.00    +0.024 A 
ATOM     34  C   UNL     1       5.650   6.404  10.318  0.00  0.00    +0.040 A 
ATOM     35  N   UNL     1       4.477   5.779  10.228  0.00  0.00    -0.285 N 
ATOM     36  C   UNL     1       3.990   5.318   9.089  0.00  0.00    +0.222 C 
ATOM     37  O   UNL     1       2.913   4.753   9.070  0.00  0.00    -0.275 OA
ATOM     38  H   UNL     1       3.957   5.654  11.037  0.00  0.00    +0.155 HD
ENDBRANCH  26  27
ENDBRANCH   6  26
TORSDOF 6
