REMARK  Name = ZINC09183605
REMARK  8 active torsions:
REMARK  status: ('A' for Active; 'I' for Inactive)
REMARK    1  A    between atoms: C_1  and  O_2
REMARK    2  A    between atoms: O_2  and  C_3
REMARK    3  A    between atoms: C_8  and  C_9
REMARK    4  A    between atoms: C_18  and  C_25
REMARK    5  A    between atoms: C_20  and  C_21
REMARK    6  A    between atoms: C_20  and  N_53
REMARK    7  A    between atoms: C_21  and  O_23
REMARK    8  A    between atoms: O_23  and  C_24
REMARK                            x       y       z     vdW  Elec       q    Type
REMARK                         _______ _______ _______ _____ _____    ______ ____
ROOT
ATOM      1  C   UNL     1      -3.251  -2.103  -1.357  0.00  0.00    +0.053 C 
ATOM      2  N   UNL     1      -4.619  -2.643  -1.335  0.00  0.00    -0.353 N 
ATOM      3  C   UNL     1      -5.367  -2.499  -0.161  0.00  0.00    +0.028 A 
ATOM      4  C   UNL     1      -6.734  -2.746  -0.176  0.00  0.00    +0.024 A 
ATOM      5  C   UNL     1      -7.471  -2.606   0.984  0.00  0.00    +0.017 A 
ATOM      6  C   UNL     1      -6.847  -2.220   2.157  0.00  0.00    +0.018 A 
ATOM      7  C   UNL     1      -5.487  -1.973   2.173  0.00  0.00    +0.019 A 
ATOM      8  C   UNL     1      -4.742  -2.110   1.015  0.00  0.00    -0.035 A 
ATOM      9  C   UNL     1      -3.261  -1.834   1.048  0.00  0.00    -0.001 C 
ATOM     10 BR   UNL     1      -7.858  -2.030   3.744  0.00  0.00    -0.050 Br
ATOM     11  H   UNL     1      -4.992  -3.086  -2.113  0.00  0.00    +0.145 HD
ATOM     12  N   UNL     1      -2.599  -2.503  -0.089  0.00  0.00    +0.409 N 
ATOM     13  H   UNL     1      -2.686  -3.520   0.025  0.00  0.00    -0.076 HD
ENDROOT
BRANCH   1  19
ATOM     14  C   UNL     1      -2.218   0.081  -2.028  0.00  0.00    +0.123 A 
ATOM     15  C   UNL     1      -2.264   1.463  -2.148  0.00  0.00    +0.046 A 
ATOM     16  C   UNL     1      -3.380   2.155  -1.718  0.00  0.00    +0.004 A 
ATOM     17  C   UNL     1      -4.451   1.472  -1.173  0.00  0.00    +0.000 A 
ATOM     18  C   UNL     1      -4.409   0.095  -1.056  0.00  0.00    +0.007 A 
ATOM     19  C   UNL     1      -3.296  -0.602  -1.485  0.00  0.00    -0.003 A 
BRANCH  14  21
ATOM     20  C   UNL     1      -0.048   0.167  -2.995  0.00  0.00    +0.277 C 
ATOM     21  O   UNL     1      -1.120  -0.602  -2.446  0.00  0.00    -0.495 OA
ENDBRANCH  14  21
ENDBRANCH   1  19
BRANCH   9  22
ATOM     22  C   UNL     1      -2.682  -2.372   2.330  0.00  0.00    -0.057 A 
ATOM     23  C   UNL     1      -2.387  -3.718   2.445  0.00  0.00    +0.002 A 
ATOM     24  C   UNL     1      -1.851  -4.210   3.620  0.00  0.00    +0.000 A 
ATOM     25  C   UNL     1      -1.620  -3.359   4.684  0.00  0.00    +0.000 A 
ATOM     26  C   UNL     1      -1.920  -2.014   4.572  0.00  0.00    +0.000 A 
ATOM     27  C   UNL     1      -2.451  -1.521   3.395  0.00  0.00    +0.002 A 
ENDBRANCH   9  22
BRANCH  12  28
ATOM     28  C   UNL     1      -1.165  -2.144  -0.122  0.00  0.00    +0.048 C 
BRANCH  28  29
ATOM     29  C   UNL     1      -0.470  -3.008  -1.142  0.00  0.00    +0.290 C 
ATOM     30  O   UNL     1      -1.078  -3.889  -1.702  0.00  0.00    -0.253 OA
BRANCH  29  31
ATOM     31  O   UNL     1       0.825  -2.799  -1.428  0.00  0.00    -0.469 OA
ATOM     32  C   UNL     1       1.429  -3.669  -2.420  0.00  0.00    +0.280 C 
ENDBRANCH  29  31
ENDBRANCH  28  29
ENDBRANCH  12  28
TORSDOF 6
