REMARK  Name = ZINC06530934
REMARK  8 active torsions:
REMARK  status: ('A' for Active; 'I' for Inactive)
REMARK    1  A    between atoms: C_1  and  C_2
REMARK    2  A    between atoms: C_5  and  N_9
REMARK    3  A    between atoms: C_6  and  C_8
REMARK    4  A    between atoms: C_10  and  C_12
REMARK    5  A    between atoms: C_12  and  S_13
REMARK    6  A    between atoms: S_13  and  C_14
REMARK    7  A    between atoms: C_15  and  C_35
REMARK    8  A    between atoms: C_16  and  C_26
REMARK                            x       y       z     vdW  Elec       q    Type
REMARK                         _______ _______ _______ _____ _____    ______ ____
ROOT
ATOM      1  C   UNL     1       8.775   2.226   0.383  0.00  0.00    +0.111 C 
ATOM      2  C   UNL     1      10.066   1.734   0.486  0.00  0.00    +0.069 C 
ATOM      3  C   UNL     1      11.191   2.748   0.576  0.00  0.00    +0.078 C 
ATOM      4  C   UNL     1      10.771   4.206   0.554  0.00  0.00    +0.112 C 
ATOM      5  C   UNL     1      11.700   5.173   0.636  0.00  0.00    +0.143 C 
ATOM      6  C   UNL     1      11.317   6.628   0.617  0.00  0.00    +0.075 C 
ATOM      7  C   UNL     1       9.918   6.792   1.217  0.00  0.00    +0.013 C 
ATOM      8  C   UNL     1       8.934   5.930   0.421  0.00  0.00    +0.052 C 
ATOM      9  C   UNL     1       9.398   4.493   0.448  0.00  0.00    +0.031 C 
ATOM     10  N   UNL     1       8.510   3.533   0.372  0.00  0.00    -0.248 NA
ATOM     11  O   UNL     1      13.000   4.833   0.737  0.00  0.00    -0.297 OA
ENDROOT
BRANCH   3  12
ATOM     12  C   UNL     1      11.947   2.495   1.855  0.00  0.00    -0.034 A 
ATOM     13  C   UNL     1      11.329   2.703   3.074  0.00  0.00    +0.008 A 
ATOM     14  C   UNL     1      12.018   2.472   4.250  0.00  0.00    +0.050 A 
ATOM     15  C   UNL     1      13.331   2.031   4.209  0.00  0.00    +0.166 A 
ATOM     16  C   UNL     1      13.953   1.822   2.982  0.00  0.00    +0.167 A 
ATOM     17  C   UNL     1      13.255   2.050   1.807  0.00  0.00    +0.053 A 
ATOM     18  O   UNL     1      15.229   1.393   3.207  0.00  0.00    -0.453 OA
ATOM     19  C   UNL     1      15.250   0.952   4.577  0.00  0.00    +0.466 C 
ATOM     20  O   UNL     1      14.217   1.734   5.204  0.00  0.00    -0.453 OA
ENDBRANCH   3  12
BRANCH   2  21
ATOM     21  C   UNL     1      10.328   0.326   0.501  0.00  0.00    +0.098 C 
ATOM     22  N   UNL     1      10.535  -0.791   0.514  0.00  0.00    -0.191 NA
ENDBRANCH   2  21
BRANCH   1  23
ATOM     23  S   UNL     1       7.437   1.085   0.272  0.00  0.00    -0.096 S 
BRANCH  23  24
ATOM     24  C   UNL     1       6.047   2.240   0.172  0.00  0.00    +0.172 C 
BRANCH  24  26
ATOM     25  N   UNL     1       3.584   2.123  -0.020  0.00  0.00    -0.285 N 
ATOM     26  C   UNL     1       4.758   1.467   0.066  0.00  0.00    +0.227 C 
ATOM     27  O   UNL     1       4.777   0.255   0.059  0.00  0.00    -0.275 OA
ATOM     28  H   UNL     1       3.573   3.091  -0.095  0.00  0.00    +0.155 HD
BRANCH  25  33
ATOM     29  C   UNL     1      -1.295  -0.771   0.055  0.00  0.00    +0.044 C 
ATOM     30  C   UNL     1       0.001  -0.002   0.035  0.00  0.00    -0.050 A 
ATOM     31  C   UNL     1       1.133  -0.543   0.616  0.00  0.00    +0.005 A 
ATOM     32  C   UNL     1       2.322   0.159   0.600  0.00  0.00    +0.024 A 
ATOM     33  C   UNL     1       2.381   1.410  -0.002  0.00  0.00    +0.036 A 
ATOM     34  C   UNL     1       1.242   1.950  -0.586  0.00  0.00    -0.029 A 
ATOM     35  C   UNL     1       0.056   1.242  -0.565  0.00  0.00    +0.008 A 
ATOM     36  C   UNL     1       1.301   3.306  -1.240  0.00  0.00    +0.045 C 
ENDBRANCH  25  33
ENDBRANCH  24  26
ENDBRANCH  23  24
ENDBRANCH   1  23
TORSDOF 6
