REMARK  Name = ZINC15954358
REMARK  5 active torsions:
REMARK  status: ('A' for Active; 'I' for Inactive)
REMARK    1  A    between atoms: C_1  and  C_2
REMARK    2  A    between atoms: C_2  and  O_3
REMARK    3  A    between atoms: O_3  and  C_4
REMARK    4  A    between atoms: C_9  and  C_10
REMARK    5  A    between atoms: N_29  and  C_32
REMARK                            x       y       z     vdW  Elec       q    Type
REMARK                         _______ _______ _______ _____ _____    ______ ____
ROOT
ATOM      1  C   UNL     1       4.795   2.635  -0.036  0.00  0.00    +0.157 C 
ATOM      2  C   UNL     1       3.386   2.194   0.292  0.00  0.00    +0.046 A 
ATOM      3  C   UNL     1       2.986   0.904   0.275  0.00  0.00    -0.015 A 
ATOM      4  C   UNL     1       1.583   0.892   0.635  0.00  0.00    +0.003 A 
ATOM      5  C   UNL     1       0.650  -0.140   0.777  0.00  0.00    +0.010 A 
ATOM      6  C   UNL     1      -0.625   0.221   1.136  0.00  0.00    +0.001 A 
ATOM      7  C   UNL     1      -0.981   1.542   1.358  0.00  0.00    +0.002 A 
ATOM      8  C   UNL     1      -0.079   2.583   1.224  0.00  0.00    +0.026 A 
ATOM      9  C   UNL     1       1.223   2.246   0.856  0.00  0.00    +0.047 A 
ATOM     10  N   UNL     1       2.337   3.004   0.639  0.00  0.00    -0.356 N 
ATOM     11  H   UNL     1       2.380   3.969   0.719  0.00  0.00    +0.166 HD
ATOM     12  C   UNL     1       3.876  -0.266  -0.056  0.00  0.00    +0.069 C 
ATOM     13  C   UNL     1       5.127   0.252  -0.779  0.00  0.00    +0.167 C 
ATOM     14  N   UNL     1       5.641   1.424  -0.071  0.00  0.00    -0.276 N 
ATOM     15  C   UNL     1       6.817   1.472   0.529  0.00  0.00    +0.234 C 
ATOM     16  O   UNL     1       7.109   2.480   1.137  0.00  0.00    -0.274 OA
ATOM     17  C   UNL     1       7.810   0.355   0.514  0.00  0.00    +0.204 C 
ATOM     18  N   UNL     1       7.346  -0.777  -0.270  0.00  0.00    -0.288 N 
ATOM     19  C   UNL     1       6.151  -0.834  -0.854  0.00  0.00    +0.237 C 
ATOM     20  O   UNL     1       5.875  -1.832  -1.487  0.00  0.00    -0.274 OA
ENDROOT
BRANCH  18  21
ATOM     21  C   UNL     1       8.245  -1.923  -0.426  0.00  0.00    +0.077 C 
ATOM     22  C   UNL     1       8.512  -2.541   0.962  0.00  0.00    +0.022 C 
ATOM     23  C   UNL     1       8.983  -3.958   0.772  0.00  0.00    +0.002 C 
ATOM     24  C   UNL     1      10.520  -4.069   0.744  0.00  0.00    +0.000 C 
ATOM     25  C   UNL     1      11.186  -2.941  -0.067  0.00  0.00    +0.000 C 
ATOM     26  C   UNL     1      10.449  -2.638  -1.344  0.00  0.00    +0.002 C 
ATOM     27  C   UNL     1       9.467  -1.478  -1.079  0.00  0.00    +0.022 C 
ENDBRANCH  18  21
BRANCH   1  33
ATOM     28  C   UNL     1       6.143   4.624   0.681  0.00  0.00    +0.126 A 
ATOM     29  C   UNL     1       6.603   5.492   1.661  0.00  0.00    +0.046 A 
ATOM     30  C   UNL     1       6.216   5.316   2.975  0.00  0.00    +0.004 A 
ATOM     31  C   UNL     1       5.372   4.275   3.315  0.00  0.00    +0.001 A 
ATOM     32  C   UNL     1       4.908   3.412   2.340  0.00  0.00    +0.009 A 
ATOM     33  C   UNL     1       5.296   3.580   1.025  0.00  0.00    +0.020 A 
BRANCH  28  34
ATOM     34  O   UNL     1       6.523   4.795  -0.612  0.00  0.00    -0.492 OA
BRANCH  34  36
ATOM     35  C   UNL     1       7.711   5.921  -2.390  0.00  0.00    +0.048 C 
ATOM     36  C   UNL     1       7.396   5.890  -0.893  0.00  0.00    +0.225 C 
ENDBRANCH  34  36
ENDBRANCH  28  34
ENDBRANCH   1  33
TORSDOF 4
