REMARK  Name = ZINC40104184
REMARK  5 active torsions:
REMARK  status: ('A' for Active; 'I' for Inactive)
REMARK    1  A    between atoms: C_4  and  N_23
REMARK    2  A    between atoms: C_5  and  N_7
REMARK    3  A    between atoms: N_10  and  C_11
REMARK    4  A    between atoms: C_11  and  C_13
REMARK    5  A    between atoms: C_11  and  C_18
REMARK                            x       y       z     vdW  Elec       q    Type
REMARK                         _______ _______ _______ _____ _____    ______ ____
ROOT
ATOM      1  N   UNL     1       1.313  -2.144   0.251  0.00  0.00    -0.268 N 
ATOM      2  C   UNL     1       0.141  -2.808   0.269  0.00  0.00    +0.304 C 
ATOM      3  O   UNL     1      -0.907  -2.192   0.283  0.00  0.00    -0.252 OA
ATOM      4  N   UNL     1       0.130  -4.156   0.272  0.00  0.00    -0.292 N 
ATOM      5  H   UNL     1       2.146  -2.632   0.161  0.00  0.00    +0.156 HD
ATOM      6  H   UNL     1       0.964  -4.647   0.329  0.00  0.00    +0.151 HD
ENDROOT
BRANCH   1  11
ATOM      7  C   UNL     1       0.251   1.298   1.000  0.00  0.00    +0.002 A 
ATOM      8  C   UNL     1       1.358   2.015   0.582  0.00  0.00    +0.002 A 
ATOM      9  C   UNL     1       2.453   1.358   0.054  0.00  0.00    +0.025 A 
ATOM     10  C   UNL     1       2.444  -0.025  -0.058  0.00  0.00    +0.058 A 
ATOM     11  C   UNL     1       1.329  -0.747   0.362  0.00  0.00    +0.056 A 
ATOM     12  C   UNL     1       0.234  -0.079   0.891  0.00  0.00    +0.025 A 
BRANCH  10  13
ATOM     13  N   UNL     1       3.553  -0.693  -0.594  0.00  0.00    -0.270 N 
ATOM     14  C   UNL     1       3.732  -0.990  -2.020  0.00  0.00    +0.114 C 
ATOM     15  C   UNL     1       5.232  -1.317  -2.187  0.00  0.00    +0.029 C 
ATOM     16  C   UNL     1       5.609  -1.805  -0.769  0.00  0.00    +0.098 C 
ATOM     17  C   UNL     1       4.593  -1.139   0.132  0.00  0.00    +0.220 C 
ATOM     18  O   UNL     1       4.699  -1.028   1.335  0.00  0.00    -0.275 OA
ENDBRANCH  10  13
ENDBRANCH   1  11
BRANCH   4  19
ATOM     19  C   UNL     1      -1.142  -4.878   0.190  0.00  0.00    +0.114 C 
BRANCH  19  20
ATOM     20  C   UNL     1      -1.718  -5.042   1.573  0.00  0.00    +0.010 A 
ATOM     21  C   UNL     1      -3.008  -4.943   1.977  0.00  0.00    +0.013 A 
ATOM     22  C   UNL     1      -3.308  -5.135   3.313  0.00  0.00    +0.008 A 
ATOM     23  C   UNL     1      -2.303  -5.416   4.178  0.00  0.00    +0.045 A 
ATOM     24  S   UNL     1      -0.879  -5.423   3.102  0.00  0.00    -0.100 S 
ENDBRANCH  19  20
BRANCH  19  25
ATOM     25  C   UNL     1      -0.905  -6.257  -0.430  0.00  0.00    +0.014 C 
ATOM     26  C   UNL     1       0.119  -7.046   0.410  0.00  0.00    +0.006 C 
ATOM     27  C   UNL     1       0.952  -7.825  -0.638  0.00  0.00    +0.000 C 
ATOM     28  C   UNL     1       1.076  -6.808  -1.800  0.00  0.00    +0.000 C 
ATOM     29  C   UNL     1      -0.297  -6.106  -1.836  0.00  0.00    +0.006 C 
ENDBRANCH  19  25
ENDBRANCH   4  19
TORSDOF 5
