REMARK  Name = ZINC36634686
REMARK  10 active torsions:
REMARK  status: ('A' for Active; 'I' for Inactive)
REMARK    1  A    between atoms: C_1  and  C_2
REMARK    2  A    between atoms: C_5  and  C_37
REMARK    3  A    between atoms: C_6  and  N_8
REMARK    4  A    between atoms: C_22  and  S_23
REMARK    5  A    between atoms: S_23  and  C_24
REMARK    6  A    between atoms: C_24  and  C_25
REMARK    7  A    between atoms: N_27  and  C_28
REMARK    8  A    between atoms: C_29  and  C_36
REMARK    9  A    between atoms: C_31  and  C_35
REMARK   10  A    between atoms: C_33  and  C_34
REMARK                            x       y       z     vdW  Elec       q    Type
REMARK                         _______ _______ _______ _____ _____    ______ ____
ROOT
ATOM      1  N   UNL     1      -0.120  -4.422   2.914  0.00  0.00    -0.254 N 
ATOM      2  C   UNL     1       1.051  -4.394   3.586  0.00  0.00    +0.283 A 
ATOM      3  O   UNL     1       2.084  -4.764   3.053  0.00  0.00    -0.265 OA
ATOM      4  C   UNL     1       1.056  -3.928   4.917  0.00  0.00    +0.132 A 
ATOM      5  C   UNL     1      -0.151  -3.515   5.481  0.00  0.00    +0.104 A 
ATOM      6  C   UNL     1       0.156  -3.088   6.854  0.00  0.00    +0.026 A 
ATOM      7  C   UNL     1      -0.619  -2.583   7.899  0.00  0.00    +0.012 A 
ATOM      8  C   UNL     1      -0.032  -2.269   9.092  0.00  0.00    +0.001 A 
ATOM      9  C   UNL     1       1.333  -2.447   9.273  0.00  0.00    +0.002 A 
ATOM     10  C   UNL     1       2.116  -2.944   8.255  0.00  0.00    +0.026 A 
ATOM     11  C   UNL     1       1.538  -3.271   7.031  0.00  0.00    +0.049 A 
ATOM     12  N   UNL     1       2.061  -3.776   5.859  0.00  0.00    -0.349 N 
ATOM     13  H   UNL     1       2.995  -3.992   5.715  0.00  0.00    +0.166 HD
ATOM     14  N   UNL     1      -1.280  -3.569   4.757  0.00  0.00    -0.221 NA
ATOM     15  C   UNL     1      -1.271  -4.000   3.516  0.00  0.00    +0.177 A 
ENDROOT
BRANCH   1  21
ATOM     16  C   UNL     1       0.203  -3.479  -1.902  0.00  0.00    +0.044 C 
ATOM     17  C   UNL     1       0.001  -4.444  -0.762  0.00  0.00    -0.048 A 
ATOM     18  C   UNL     1      -0.219  -5.785  -1.024  0.00  0.00    +0.004 A 
ATOM     19  C   UNL     1      -0.406  -6.673   0.019  0.00  0.00    +0.005 A 
ATOM     20  C   UNL     1      -0.374  -6.224   1.325  0.00  0.00    -0.026 A 
ATOM     21  C   UNL     1      -0.153  -4.880   1.590  0.00  0.00    +0.055 A 
ATOM     22  C   UNL     1       0.040  -3.991   0.541  0.00  0.00    +0.030 A 
ATOM     23  C   UNL     1      -0.578  -7.194   2.461  0.00  0.00    +0.046 C 
ENDBRANCH   1  21
BRANCH  15  24
ATOM     24  S   UNL     1      -2.781  -4.042   2.609  0.00  0.00    -0.078 S 
BRANCH  24  25
ATOM     25  C   UNL     1      -4.013  -3.406   3.779  0.00  0.00    +0.173 C 
BRANCH  25  26
ATOM     26  C   UNL     1      -5.369  -3.389   3.120  0.00  0.00    +0.228 C 
ATOM     27  O   UNL     1      -5.492  -3.769   1.975  0.00  0.00    -0.275 OA
ATOM     28  N   UNL     1      -6.445  -2.953   3.804  0.00  0.00    -0.284 N 
ATOM     29  H   UNL     1      -6.361  -2.719   4.742  0.00  0.00    +0.155 HD
BRANCH  28  30
ATOM     30  C   UNL     1      -7.683  -2.837   3.162  0.00  0.00    +0.039 A 
ATOM     31  C   UNL     1      -8.802  -3.466   3.691  0.00  0.00    -0.029 A 
ATOM     32  C   UNL     1     -10.023  -3.350   3.054  0.00  0.00    +0.008 A 
ATOM     33  C   UNL     1     -10.130  -2.608   1.892  0.00  0.00    -0.050 A 
ATOM     34  C   UNL     1      -9.017  -1.981   1.363  0.00  0.00    +0.008 A 
ATOM     35  C   UNL     1      -7.795  -2.088   1.998  0.00  0.00    -0.029 A 
ATOM     36  C   UNL     1      -6.584  -1.398   1.425  0.00  0.00    +0.045 C 
ATOM     37  C   UNL     1     -11.463  -2.484   1.200  0.00  0.00    +0.044 C 
ATOM     38  C   UNL     1      -8.686  -4.275   4.957  0.00  0.00    +0.045 C 
ENDBRANCH  28  30
ENDBRANCH  25  26
ENDBRANCH  24  25
ENDBRANCH  15  24
TORSDOF 5
