REMARK  Name = ZINC08938949
REMARK  10 active torsions:
REMARK  status: ('A' for Active; 'I' for Inactive)
REMARK    1  A    between atoms: C_1  and  C_2
REMARK    2  A    between atoms: C_5  and  S_8
REMARK    3  A    between atoms: S_8  and  N_11
REMARK    4  A    between atoms: N_11  and  C_12
REMARK    5  A    between atoms: C_12  and  C_14
REMARK    6  A    between atoms: C_12  and  C_17
REMARK    7  A    between atoms: C_14  and  C_15
REMARK    8  A    between atoms: C_14  and  C_16
REMARK    9  A    between atoms: N_19  and  C_20
REMARK   10  A    between atoms: C_20  and  C_21
REMARK                            x       y       z     vdW  Elec       q    Type
REMARK                         _______ _______ _______ _____ _____    ______ ____
ROOT
ATOM      1  C   UNL     1       4.487   5.722  -0.315  0.00  0.00    +0.165 C 
ENDROOT
BRANCH   1   2
ATOM      2  C   UNL     1       3.095   5.154  -0.425  0.00  0.00    +0.232 C 
ATOM      3  O   UNL     1       2.138   5.898  -0.462  0.00  0.00    -0.274 OA
ATOM      4  N   UNL     1       2.914   3.820  -0.481  0.00  0.00    -0.310 N 
ATOM      5  H   UNL     1       3.680   3.225  -0.452  0.00  0.00    +0.149 HD
BRANCH   4   6
ATOM      6  C   UNL     1       1.561   3.268  -0.588  0.00  0.00    +0.152 C 
BRANCH   6   7
ATOM      7  C   UNL     1       1.636   1.740  -0.634  0.00  0.00    +0.228 C 
ATOM      8  C   UNL     1       0.234   1.161  -0.871  0.00  0.00    +0.275 C 
ATOM      9  O   UNL     1       0.338  -0.267  -0.896  0.00  0.00    -0.485 OA
ATOM     10  C   UNL     1       1.076  -0.844   0.091  0.00  0.00    +0.162 A 
ATOM     11  C   UNL     1       0.933  -2.200   0.344  0.00  0.00    +0.049 A 
ATOM     12  C   UNL     1       1.679  -2.801   1.341  0.00  0.00    +0.004 A 
ATOM     13  C   UNL     1       2.568  -2.053   2.089  0.00  0.00    +0.004 A 
ATOM     14  C   UNL     1       2.714  -0.701   1.843  0.00  0.00    +0.049 A 
ATOM     15  C   UNL     1       1.969  -0.091   0.845  0.00  0.00    +0.163 A 
ATOM     16  O   UNL     1       2.121   1.242   0.617  0.00  0.00    -0.480 OA
ENDBRANCH   6   7
ENDBRANCH   4   6
ENDBRANCH   1   2
BRANCH   1  17
ATOM     17  C   UNL     1       5.150   5.204   0.963  0.00  0.00    +0.010 C 
ATOM     18  C   UNL     1       6.601   5.684   1.015  0.00  0.00    +0.009 C 
ATOM     19  C   UNL     1       4.393   5.737   2.181  0.00  0.00    +0.009 C 
ENDBRANCH   1  17
BRANCH   1  20
ATOM     20  N   UNL     1       4.416   7.184  -0.271  0.00  0.00    -0.178 NA
ATOM     21  H   UNL     1       3.952   7.625   0.458  0.00  0.00    +0.149 HD
BRANCH  20  22
ATOM     22  S   UNL     1       5.127   8.085  -1.465  0.00  0.00    +0.059 S 
ATOM     23  O   UNL     1       4.861   9.447  -1.159  0.00  0.00    -0.153 OA
ATOM     24  O   UNL     1       6.447   7.582  -1.621  0.00  0.00    -0.153 OA
BRANCH  22  29
ATOM     25  C   UNL     1       2.202   6.867  -6.600  0.00  0.00    +0.044 C 
ATOM     26  C   UNL     1       2.933   7.171  -5.317  0.00  0.00    -0.050 A 
ATOM     27  C   UNL     1       2.505   8.206  -4.507  0.00  0.00    +0.005 A 
ATOM     28  C   UNL     1       3.175   8.485  -3.331  0.00  0.00    +0.029 A 
ATOM     29  C   UNL     1       4.273   7.729  -2.964  0.00  0.00    +0.105 A 
ATOM     30  C   UNL     1       4.703   6.697  -3.777  0.00  0.00    +0.029 A 
ATOM     31  C   UNL     1       4.030   6.415  -4.951  0.00  0.00    +0.005 A 
ENDBRANCH  22  29
ENDBRANCH  20  22
ENDBRANCH   1  20
TORSDOF 7
