REMARK  Name = ZINC32602224
REMARK  5 active torsions:
REMARK  status: ('A' for Active; 'I' for Inactive)
REMARK    1  A    between atoms: C_1  and  C_2
REMARK    2  A    between atoms: C_2  and  C_3
REMARK    3  A    between atoms: C_6  and  O_9
REMARK    4  A    between atoms: O_9  and  S_10
REMARK    5  A    between atoms: S_10  and  C_13
REMARK                            x       y       z     vdW  Elec       q    Type
REMARK                         _______ _______ _______ _____ _____    ______ ____
ROOT
ATOM      1  S   UNL     1       1.230  -2.651  -1.414  0.00  0.00    +0.151 S 
ATOM      2  O   UNL     1       1.044  -4.049  -1.243  0.00  0.00    -0.131 OA
ATOM      3  O   UNL     1       0.356  -1.857  -2.204  0.00  0.00    -0.131 OA
ENDROOT
BRANCH   1   4
ATOM      4  C   UNL     1       2.847  -2.436  -2.082  0.00  0.00    +0.129 A 
ATOM      5  C   UNL     1       3.811  -3.413  -1.878  0.00  0.00    +0.034 A 
ATOM      6  C   UNL     1       5.082  -3.264  -2.392  0.00  0.00    +0.049 A 
ATOM      7  C   UNL     1       5.404  -2.127  -3.122  0.00  0.00    +0.139 A 
ATOM      8  C   UNL     1       4.424  -1.140  -3.326  0.00  0.00    +0.020 A 
ATOM      9  C   UNL     1       3.139  -1.312  -2.801  0.00  0.00    +0.042 A 
ATOM     10  C   UNL     1       4.771   0.058  -4.097  0.00  0.00    +0.018 A 
ATOM     11  C   UNL     1       6.034   0.163  -4.584  0.00  0.00    +0.092 A 
ATOM     12  C   UNL     1       6.968  -0.868  -4.340  0.00  0.00    +0.337 A 
ATOM     13  O   UNL     1       8.097  -0.762  -4.783  0.00  0.00    -0.245 OA
ATOM     14  O   UNL     1       6.642  -1.961  -3.634  0.00  0.00    -0.422 OA
ENDBRANCH   1   4
BRANCH   1  15
ATOM     15  O   UNL     1       1.234  -2.039  -0.020  0.00  0.00    -0.342 OA
BRANCH  15  19
ATOM     16  C   UNL     1       1.171   2.086   0.002  0.00  0.00    -0.047 A 
ATOM     17  C   UNL     1      -0.017   1.377   0.010  0.00  0.00    +0.007 A 
ATOM     18  C   UNL     1       0.002  -0.004   0.002  0.00  0.00    +0.049 A 
ATOM     19  C   UNL     1       1.213  -0.680  -0.013  0.00  0.00    +0.157 A 
ATOM     20  C   UNL     1       2.403   0.033  -0.021  0.00  0.00    +0.049 A 
ATOM     21  C   UNL     1       2.379   1.415  -0.013  0.00  0.00    +0.007 A 
BRANCH  16  23
ATOM     22  C   UNL     1       1.153   4.095   1.456  0.00  0.00    +0.009 C 
ATOM     23  C   UNL     1       1.147   3.593   0.011  0.00  0.00    +0.032 C 
ENDBRANCH  16  23
ENDBRANCH  15  19
ENDBRANCH   1  15
TORSDOF 4
