REMARK  Name = ZINC13637417
REMARK  7 active torsions:
REMARK  status: ('A' for Active; 'I' for Inactive)
REMARK    1  A    between atoms: C_1  and  C_2
REMARK    2  A    between atoms: C_6  and  C_35
REMARK    3  A    between atoms: C_7  and  N_8
REMARK    4  A    between atoms: N_8  and  S_9
REMARK    5  A    between atoms: S_9  and  C_12
REMARK    6  A    between atoms: C_25  and  C_28
REMARK    7  A    between atoms: C_31  and  O_34
REMARK                            x       y       z     vdW  Elec       q    Type
REMARK                         _______ _______ _______ _____ _____    ______ ____
ROOT
ATOM      1  C   UNL     1       3.634   2.160   0.365  0.00  0.00    +0.109 A 
ATOM      2  C   UNL     1       4.299   2.725  -0.709  0.00  0.00    +0.030 A 
ATOM      3  C   UNL     1       3.643   2.881  -1.914  0.00  0.00    +0.025 A 
ATOM      4  C   UNL     1       2.321   2.472  -2.044  0.00  0.00    +0.031 A 
ATOM      5  C   UNL     1       1.652   1.910  -0.971  0.00  0.00    -0.018 A 
ATOM      6  C   UNL     1       2.321   1.756   0.236  0.00  0.00    +0.034 A 
ATOM      7  C   UNL     1       0.219   1.455  -1.049  0.00  0.00    +0.049 C 
ATOM      8  C   UNL     1      -0.568   2.245  -0.012  0.00  0.00    -0.023 C 
ATOM      9  C   UNL     1      -1.170   3.268  -0.592  0.00  0.00    -0.030 C 
ATOM     10  C   UNL     1      -0.849   3.307  -2.075  0.00  0.00    +0.033 C 
ATOM     11  C   UNL     1      -0.448   1.845  -2.381  0.00  0.00    +0.029 C 
ATOM     12  C   UNL     1       0.505   1.791  -3.547  0.00  0.00    +0.105 C 
ATOM     13  N   UNL     1       1.676   2.631  -3.276  0.00  0.00    -0.336 N 
ATOM     14  H   UNL     1       1.994   3.275  -3.928  0.00  0.00    +0.147 HD
ENDROOT
BRANCH  12  15
ATOM     15  C   UNL     1       0.946   0.364  -3.751  0.00  0.00    -0.027 A 
ATOM     16  C   UNL     1       1.944  -0.169  -2.957  0.00  0.00    +0.009 A 
ATOM     17  C   UNL     1       2.347  -1.478  -3.137  0.00  0.00    +0.046 A 
ATOM     18  C   UNL     1       1.756  -2.254  -4.124  0.00  0.00    +0.117 A 
ATOM     19  C   UNL     1       0.759  -1.715  -4.923  0.00  0.00    +0.046 A 
ATOM     20  C   UNL     1       0.356  -0.407  -4.735  0.00  0.00    +0.009 A 
BRANCH  18  21
ATOM     21  O   UNL     1       2.154  -3.541  -4.307  0.00  0.00    -0.507 OA
ATOM     22  H   UNL     1       2.879  -3.642  -4.938  0.00  0.00    +0.292 HD
ENDBRANCH  18  21
ENDBRANCH  12  15
BRANCH   1  23
ATOM     23  S   UNL     1       4.467   1.957   1.904  0.00  0.00    +0.072 S 
ATOM     24  O   UNL     1       5.569   2.854   1.891  0.00  0.00    -0.150 OA
ATOM     25  O   UNL     1       3.469   1.993   2.914  0.00  0.00    -0.150 OA
BRANCH  23  26
ATOM     26  N   UNL     1       5.101   0.427   1.919  0.00  0.00    -0.216 N 
ATOM     27  H   UNL     1       4.755  -0.235   2.537  0.00  0.00    +0.174 HD
BRANCH  26  34
ATOM     28  C   UNL     1       4.473  -1.175  -0.346  0.00  0.00    +0.046 C 
ATOM     29  C   UNL     1       5.874  -0.689  -0.076  0.00  0.00    -0.028 A 
ATOM     30  C   UNL     1       6.898  -1.015  -0.944  0.00  0.00    +0.005 A 
ATOM     31  C   UNL     1       8.184  -0.575  -0.694  0.00  0.00    +0.001 A 
ATOM     32  C   UNL     1       8.450   0.198   0.422  0.00  0.00    +0.005 A 
ATOM     33  C   UNL     1       7.429   0.532   1.290  0.00  0.00    -0.028 A 
ATOM     34  C   UNL     1       6.136   0.091   1.042  0.00  0.00    +0.054 A 
ATOM     35  C   UNL     1       7.719   1.375   2.506  0.00  0.00    +0.046 C 
ENDBRANCH  26  34
ENDBRANCH  23  26
ENDBRANCH   1  23
TORSDOF 5
