REMARK  Name = ZINC38767098
REMARK  10 active torsions:
REMARK  status: ('A' for Active; 'I' for Inactive)
REMARK    1  A    between atoms: C_1  and  C_2
REMARK    2  A    between atoms: C_3  and  O_24
REMARK    3  A    between atoms: C_4  and  C_8
REMARK    4  A    between atoms: C_11  and  O_15
REMARK    5  A    between atoms: C_13  and  O_14
REMARK    6  A    between atoms: O_15  and  C_16
REMARK    7  A    between atoms: C_16  and  C_17
REMARK    8  A    between atoms: O_24  and  C_25
REMARK    9  A    between atoms: C_29  and  O_31
REMARK   10  A    between atoms: O_31  and  C_32
REMARK                            x       y       z     vdW  Elec       q    Type
REMARK                         _______ _______ _______ _____ _____    ______ ____
ROOT
ATOM      1  C   UNL     1      -1.100  -2.997  -1.067  0.00  0.00    +0.025 A 
ATOM      2  C   UNL     1      -0.346  -3.172  -2.213  0.00  0.00    +0.013 A 
ATOM      3  C   UNL     1      -0.857  -3.894  -3.275  0.00  0.00    +0.046 A 
ATOM      4  C   UNL     1      -2.128  -4.444  -3.193  0.00  0.00    +0.124 A 
ATOM      5  C   UNL     1      -2.886  -4.270  -2.046  0.00  0.00    +0.091 A 
ATOM      6  C   UNL     1      -2.369  -3.550  -0.979  0.00  0.00    +0.126 A 
ENDROOT
BRANCH   1  10
ATOM      7  C   UNL     1      -0.016   1.484  -0.106  0.00  0.00    +0.071 C 
ATOM      8  C   UNL     1      -0.000  -0.022  -0.051  0.00  0.00    +0.098 C 
ATOM      9  C   UNL     1      -1.095  -0.795   0.096  0.00  0.00    +0.156 C 
ATOM     10  C   UNL     1      -0.540  -2.209   0.089  0.00  0.00    +0.200 C 
ATOM     11  N   UNL     1       0.908  -1.991  -0.076  0.00  0.00    -0.294 N 
ATOM     12  N   UNL     1       1.101  -0.775  -0.147  0.00  0.00    -0.179 NA
ATOM     13  H   UNL     1       1.587  -2.681  -0.123  0.00  0.00    +0.184 HD
BRANCH   9  14
ATOM     14  O   UNL     1      -2.382  -0.405   0.221  0.00  0.00    -0.456 OA
BRANCH  14  15
ATOM     15  C   UNL     1      -3.002  -0.624   1.410  0.00  0.00    +0.132 A 
ATOM     16  C   UNL     1      -2.283  -1.122   2.488  0.00  0.00    +0.046 A 
ATOM     17  C   UNL     1      -2.914  -1.346   3.696  0.00  0.00    +0.007 A 
ATOM     18  C   UNL     1      -4.261  -1.074   3.836  0.00  0.00    +0.046 A 
ATOM     19  C   UNL     1      -4.985  -0.577   2.762  0.00  0.00    +0.124 A 
ATOM     20  C   UNL     1      -4.354  -0.346   1.549  0.00  0.00    +0.091 A 
BRANCH  19  21
ATOM     21  O   UNL     1      -6.311  -0.310   2.899  0.00  0.00    -0.495 OA
ATOM     22  C   UNL     1      -6.894  -0.567   4.178  0.00  0.00    +0.277 C 
ENDBRANCH  19  21
ENDBRANCH  14  15
ENDBRANCH   9  14
ENDBRANCH   1  10
BRANCH   6  23
ATOM     23  O   UNL     1      -3.107  -3.382   0.149  0.00  0.00    -0.506 OA
ATOM     24  H   UNL     1      -3.667  -2.594   0.140  0.00  0.00    +0.292 HD
ENDBRANCH   6  23
BRANCH   4  25
ATOM     25  O   UNL     1      -2.630  -5.154  -4.239  0.00  0.00    -0.487 OA
BRANCH  25  26
ATOM     26  C   UNL     1      -1.794  -5.293  -5.389  0.00  0.00    +0.264 C 
BRANCH  26  27
ATOM     27  C   UNL     1      -2.512  -6.103  -6.437  0.00  0.00    -0.010 A 
ATOM     28  C   UNL     1      -2.382  -7.479  -6.455  0.00  0.00    +0.008 A 
ATOM     29  C   UNL     1      -3.041  -8.223  -7.416  0.00  0.00    +0.015 A 
ATOM     30  C   UNL     1      -3.831  -7.591  -8.359  0.00  0.00    +0.018 A 
ATOM     31  C   UNL     1      -3.961  -6.214  -8.340  0.00  0.00    +0.015 A 
ATOM     32  C   UNL     1      -3.306  -5.471  -7.376  0.00  0.00    +0.008 A 
ATOM     33 BR   UNL     1      -4.733  -8.608  -9.674  0.00  0.00    -0.050 Br
ENDBRANCH  26  27
ENDBRANCH  25  26
ENDBRANCH   4  25
TORSDOF 8
