REMARK  Name = ZINC58735421
REMARK  9 active torsions:
REMARK  status: ('A' for Active; 'I' for Inactive)
REMARK    1  A    between atoms: C_1  and  C_2
REMARK    2  A    between atoms: C_2  and  N_3
REMARK    3  A    between atoms: C_5  and  C_10
REMARK    4  A    between atoms: N_12  and  C_13
REMARK    5  A    between atoms: N_12  and  C_20
REMARK    6  A    between atoms: C_13  and  C_14
REMARK    7  A    between atoms: C_21  and  N_36
REMARK    8  A    between atoms: N_22  and  C_29
REMARK    9  A    between atoms: C_29  and  C_30
REMARK                            x       y       z     vdW  Elec       q    Type
REMARK                         _______ _______ _______ _____ _____    ______ ____
ROOT
ATOM      1  C   UNL     1      -6.657  -2.704   2.224  0.00  0.00    +0.140 A 
ATOM      2  C   UNL     1      -7.638  -3.507   1.681  0.00  0.00    +0.128 A 
ATOM      3  N   UNL     1      -8.524  -4.144   2.519  0.00  0.00    -0.276 N 
ATOM      4  C   UNL     1      -8.435  -3.985   3.852  0.00  0.00    +0.331 A 
ATOM      5  O   UNL     1      -9.228  -4.557   4.575  0.00  0.00    -0.246 OA
ATOM      6  N   UNL     1      -7.484  -3.207   4.399  0.00  0.00    -0.273 N 
ATOM      7  H   UNL     1      -7.441  -3.109   5.363  0.00  0.00    +0.173 HD
ATOM      8  C   UNL     1      -6.589  -2.565   3.623  0.00  0.00    +0.277 A 
ATOM      9  O   UNL     1      -5.729  -1.865   4.130  0.00  0.00    -0.266 OA
ENDROOT
BRANCH   1  12
ATOM     10  C   UNL     1      -4.426  -2.373   1.430  0.00  0.00    +0.225 C 
ATOM     11  O   UNL     1      -4.058  -3.298   2.122  0.00  0.00    -0.275 OA
ATOM     12  N   UNL     1      -5.733  -2.037   1.391  0.00  0.00    -0.260 N 
BRANCH  10  15
ATOM     13  N   UNL     1      -1.238  -1.968  -0.297  0.00  0.00    -0.301 N 
ATOM     14  C   UNL     1      -1.980  -2.014   0.968  0.00  0.00    +0.121 C 
ATOM     15  C   UNL     1      -3.425  -1.597   0.613  0.00  0.00    +0.101 C 
ATOM     16  C   UNL     1      -3.508  -1.986  -0.881  0.00  0.00    +0.110 C 
ATOM     17  C   UNL     1      -2.071  -1.951  -1.352  0.00  0.00    +0.216 C 
ATOM     18  O   UNL     1      -1.721  -1.916  -2.513  0.00  0.00    -0.276 OA
BRANCH  13  20
ATOM     19  C   UNL     1       0.705  -0.484  -0.389  0.00  0.00    +0.024 C 
ATOM     20  C   UNL     1       0.224  -1.937  -0.397  0.00  0.00    +0.104 C 
ENDBRANCH  13  20
ENDBRANCH  10  15
BRANCH  12  21
ATOM     21  C   UNL     1      -6.192  -0.982   0.485  0.00  0.00    +0.149 C 
BRANCH  21  22
ATOM     22  C   UNL     1      -6.294   0.319   1.240  0.00  0.00    -0.030 A 
ATOM     23  C   UNL     1      -7.428   0.603   1.977  0.00  0.00    +0.005 A 
ATOM     24  C   UNL     1      -7.521   1.796   2.669  0.00  0.00    +0.000 A 
ATOM     25  C   UNL     1      -6.480   2.705   2.624  0.00  0.00    +0.000 A 
ATOM     26  C   UNL     1      -5.346   2.420   1.888  0.00  0.00    +0.000 A 
ATOM     27  C   UNL     1      -5.250   1.225   1.199  0.00  0.00    +0.005 A 
ENDBRANCH  21  22
ENDBRANCH  12  21
ENDBRANCH   1  12
BRANCH   2  28
ATOM     28  N   UNL     1      -7.730  -3.668   0.320  0.00  0.00    -0.343 N 
ATOM     29  H   UNL     1      -7.045  -3.301  -0.260  0.00  0.00    +0.144 HD
ATOM     30  H   UNL     1      -8.481  -4.150  -0.062  0.00  0.00    +0.144 HD
ENDBRANCH   2  28
BRANCH   3  31
ATOM     31  C   UNL     1      -9.572  -4.999   1.956  0.00  0.00    +0.163 C 
BRANCH  31  32
ATOM     32  C   UNL     1      -9.058  -6.411   1.837  0.00  0.00    -0.028 A 
ATOM     33  C   UNL     1      -8.419  -6.818   0.681  0.00  0.00    +0.005 A 
ATOM     34  C   UNL     1      -7.947  -8.113   0.572  0.00  0.00    +0.000 A 
ATOM     35  C   UNL     1      -8.114  -9.000   1.618  0.00  0.00    +0.000 A 
ATOM     36  C   UNL     1      -8.752  -8.592   2.775  0.00  0.00    +0.000 A 
ATOM     37  C   UNL     1      -9.220  -7.296   2.886  0.00  0.00    +0.005 A 
ENDBRANCH  31  32
ENDBRANCH   3  31
TORSDOF 8
