REMARK  Name = ZINC20716563
REMARK  8 active torsions:
REMARK  status: ('A' for Active; 'I' for Inactive)
REMARK    1  A    between atoms: C_4  and  C_7
REMARK    2  A    between atoms: C_7  and  C_8
REMARK    3  A    between atoms: N_11  and  C_14
REMARK    4  A    between atoms: C_14  and  C_16
REMARK    5  A    between atoms: C_14  and  C_34
REMARK    6  A    between atoms: C_23  and  O_26
REMARK    7  A    between atoms: O_26  and  C_27
REMARK    8  A    between atoms: C_27  and  C_28
REMARK                            x       y       z     vdW  Elec       q    Type
REMARK                         _______ _______ _______ _____ _____    ______ ____
ROOT
ATOM      1  C   UNL     1      -1.760   4.206   0.040  0.00  0.00    +0.080 C 
ENDROOT
BRANCH   1   2
ATOM      2  C   UNL     1      -0.808   3.037   0.025  0.00  0.00    -0.025 A 
ATOM      3  C   UNL     1      -1.141   1.737   0.016  0.00  0.00    +0.086 A 
ATOM      4  N   UNL     1      -0.011   0.966   0.007  0.00  0.00    -0.360 N 
ATOM      5  H   UNL     1      -0.094  -0.131   0.006  0.00  0.00    +0.165 HD
ATOM      6  C   UNL     1       1.107   1.774   0.001  0.00  0.00    +0.047 A 
ATOM      7  C   UNL     1       0.655   3.106   0.012  0.00  0.00    +0.005 A 
ATOM      8  C   UNL     1       1.576   4.155   0.009  0.00  0.00    +0.056 A 
ATOM      9  C   UNL     1       2.928   3.876  -0.004  0.00  0.00    +0.122 A 
ATOM     10  C   UNL     1       3.372   2.556  -0.015  0.00  0.00    +0.048 A 
ATOM     11  C   UNL     1       2.473   1.513  -0.012  0.00  0.00    +0.030 A 
BRANCH   9  12
ATOM     12  O   UNL     1       3.830   4.894  -0.007  0.00  0.00    -0.487 OA
BRANCH  12  13
ATOM     13  C   UNL     1       5.213   4.535  -0.022  0.00  0.00    +0.264 C 
BRANCH  13  14
ATOM     14  C   UNL     1       6.056   5.785  -0.023  0.00  0.00    -0.010 A 
ATOM     15  C   UNL     1       6.436   6.361  -1.220  0.00  0.00    +0.007 A 
ATOM     16  C   UNL     1       7.205   7.510  -1.222  0.00  0.00    +0.000 A 
ATOM     17  C   UNL     1       7.602   8.076  -0.025  0.00  0.00    +0.000 A 
ATOM     18  C   UNL     1       7.226   7.497   1.173  0.00  0.00    +0.000 A 
ATOM     19  C   UNL     1       6.453   6.351   1.174  0.00  0.00    +0.007 A 
ENDBRANCH  13  14
ENDBRANCH  12  13
ENDBRANCH   9  12
ENDBRANCH   1   2
BRANCH   1  23
ATOM     20  C   UNL     1      -5.147   3.729   2.606  0.00  0.00    -0.010 C 
ATOM     21  C   UNL     1      -5.315   4.440   1.260  0.00  0.00    -0.015 C 
ATOM     22  C   UNL     1      -3.949   4.932   0.774  0.00  0.00    -0.077 C 
ATOM     23  N   UNL     1      -3.037   3.790   0.635  0.00  0.00    +0.392 N 
ATOM     24  C   UNL     1      -2.823   3.120   1.924  0.00  0.00    -0.077 C 
ATOM     25  C   UNL     1      -4.155   2.574   2.444  0.00  0.00    -0.015 C 
ATOM     26  H   UNL     1      -3.509   3.065  -0.045  0.00  0.00    -0.080 HD
BRANCH  20  27
ATOM     27  C   UNL     1      -6.499   3.182   3.067  0.00  0.00    +0.038 C 
BRANCH  27  31
ATOM     28  C   UNL     1      -6.100   1.508   6.976  0.00  0.00    +0.000 A 
ATOM     29  C   UNL     1      -6.430   2.842   6.826  0.00  0.00    +0.000 A 
ATOM     30  C   UNL     1      -6.559   3.383   5.561  0.00  0.00    +0.003 A 
ATOM     31  C   UNL     1      -6.358   2.591   4.446  0.00  0.00    -0.047 A 
ATOM     32  C   UNL     1      -6.033   1.256   4.596  0.00  0.00    +0.003 A 
ATOM     33  C   UNL     1      -5.899   0.715   5.861  0.00  0.00    +0.000 A 
ENDBRANCH  27  31
ENDBRANCH  20  27
ENDBRANCH   1  23
BRANCH   1  34
ATOM     34  C   UNL     1      -1.994   4.680  -1.371  0.00  0.00    +0.347 C 
ATOM     35  O   UNL     1      -3.111   4.673  -1.834  0.00  0.00    -0.248 OA
ATOM     36  O   UNL     1      -0.963   5.111  -2.115  0.00  0.00    -0.248 OA
ENDBRANCH   1  34
TORSDOF 8
