REMARK  Name = ZINC63361889
REMARK  8 active torsions:
REMARK  status: ('A' for Active; 'I' for Inactive)
REMARK    1  A    between atoms: C_1  and  C_2
REMARK    2  A    between atoms: C_2  and  C_4
REMARK    3  A    between atoms: C_2  and  N_10
REMARK    4  A    between atoms: C_11  and  C_13
REMARK    5  A    between atoms: C_16  and  N_19
REMARK    6  A    between atoms: C_22  and  C_40
REMARK    7  A    between atoms: C_28  and  O_33
REMARK    8  A    between atoms: O_33  and  C_34
REMARK                            x       y       z     vdW  Elec       q    Type
REMARK                         _______ _______ _______ _____ _____    ______ ____
ROOT
ATOM      1  N   UNL     1      -7.324  -2.611   1.221  0.00  0.00    -0.192 N 
ATOM      2  C   UNL     1      -8.028  -2.869   2.342  0.00  0.00    +0.253 C 
ATOM      3  O   UNL     1      -7.646  -2.763   3.488  0.00  0.00    -0.272 OA
ATOM      4  C   UNL     1      -9.393  -3.319   1.872  0.00  0.00    +0.137 C 
ATOM      5  C   UNL     1      -9.699  -4.729   2.376  0.00  0.00    +0.139 C 
ATOM      6  C   UNL     1      -9.688  -5.654   1.167  0.00  0.00    -0.034 C 
ATOM      7  C   UNL     1      -8.803  -6.609   1.438  0.00  0.00    +0.003 A 
ATOM      8  C   UNL     1      -8.401  -7.812   0.693  0.00  0.00    +0.055 A 
ATOM      9  C   UNL     1      -7.438  -8.589   1.262  0.00  0.00    +0.121 A 
ATOM     10  C   UNL     1      -6.827  -8.304   2.491  0.00  0.00    +0.047 A 
ATOM     11  C   UNL     1      -7.125  -7.227   3.262  0.00  0.00    +0.029 A 
ATOM     12  C   UNL     1      -8.157  -6.313   2.753  0.00  0.00    +0.043 A 
ATOM     13  N   UNL     1      -8.659  -5.221   3.283  0.00  0.00    -0.375 N 
ATOM     14  C   UNL     1     -10.503  -5.410  -0.079  0.00  0.00    +0.052 C 
ATOM     15  C   UNL     1     -10.221  -3.961  -0.524  0.00  0.00    +0.115 C 
ATOM     16  N   UNL     1      -9.242  -3.388   0.404  0.00  0.00    -0.268 N 
ATOM     17  C   UNL     1      -8.039  -2.870   0.118  0.00  0.00    +0.316 C 
ATOM     18  O   UNL     1      -7.642  -2.662  -1.012  0.00  0.00    -0.252 OA
ATOM     19  C   UNL     1     -10.479  -2.320   2.276  0.00  0.00    +0.044 C 
ATOM     20  H   UNL     1      -8.393  -4.806   4.118  0.00  0.00    +0.160 HD
ENDROOT
BRANCH   1  24
ATOM     21  C   UNL     1      -3.414  -1.166   1.191  0.00  0.00    +0.037 A 
ATOM     22  C   UNL     1      -4.035  -1.530  -0.006  0.00  0.00    +0.015 A 
ATOM     23  C   UNL     1      -5.327  -2.006   0.007  0.00  0.00    +0.025 A 
ATOM     24  C   UNL     1      -6.013  -2.126   1.211  0.00  0.00    +0.045 A 
ATOM     25  C   UNL     1      -5.398  -1.765   2.405  0.00  0.00    +0.025 A 
ATOM     26  C   UNL     1      -4.104  -1.293   2.399  0.00  0.00    +0.015 A 
BRANCH  21  28
ATOM     27  N   UNL     1      -1.364  -0.533   0.015  0.00  0.00    -0.305 N 
ATOM     28  C   UNL     1      -2.029  -0.655   1.181  0.00  0.00    +0.245 C 
ATOM     29  O   UNL     1      -1.488  -0.344   2.224  0.00  0.00    -0.270 OA
ATOM     30  H   UNL     1      -1.796  -0.781  -0.818  0.00  0.00    +0.150 HD
BRANCH  27  32
ATOM     31  C   UNL     1      -0.011   1.503  -0.017  0.00  0.00    +0.033 C 
ATOM     32  C   UNL     1       0.010  -0.026   0.004  0.00  0.00    +0.100 C 
BRANCH  32  33
ATOM     33  C   UNL     1       0.725  -0.536  -1.221  0.00  0.00    -0.027 A 
ATOM     34  C   UNL     1       0.063  -0.591  -2.434  0.00  0.00    +0.005 A 
ATOM     35  C   UNL     1       0.718  -1.058  -3.558  0.00  0.00    +0.000 A 
ATOM     36  C   UNL     1       2.035  -1.470  -3.469  0.00  0.00    +0.000 A 
ATOM     37  C   UNL     1       2.696  -1.415  -2.257  0.00  0.00    +0.000 A 
ATOM     38  C   UNL     1       2.043  -0.943  -1.134  0.00  0.00    +0.005 A 
ENDBRANCH  32  33
ENDBRANCH  27  32
ENDBRANCH  21  28
ENDBRANCH   1  24
BRANCH   9  39
ATOM     39  O   UNL     1      -7.045  -9.707   0.597  0.00  0.00    -0.495 OA
ATOM     40  C   UNL     1      -6.034 -10.507   1.214  0.00  0.00    +0.277 C 
ENDBRANCH   9  39
TORSDOF 5
