REMARK  Name = ZINC02872287
REMARK  7 active torsions:
REMARK  status: ('A' for Active; 'I' for Inactive)
REMARK    1  A    between atoms: C_1  and  C_2
REMARK    2  A    between atoms: C_2  and  C_32
REMARK    3  A    between atoms: C_9  and  C_19
REMARK    4  A    between atoms: C_9  and  N_23
REMARK    5  A    between atoms: N_12  and  C_13
REMARK    6  A    between atoms: C_13  and  C_14
REMARK    7  A    between atoms: C_24  and  C_26
REMARK                            x       y       z     vdW  Elec       q    Type
REMARK                         _______ _______ _______ _____ _____    ______ ____
ROOT
ATOM      1  C   UNL     1       0.026   1.320   0.547  0.00  0.00    +0.011 C 
ATOM      2  C   UNL     1       0.105  -0.206   0.475  0.00  0.00    -0.023 C 
ATOM      3  C   UNL     1       0.658  -0.622  -0.893  0.00  0.00    +0.058 C 
ATOM      4  C   UNL     1       2.081  -0.113  -1.000  0.00  0.00    +0.024 C 
ATOM      5  C   UNL     1       2.850   0.086   0.105  0.00  0.00    +0.053 C 
ATOM      6  C   UNL     1       2.409  -0.165   1.413  0.00  0.00    +0.164 C 
ATOM      7  O   UNL     1       3.125   0.056   2.369  0.00  0.00    -0.292 OA
ATOM      8  C   UNL     1       1.013  -0.720   1.593  0.00  0.00    +0.086 C 
ATOM      9  C   UNL     1       4.180   0.595  -0.378  0.00  0.00    +0.237 C 
ATOM     10  C   UNL     1       4.010   0.633  -1.886  0.00  0.00    +0.257 C 
ATOM     11  O   UNL     1       4.835   0.982  -2.703  0.00  0.00    -0.272 OA
ATOM     12  N   UNL     1       2.758   0.201  -2.135  0.00  0.00    -0.265 N 
ATOM     13  C   UNL     1      -1.297  -0.794   0.650  0.00  0.00    +0.011 C 
ENDROOT
BRANCH   9  14
ATOM     14  C   UNL     1       5.302  -0.367   0.015  0.00  0.00    +0.424 C 
ATOM     15  F   UNL     1       5.001  -1.651  -0.453  0.00  0.00    -0.167 F 
ATOM     16  F   UNL     1       6.506   0.065  -0.550  0.00  0.00    -0.167 F 
ATOM     17  F   UNL     1       5.424  -0.396   1.409  0.00  0.00    -0.167 F 
ENDBRANCH   9  14
BRANCH   9  18
ATOM     18  N   UNL     1       4.440   1.938   0.147  0.00  0.00    -0.291 N 
ATOM     19  C   UNL     1       3.630   2.962  -0.188  0.00  0.00    +0.217 C 
ATOM     20  O   UNL     1       2.632   2.755  -0.845  0.00  0.00    -0.275 OA
ATOM     21  H   UNL     1       5.196   2.090   0.735  0.00  0.00    +0.150 HD
BRANCH  19  22
ATOM     22  C   UNL     1       3.965   4.363   0.254  0.00  0.00    +0.075 C 
ATOM     23  C   UNL     1       4.017   4.418   1.782  0.00  0.00    +0.013 C 
ATOM     24  C   UNL     1       4.357   5.840   2.230  0.00  0.00    +0.001 C 
ATOM     25  C   UNL     1       3.284   6.805   1.722  0.00  0.00    +0.000 C 
ATOM     26  C   UNL     1       3.231   6.751   0.194  0.00  0.00    +0.001 C 
ATOM     27  C   UNL     1       2.892   5.328  -0.255  0.00  0.00    +0.013 C 
ENDBRANCH  19  22
ENDBRANCH   9  18
BRANCH  12  28
ATOM     28  C   UNL     1       2.190   0.083  -3.480  0.00  0.00    +0.187 C 
BRANCH  28  29
ATOM     29  C   UNL     1       1.517   1.377  -3.857  0.00  0.00    +0.122 A 
ATOM     30  C   UNL     1       2.101   2.413  -4.486  0.00  0.00    +0.046 A 
ATOM     31  C   UNL     1       1.110   3.411  -4.639  0.00  0.00    +0.041 A 
ATOM     32  C   UNL     1      -0.020   2.925  -4.094  0.00  0.00    +0.195 A 
ATOM     33  O   UNL     1       0.231   1.690  -3.627  0.00  0.00    -0.466 OA
ENDBRANCH  28  29
ENDBRANCH  12  28
TORSDOF 5
