REMARK  Name = ZINC20157474
REMARK  10 active torsions:
REMARK  status: ('A' for Active; 'I' for Inactive)
REMARK    1  A    between atoms: C_1  and  C_2
REMARK    2  A    between atoms: C_2  and  C_26
REMARK    3  A    between atoms: N_3  and  N_4
REMARK    4  A    between atoms: C_7  and  S_10
REMARK    5  A    between atoms: S_10  and  C_11
REMARK    6  A    between atoms: C_11  and  C_12
REMARK    7  A    between atoms: N_14  and  C_15
REMARK    8  A    between atoms: C_18  and  O_21
REMARK    9  A    between atoms: O_21  and  C_22
REMARK   10  A    between atoms: C_29  and  N_32
REMARK                            x       y       z     vdW  Elec       q    Type
REMARK                         _______ _______ _______ _____ _____    ______ ____
ROOT
ATOM      1  N   UNL     1       4.654  -9.948  -1.474  0.00  0.00    -0.205 N 
ATOM      2  C   UNL     1       4.079  -8.824  -1.911  0.00  0.00    +0.232 A 
ATOM      3  N   UNL     1       4.719  -7.647  -2.212  0.00  0.00    -0.186 NA
ATOM      4  C   UNL     1       3.746  -6.777  -2.616  0.00  0.00    +0.211 A 
ATOM      5  N   UNL     1       2.566  -7.431  -2.546  0.00  0.00    -0.144 NA
ATOM      6  N   UNL     1       2.763  -8.634  -2.137  0.00  0.00    -0.245 N 
ATOM      7  H   UNL     1       5.743  -9.987  -1.324  0.00  0.00    +0.177 HD
ATOM      8  H   UNL     1       2.052  -9.455  -1.965  0.00  0.00    +0.192 HD
ENDROOT
BRANCH   1  11
ATOM      9  C   UNL     1       3.665 -13.287  -0.437  0.00  0.00    +0.068 C 
ATOM     10  C   UNL     1       4.505 -12.125  -0.902  0.00  0.00    +0.063 C 
ATOM     11  N   UNL     1       3.931 -10.988  -1.228  0.00  0.00    -0.184 NA
BRANCH  10  12
ATOM     12  C   UNL     1       5.960 -12.263  -0.992  0.00  0.00    -0.002 A 
ATOM     13  C   UNL     1       6.665 -11.649  -2.039  0.00  0.00    +0.012 A 
ATOM     14  C   UNL     1       8.034 -11.780  -2.112  0.00  0.00    +0.033 A 
ATOM     15  C   UNL     1       8.714 -12.524  -1.161  0.00  0.00    +0.126 A 
ATOM     16  C   UNL     1       8.027 -13.139  -0.127  0.00  0.00    +0.033 A 
ATOM     17  C   UNL     1       6.659 -13.015  -0.034  0.00  0.00    +0.012 A 
BRANCH  15  18
ATOM     18  N   UNL     1      10.185 -12.664  -1.252  0.00  0.00    +0.056 N 
ATOM     19  O   UNL     1      10.836 -13.370  -0.351  0.00  0.00    -0.126 OA
ATOM     20  O   UNL     1      10.843 -12.082  -2.233  0.00  0.00    -0.126 OA
ENDBRANCH  15  18
ENDBRANCH  10  12
ENDBRANCH   1  11
BRANCH   4  21
ATOM     21  S   UNL     1       3.978  -5.155  -3.112  0.00  0.00    -0.075 S 
BRANCH  21  22
ATOM     22  C   UNL     1       2.267  -4.690  -3.477  0.00  0.00    +0.173 C 
BRANCH  22  23
ATOM     23  C   UNL     1       2.225  -3.259  -3.946  0.00  0.00    +0.227 C 
ATOM     24  O   UNL     1       3.251  -2.616  -4.026  0.00  0.00    -0.275 OA
ATOM     25  N   UNL     1       1.048  -2.692  -4.277  0.00  0.00    -0.285 N 
ATOM     26  H   UNL     1       0.109  -3.244  -4.122  0.00  0.00    +0.155 HD
BRANCH  25  27
ATOM     27  C   UNL     1       1.019  -1.401  -4.819  0.00  0.00    +0.034 A 
ATOM     28  C   UNL     1       2.046  -0.974  -5.650  0.00  0.00    +0.027 A 
ATOM     29  C   UNL     1       2.018   0.300  -6.184  0.00  0.00    +0.048 A 
ATOM     30  C   UNL     1       0.963   1.152  -5.891  0.00  0.00    +0.130 A 
ATOM     31  C   UNL     1      -0.063   0.725  -5.061  0.00  0.00    +0.048 A 
ATOM     32  C   UNL     1      -0.036  -0.547  -4.526  0.00  0.00    +0.027 A 
BRANCH  30  33
ATOM     33  O   UNL     1       0.935   2.405  -6.417  0.00  0.00    -0.406 OA
BRANCH  33  34
ATOM     34  C   UNL     1      -0.180   3.229  -6.072  0.00  0.00    +0.575 C 
ATOM     35  F   UNL     1      -0.221   3.402  -4.685  0.00  0.00    -0.133 F 
ATOM     36  F   UNL     1      -0.050   4.475  -6.694  0.00  0.00    -0.133 F 
ATOM     37  F   UNL     1      -1.362   2.616  -6.501  0.00  0.00    -0.133 F 
ENDBRANCH  33  34
ENDBRANCH  30  33
ENDBRANCH  25  27
ENDBRANCH  22  23
ENDBRANCH  21  22
ENDBRANCH   4  21
TORSDOF 9
