REMARK  Name = ZINC09325295
REMARK  13 active torsions:
REMARK  status: ('A' for Active; 'I' for Inactive)
REMARK    1  A    between atoms: C_1  and  C_2
REMARK    2  A    between atoms: C_2  and  C_3
REMARK    3  A    between atoms: C_3  and  N_4
REMARK    4  A    between atoms: N_4  and  C_5
REMARK    5  A    between atoms: N_4  and  S_8
REMARK    6  A    between atoms: C_5  and  C_6
REMARK    7  A    between atoms: C_6  and  C_7
REMARK    8  A    between atoms: S_8  and  C_11
REMARK    9  A    between atoms: C_14  and  C_17
REMARK   10  A    between atoms: N_19  and  C_20
REMARK   11  A    between atoms: C_21  and  C_33
REMARK   12  A    between atoms: C_29  and  O_31
REMARK   13  A    between atoms: O_31  and  C_32
REMARK                            x       y       z     vdW  Elec       q    Type
REMARK                         _______ _______ _______ _____ _____    ______ ____
ROOT
ATOM      1  C   UNL     1       2.212   2.520   3.518  0.00  0.00    +0.249 C 
ATOM      2  O   UNL     1       3.240   3.134   3.309  0.00  0.00    -0.270 OA
ATOM      3  N   UNL     1       1.466   2.081   2.485  0.00  0.00    -0.275 N 
ATOM      4  H   UNL     1       0.646   1.591   2.653  0.00  0.00    +0.156 HD
ENDROOT
BRANCH   3   5
ATOM      5  C   UNL     1       1.871   2.330   1.184  0.00  0.00    +0.085 A 
ATOM      6  C   UNL     1       1.245   1.963   0.001  0.00  0.00    +0.068 A 
ATOM      7  C   UNL     1       1.880   2.355  -1.247  0.00  0.00    -0.020 A 
ATOM      8  C   UNL     1       3.034   3.044  -1.109  0.00  0.00    +0.013 A 
ATOM      9  S   UNL     1       3.284   3.172   0.638  0.00  0.00    -0.076 S 
ATOM     10  C   UNL     1       3.899   3.578  -2.211  0.00  0.00    +0.153 C 
ATOM     11  N   UNL     1       3.388   3.015  -3.477  0.00  0.00    -0.262 N 
ATOM     12  C   UNL     1       1.929   2.966  -3.659  0.00  0.00    +0.116 C 
ATOM     13  C   UNL     1       1.315   2.025  -2.622  0.00  0.00    +0.056 C 
ATOM     14  C   UNL     1       4.227   2.562  -4.429  0.00  0.00    +0.403 C 
ATOM     15  O   UNL     1       3.782   2.103  -5.463  0.00  0.00    -0.226 OA
BRANCH   6  16
ATOM     16  C   UNL     1      -0.014   1.213   0.009  0.00  0.00    +0.244 C 
ATOM     17  O   UNL     1       0.002  -0.004   0.002  0.00  0.00    -0.270 OA
ATOM     18  N   UNL     1      -1.191   1.871   0.018  0.00  0.00    -0.325 N 
ATOM     19  H   UNL     1      -2.024   1.375   0.019  0.00  0.00    +0.145 HD
ATOM     20  H   UNL     1      -1.204   2.841   0.023  0.00  0.00    +0.145 HD
ENDBRANCH   6  16
BRANCH  14  21
ATOM     21  O   UNL     1       5.558   2.619  -4.236  0.00  0.00    -0.454 OA
ATOM     22  C   UNL     1       6.402   2.113  -5.305  0.00  0.00    +0.282 C 
ENDBRANCH  14  21
ENDBRANCH   3   5
BRANCH   1  26
ATOM     23  C   UNL     1       0.971   1.757   7.508  0.00  0.00    +0.106 A 
ATOM     24  C   UNL     1       2.142   2.456   7.273  0.00  0.00    +0.029 A 
ATOM     25  C   UNL     1       2.551   2.707   5.979  0.00  0.00    +0.015 A 
ATOM     26  C   UNL     1       1.780   2.254   4.907  0.00  0.00    +0.037 A 
ATOM     27  C   UNL     1       0.598   1.554   5.151  0.00  0.00    +0.015 A 
ATOM     28  C   UNL     1       0.203   1.304   6.449  0.00  0.00    +0.029 A 
BRANCH  23  29
ATOM     29  S   UNL     1       0.456   1.440   9.163  0.00  0.00    +0.061 S 
ATOM     30  O   UNL     1      -0.386   0.297   9.115  0.00  0.00    -0.153 OA
ATOM     31  O   UNL     1       1.626   1.491   9.969  0.00  0.00    -0.153 OA
BRANCH  29  32
ATOM     32  N   UNL     1      -0.497   2.711   9.631  0.00  0.00    -0.177 NA
BRANCH  32  33
ATOM     33  C   UNL     1      -1.943   2.664   9.403  0.00  0.00    +0.109 C 
BRANCH  33  35
ATOM     34  C   UNL     1      -4.153   2.102  10.425  0.00  0.00    +0.005 C 
ATOM     35  C   UNL     1      -2.642   2.150  10.663  0.00  0.00    +0.014 C 
ENDBRANCH  33  35
ENDBRANCH  32  33
BRANCH  32  36
ATOM     36  C   UNL     1       0.106   3.881  10.273  0.00  0.00    +0.109 C 
BRANCH  36  37
ATOM     37  C   UNL     1       0.386   4.954   9.218  0.00  0.00    +0.014 C 
ATOM     38  C   UNL     1       1.016   6.176   9.889  0.00  0.00    +0.005 C 
ENDBRANCH  36  37
ENDBRANCH  32  36
ENDBRANCH  29  32
ENDBRANCH  23  29
ENDBRANCH   1  26
TORSDOF 10
