REMARK  Name = ZINC09274514
REMARK  20 active torsions:
REMARK  status: ('A' for Active; 'I' for Inactive)
REMARK    1  A    between atoms: C_1  and  C_2
REMARK    2  A    between atoms: C_2  and  N_75
REMARK    3  A    between atoms: C_3  and  C_4
REMARK    4  A    between atoms: C_3  and  N_75
REMARK    5  A    between atoms: C_5  and  C_6
REMARK    6  A    between atoms: C_5  and  N_75
REMARK    7  A    between atoms: C_6  and  C_7
REMARK    8  A    between atoms: C_7  and  N_8
REMARK    9  A    between atoms: C_9  and  C_30
REMARK   10  A    between atoms: C_12  and  C_13
REMARK   11  A    between atoms: C_12  and  O_25
REMARK   12  A    between atoms: C_14  and  C_24
REMARK   13  A    between atoms: C_15  and  C_20
REMARK   14  A    between atoms: C_18  and  C_19
REMARK   15  A    between atoms: C_20  and  O_22
REMARK   16  A    between atoms: O_22  and  C_23
REMARK   17  A    between atoms: C_32  and  O_38
REMARK   18  A    between atoms: C_35  and  O_36
REMARK   19  A    between atoms: O_36  and  C_37
REMARK   20  A    between atoms: O_38  and  C_39
REMARK                            x       y       z     vdW  Elec       q    Type
REMARK                         _______ _______ _______ _____ _____    ______ ____
ROOT
ATOM      1  N   UNL     1       3.748   6.470   2.944  0.00  0.00    -0.283 N 
ATOM      2  C   UNL     1       3.203   6.241   1.603  0.00  0.00    +0.148 C 
ATOM      3  C   UNL     1       2.200   5.117   1.730  0.00  0.00    +0.071 C 
ATOM      4  C   UNL     1       1.439   4.565   0.716  0.00  0.00    +0.135 C 
ATOM      5  C   UNL     1       2.193   4.751   3.082  0.00  0.00    +0.249 C 
ATOM      6  O   UNL     1       1.507   3.878   3.582  0.00  0.00    -0.282 OA
ATOM      7  C   UNL     1       3.172   5.610   3.801  0.00  0.00    +0.288 C 
ATOM      8  O   UNL     1       3.411   5.547   4.990  0.00  0.00    -0.266 OA
ENDROOT
BRANCH   4   9
ATOM      9  C   UNL     1       0.592   3.395   0.987  0.00  0.00    +0.041 A 
ATOM     10  C   UNL     1      -0.822   3.372   1.028  0.00  0.00    -0.008 A 
ATOM     11  C   UNL     1      -1.192   2.089   1.306  0.00  0.00    +0.128 A 
ATOM     12  N   UNL     1      -0.051   1.328   1.445  0.00  0.00    -0.352 N 
ATOM     13  H   UNL     1      -0.029   0.380   1.647  0.00  0.00    +0.166 HD
ATOM     14  C   UNL     1       1.026   2.106   1.251  0.00  0.00    +0.024 A 
ATOM     15  C   UNL     1       2.462   1.654   1.310  0.00  0.00    +0.064 C 
ATOM     16  C   UNL     1      -1.745   4.542   0.802  0.00  0.00    +0.047 C 
BRANCH  11  17
ATOM     17  C   UNL     1      -2.569   1.603   1.438  0.00  0.00    +0.356 C 
ATOM     18  O   UNL     1      -3.502   2.370   1.294  0.00  0.00    -0.243 OA
BRANCH  17  19
ATOM     19  O   UNL     1      -2.802   0.305   1.721  0.00  0.00    -0.463 OA
ATOM     20  C   UNL     1      -4.189  -0.107   1.837  0.00  0.00    +0.280 C 
ENDBRANCH  17  19
ENDBRANCH  11  17
ENDBRANCH   4   9
BRANCH   2  21
ATOM     21  C   UNL     1       2.519   7.488   1.103  0.00  0.00    +0.023 A 
ATOM     22  C   UNL     1       1.156   7.642   1.268  0.00  0.00    +0.055 A 
ATOM     23  C   UNL     1       0.527   8.789   0.809  0.00  0.00    +0.121 A 
ATOM     24  C   UNL     1       1.267   9.783   0.184  0.00  0.00    +0.049 A 
ATOM     25  C   UNL     1       2.630   9.629   0.020  0.00  0.00    +0.049 A 
ATOM     26  C   UNL     1       3.259   8.483   0.483  0.00  0.00    +0.126 A 
BRANCH  26  27
ATOM     27  O   UNL     1       4.602   8.334   0.326  0.00  0.00    -0.495 OA
ATOM     28  C   UNL     1       5.301   9.399  -0.321  0.00  0.00    +0.277 C 
ENDBRANCH  26  27
BRANCH  23  29
ATOM     29  O   UNL     1      -0.814   8.941   0.971  0.00  0.00    -0.495 OA
ATOM     30  C   UNL     1      -1.396  10.148   0.474  0.00  0.00    +0.277 C 
ENDBRANCH  23  29
ENDBRANCH   2  21
BRANCH   4  31
ATOM     31  O   UNL     1       1.474   5.100  -0.523  0.00  0.00    -0.506 OA
ATOM     32  H   UNL     1       0.869   4.582  -1.128  0.00  0.00    +0.292 HD
ENDBRANCH   4  31
BRANCH   1  33
ATOM     33  C   UNL     1       4.758   7.472   3.293  0.00  0.00    +0.107 C 
BRANCH  33  34
ATOM     34  C   UNL     1       4.065   8.732   3.818  0.00  0.00    +0.000 C 
BRANCH  34  35
ATOM     35  C   UNL     1       5.111   9.818   4.078  0.00  0.00    -0.077 C 
BRANCH  35  36
ATOM     36  N   UNL     1       4.430  11.020   4.604  0.00  0.00    +0.379 N 
ATOM     37  H   UNL     1       3.840  10.747   5.399  0.00  0.00    -0.082 HD
BRANCH  36  39
ATOM     38  C   UNL     1       6.120  11.460   6.316  0.00  0.00    -0.017 C 
ATOM     39  C   UNL     1       5.429  12.006   5.065  0.00  0.00    -0.082 C 
ENDBRANCH  36  39
BRANCH  36  40
ATOM     40  C   UNL     1       3.577  11.617   3.555  0.00  0.00    -0.082 C 
ATOM     41  C   UNL     1       2.747  12.743   4.175  0.00  0.00    -0.017 C 
ENDBRANCH  36  40
ENDBRANCH  35  36
ENDBRANCH  34  35
ENDBRANCH  33  34
ENDBRANCH   1  33
TORSDOF 13
