REMARK  Name = ZINC04217557
REMARK  17 active torsions:
REMARK  status: ('A' for Active; 'I' for Inactive)
REMARK    1  A    between atoms: C_1  and  C_2
REMARK    2  A    between atoms: C_2  and  N_3
REMARK    3  A    between atoms: N_3  and  C_4
REMARK    4  A    between atoms: N_3  and  C_6
REMARK    5  A    between atoms: C_4  and  C_5
REMARK    6  A    between atoms: C_6  and  C_7
REMARK    7  A    between atoms: C_7  and  S_8
REMARK    8  A    between atoms: S_8  and  C_9
REMARK    9  A    between atoms: C_9  and  C_10
REMARK   10  A    between atoms: C_10  and  O_12
REMARK   11  A    between atoms: O_12  and  C_13
REMARK   12  A    between atoms: C_16  and  C_37
REMARK   13  A    between atoms: C_16  and  C_38
REMARK   14  A    between atoms: C_17  and  O_36
REMARK   15  A    between atoms: C_19  and  C_35
REMARK   16  A    between atoms: C_24  and  C_34
REMARK   17  A    between atoms: C_26  and  C_33
REMARK                            x       y       z     vdW  Elec       q    Type
REMARK                         _______ _______ _______ _____ _____    ______ ____
ROOT
ATOM      1  C   UNL     1       4.561  -9.222   4.173  0.00  0.00    +0.184 C 
ATOM      2  C   UNL     1       3.294  -9.685   4.911  0.00  0.00    +0.058 C 
ATOM      3  C   UNL     1       2.481 -10.772   4.172  0.00  0.00    +0.015 C 
ATOM      4  C   UNL     1       3.267 -12.019   4.071  0.00  0.00    +0.128 C 
ATOM      5  C   UNL     1       4.526 -11.915   3.248  0.00  0.00    +0.022 C 
ATOM      6  C   UNL     1       5.691 -12.376   4.088  0.00  0.00    -0.014 C 
ATOM      7  C   UNL     1       6.999 -12.276   3.316  0.00  0.00    +0.008 C 
ATOM      8  C   UNL     1       7.079 -10.897   2.653  0.00  0.00    +0.004 C 
ATOM      9  C   UNL     1       7.022  -9.792   3.706  0.00  0.00    -0.004 C 
ATOM     10  C   UNL     1       5.831  -9.936   4.634  0.00  0.00    +0.018 C 
ATOM     11  C   UNL     1       5.726 -11.274   5.230  0.00  0.00    +0.071 C 
ATOM     12  C   UNL     1       6.726 -11.847   6.175  0.00  0.00    +0.138 C 
ATOM     13  O   UNL     1       7.532 -11.277   6.867  0.00  0.00    -0.297 OA
ATOM     14  C   UNL     1       6.542 -13.365   6.106  0.00  0.00    +0.075 C 
ATOM     15  C   UNL     1       5.594 -13.643   4.908  0.00  0.00    +0.015 C 
ATOM     16  C   UNL     1       6.248  -9.052   5.823  0.00  0.00    +0.016 C 
ATOM     17  C   UNL     1       7.048  -8.431   3.018  0.00  0.00    +0.008 C 
ATOM     18  C   UNL     1       4.382 -12.867   2.040  0.00  0.00    +0.011 C 
ATOM     19  C   UNL     1       1.213 -11.075   4.995  0.00  0.00    +0.018 C 
ENDROOT
BRANCH   4  20
ATOM     20  O   UNL     1       2.428 -13.022   3.484  0.00  0.00    -0.391 OA
ATOM     21  H   UNL     1       1.628 -13.213   3.992  0.00  0.00    +0.210 HD
ENDBRANCH   4  20
BRANCH   3  22
ATOM     22  C   UNL     1       2.052 -10.296   2.811  0.00  0.00    -0.025 C 
ATOM     23  C   UNL     1       2.274  -9.057   2.450  0.00  0.00    +0.004 C 
ENDBRANCH   3  22
BRANCH   1  24
ATOM     24  O   UNL     1       4.706  -7.821   4.483  0.00  0.00    -0.460 OA
BRANCH  24  25
ATOM     25  C   UNL     1       4.247  -7.410   5.675  0.00  0.00    +0.317 C 
ATOM     26  O   UNL     1       3.832  -8.216   6.474  0.00  0.00    -0.250 OA
BRANCH  25  27
ATOM     27  C   UNL     1       4.248  -5.942   6.018  0.00  0.00    +0.189 C 
BRANCH  27  28
ATOM     28  S   UNL     1       3.572  -5.710   7.685  0.00  0.00    -0.151 S 
BRANCH  28  29
ATOM     29  C   UNL     1       3.641  -3.916   7.941  0.00  0.00    +0.051 C 
BRANCH  29  30
ATOM     30  C   UNL     1       3.093  -3.577   9.329  0.00  0.00    -0.068 C 
BRANCH  30  31
ATOM     31  N   UNL     1       3.264  -2.140   9.586  0.00  0.00    +0.380 N 
ATOM     32  H   UNL     1       4.234  -1.890   9.462  0.00  0.00    -0.082 HD
BRANCH  31  34
ATOM     33  C   UNL     1       2.709   0.121   8.829  0.00  0.00    -0.017 C 
ATOM     34  C   UNL     1       2.437  -1.373   8.645  0.00  0.00    -0.082 C 
ENDBRANCH  31  34
BRANCH  31  35
ATOM     35  C   UNL     1       2.851  -1.836  10.962  0.00  0.00    -0.082 C 
ATOM     36  C   UNL     1       3.785  -2.547  11.944  0.00  0.00    -0.017 C 
ENDBRANCH  31  35
ENDBRANCH  30  31
ENDBRANCH  29  30
ENDBRANCH  28  29
ENDBRANCH  27  28
ENDBRANCH  25  27
ENDBRANCH  24  25
ENDBRANCH   1  24
TORSDOF 11
