REMARK  Name = ZINC58949411
REMARK  8 active torsions:
REMARK  status: ('A' for Active; 'I' for Inactive)
REMARK    1  A    between atoms: C_1  and  C_2
REMARK    2  A    between atoms: C_2  and  O_3
REMARK    3  A    between atoms: O_3  and  C_4
REMARK    4  A    between atoms: C_4  and  C_6
REMARK    5  A    between atoms: C_7  and  N_24
REMARK    6  A    between atoms: C_9  and  C_23
REMARK    7  A    between atoms: C_10  and  C_20
REMARK    8  A    between atoms: C_11  and  C_13
REMARK                            x       y       z     vdW  Elec       q    Type
REMARK                         _______ _______ _______ _____ _____    ______ ____
ROOT
ATOM      1  C   UNL     1       1.463  -2.349   2.421  0.00  0.00    +0.105 C 
ATOM      2  C   UNL     1       1.489  -3.695   2.608  0.00  0.00    +0.195 C 
ATOM      3  O   UNL     1       2.120  -4.245   3.660  0.00  0.00    -0.446 OA
ATOM      4  C   UNL     1       2.415  -3.492   4.732  0.00  0.00    +0.113 C 
ATOM      5  C   UNL     1       2.444  -2.156   4.673  0.00  0.00    +0.064 C 
ATOM      6  C   UNL     1       2.151  -1.425   3.389  0.00  0.00    +0.099 C 
ATOM      7  C   UNL     1       2.723  -4.173   6.041  0.00  0.00    +0.087 C 
ENDROOT
BRANCH   6   8
ATOM      8  C   UNL     1       3.440  -0.934   2.782  0.00  0.00    -0.035 A 
ATOM      9  C   UNL     1       4.421  -1.837   2.419  0.00  0.00    +0.006 A 
ATOM     10  C   UNL     1       5.604  -1.387   1.862  0.00  0.00    +0.020 A 
ATOM     11  C   UNL     1       5.805  -0.032   1.668  0.00  0.00    +0.041 A 
ATOM     12  C   UNL     1       4.822   0.872   2.032  0.00  0.00    +0.020 A 
ATOM     13  C   UNL     1       3.638   0.420   2.584  0.00  0.00    +0.006 A 
ATOM     14 CL   UNL     1       7.290   0.534   0.969  0.00  0.00    -0.084 Cl
ENDBRANCH   6   8
BRANCH   5  15
ATOM     15  C   UNL     1       2.772  -1.392   5.876  0.00  0.00    +0.242 C 
ATOM     16  O   UNL     1       3.015  -1.972   6.918  0.00  0.00    -0.271 OA
ATOM     17  N   UNL     1       2.804  -0.045   5.830  0.00  0.00    -0.325 N 
ATOM     18  H   UNL     1       2.611   0.417   5.000  0.00  0.00    +0.145 HD
ATOM     19  H   UNL     1       3.022   0.462   6.628  0.00  0.00    +0.145 HD
ENDBRANCH   5  15
BRANCH   2  20
ATOM     20  N   UNL     1       0.858  -4.508   1.705  0.00  0.00    -0.329 N 
ATOM     21  H   UNL     1       0.465  -4.129   0.903  0.00  0.00    +0.145 HD
ATOM     22  H   UNL     1       0.804  -5.463   1.867  0.00  0.00    +0.145 HD
ENDBRANCH   2  20
BRANCH   1  23
ATOM     23  C   UNL     1       0.793  -1.815   1.310  0.00  0.00    +0.341 C 
ATOM     24  O   UNL     1      -0.317  -1.332   1.443  0.00  0.00    -0.245 OA
BRANCH  23  25
ATOM     25  O   UNL     1       1.378  -1.837   0.093  0.00  0.00    -0.462 OA
BRANCH  25  27
ATOM     26  C   UNL     1       1.457  -1.391  -2.281  0.00  0.00    +0.048 C 
ATOM     27  C   UNL     1       0.638  -1.277  -0.993  0.00  0.00    +0.229 C 
ENDBRANCH  25  27
ENDBRANCH  23  25
ENDBRANCH   1  23
TORSDOF 6
