REMARK  Name = ZINC13064068
REMARK  11 active torsions:
REMARK  status: ('A' for Active; 'I' for Inactive)
REMARK    1  A    between atoms: C_1  and  C_2
REMARK    2  A    between atoms: C_2  and  C_3
REMARK    3  A    between atoms: C_3  and  C_5
REMARK    4  A    between atoms: C_3  and  N_67
REMARK    5  A    between atoms: N_9  and  C_10
REMARK    6  A    between atoms: C_16  and  C_17
REMARK    7  A    between atoms: C_16  and  N_67
REMARK    8  A    between atoms: C_22  and  C_23
REMARK    9  A    between atoms: C_22  and  N_67
REMARK   10  A    between atoms: C_27  and  O_35
REMARK   11  A    between atoms: O_35  and  C_36
REMARK                            x       y       z     vdW  Elec       q    Type
REMARK                         _______ _______ _______ _____ _____    ______ ____
ROOT
ATOM      1  N   UNL     1      -2.637   4.947   1.397  0.00  0.00    +0.392 N 
ATOM      2  H   UNL     1      -1.713   5.303   1.669  0.00  0.00    -0.080 HD
ENDROOT
BRANCH   1   3
ATOM      3  C   UNL     1      -3.676   5.852   1.931  0.00  0.00    +0.003 C 
BRANCH   3   4
ATOM      4  C   UNL     1      -3.233   6.348   3.283  0.00  0.00    +0.138 A 
ATOM      5  N   UNL     1      -2.732   5.627   4.256  0.00  0.00    -0.115 NA
ATOM      6  N   UNL     1      -2.478   6.414   5.245  0.00  0.00    -0.023 NA
ATOM      7  N   UNL     1      -2.811   7.617   4.930  0.00  0.00    -0.044 NA
ATOM      8  N   UNL     1      -3.281   7.618   3.728  0.00  0.00    -0.228 N 
BRANCH   8   9
ATOM      9  C   UNL     1      -3.773   8.782   2.987  0.00  0.00    +0.111 C 
ATOM     10  C   UNL     1      -2.648   9.810   2.847  0.00  0.00    +0.027 C 
ATOM     11  C   UNL     1      -3.162  11.025   2.073  0.00  0.00    +0.002 C 
ATOM     12  C   UNL     1      -4.335  11.653   2.829  0.00  0.00    +0.000 C 
ATOM     13  C   UNL     1      -5.460  10.625   2.970  0.00  0.00    +0.002 C 
ATOM     14  C   UNL     1      -4.946   9.409   3.744  0.00  0.00    +0.027 C 
ENDBRANCH   8   9
ENDBRANCH   3   4
BRANCH   3  16
ATOM     15  C   UNL     1      -5.523   4.724   0.683  0.00  0.00    +0.002 C 
ATOM     16  C   UNL     1      -5.008   5.113   2.070  0.00  0.00    -0.011 C 
ENDBRANCH   3  16
ENDBRANCH   1   3
BRANCH   1  17
ATOM     17  C   UNL     1      -2.813   3.590   1.957  0.00  0.00    -0.034 C 
BRANCH  17  18
ATOM     18  C   UNL     1      -1.534   2.817   1.759  0.00  0.00    -0.027 A 
ATOM     19  C   UNL     1      -0.463   2.712   2.584  0.00  0.00    +0.009 A 
ATOM     20  C   UNL     1       0.611   1.937   2.192  0.00  0.00    +0.008 A 
ATOM     21  C   UNL     1       0.563   1.303   0.994  0.00  0.00    +0.045 A 
ATOM     22  S   UNL     1      -1.041   1.793   0.382  0.00  0.00    -0.103 S 
ENDBRANCH  17  18
ENDBRANCH   1  17
BRANCH   1  23
ATOM     23  C   UNL     1      -2.718   4.899  -0.078  0.00  0.00    -0.036 C 
BRANCH  23  24
ATOM     24  C   UNL     1      -2.049   6.127  -0.638  0.00  0.00    +0.001 A 
ATOM     25  C   UNL     1      -0.733   6.091  -0.961  0.00  0.00    +0.017 A 
ATOM     26  C   UNL     1      -0.113   7.300  -1.509  0.00  0.00    +0.002 A 
ATOM     27  C   UNL     1       1.239   7.320  -1.866  0.00  0.00    +0.055 A 
ATOM     28  C   UNL     1       1.792   8.477  -2.374  0.00  0.00    +0.121 A 
ATOM     29  C   UNL     1       1.011   9.620  -2.532  0.00  0.00    +0.047 A 
ATOM     30  C   UNL     1      -0.321   9.612  -2.185  0.00  0.00    +0.030 A 
ATOM     31  C   UNL     1      -0.899   8.456  -1.671  0.00  0.00    +0.049 A 
ATOM     32  N   UNL     1      -2.233   8.429  -1.316  0.00  0.00    -0.322 N 
ATOM     33  H   UNL     1      -2.773   9.226  -1.428  0.00  0.00    +0.169 HD
ATOM     34  C   UNL     1      -2.793   7.312  -0.819  0.00  0.00    +0.251 A 
ATOM     35  O   UNL     1      -3.974   7.324  -0.517  0.00  0.00    -0.268 OA
BRANCH  28  36
ATOM     36  O   UNL     1       3.107   8.503  -2.723  0.00  0.00    -0.495 OA
ATOM     37  C   UNL     1       3.616   9.732  -3.243  0.00  0.00    +0.277 C 
ENDBRANCH  28  36
ENDBRANCH  23  24
ENDBRANCH   1  23
TORSDOF 9
