REMARK  Name = ZINC40727425
REMARK  8 active torsions:
REMARK  status: ('A' for Active; 'I' for Inactive)
REMARK    1  A    between atoms: C_1  and  C_2
REMARK    2  A    between atoms: C_3  and  C_25
REMARK    3  A    between atoms: C_9  and  N_24
REMARK    4  A    between atoms: C_10  and  O_14
REMARK    5  A    between atoms: O_14  and  C_15
REMARK    6  A    between atoms: C_18  and  C_21
REMARK    7  A    between atoms: C_21  and  C_22
REMARK    8  A    between atoms: C_21  and  C_23
REMARK                            x       y       z     vdW  Elec       q    Type
REMARK                         _______ _______ _______ _____ _____    ______ ____
ROOT
ATOM      1  C   UNL     1       0.221   1.486  -0.002  0.00  0.00    +0.066 C 
ATOM      2  C   UNL     1       0.195  -0.021  -0.006  0.00  0.00    +0.050 A 
ATOM      3  C   UNL     1       0.192  -0.725  -1.164  0.00  0.00    +0.011 A 
ATOM      4  S   UNL     1       0.159  -2.396  -0.538  0.00  0.00    -0.057 S 
ATOM      5  C   UNL     1       0.153  -2.030   1.105  0.00  0.00    +0.164 A 
ATOM      6  N   UNL     1       0.180  -0.714   1.118  0.00  0.00    -0.230 NA
ATOM      7  N   UNL     1       0.131  -2.902   2.183  0.00  0.00    -0.277 N 
ATOM      8  C   UNL     1       0.130  -2.404   3.481  0.00  0.00    +0.152 A 
ATOM      9  C   UNL     1       0.113  -3.273   4.575  0.00  0.00    +0.128 A 
ATOM     10  C   UNL     1       0.112  -2.720   5.855  0.00  0.00    +0.246 A 
ATOM     11  N   UNL     1       0.129  -1.397   5.986  0.00  0.00    -0.199 NA
ATOM     12  C   UNL     1       0.144  -0.612   4.928  0.00  0.00    +0.227 A 
ATOM     13  N   UNL     1       0.151  -1.092   3.701  0.00  0.00    -0.218 NA
ATOM     14  C   UNL     1       0.210  -0.232  -2.588  0.00  0.00    +0.053 C 
ATOM     15  H   UNL     1       0.115  -3.860   2.031  0.00  0.00    +0.156 HD
ENDROOT
BRANCH   9  16
ATOM     16  N   UNL     1       0.095  -4.664   4.391  0.00  0.00    -0.351 N 
ATOM     17  H   UNL     1       0.095  -5.034   3.494  0.00  0.00    +0.143 HD
ATOM     18  H   UNL     1       0.084  -5.255   5.160  0.00  0.00    +0.143 HD
ENDBRANCH   9  16
BRANCH  10  19
ATOM     19  O   UNL     1       0.096  -3.521   6.951  0.00  0.00    -0.436 OA
BRANCH  19  20
ATOM     20  C   UNL     1       0.198  -2.933   8.172  0.00  0.00    +0.130 A 
ATOM     21  C   UNL     1      -0.901  -2.296   8.731  0.00  0.00    +0.046 A 
ATOM     22  C   UNL     1      -0.794  -1.700   9.972  0.00  0.00    +0.007 A 
ATOM     23  C   UNL     1       0.406  -1.737  10.657  0.00  0.00    -0.045 A 
ATOM     24  C   UNL     1       1.503  -2.370  10.102  0.00  0.00    +0.007 A 
ATOM     25  C   UNL     1       1.400  -2.973   8.864  0.00  0.00    +0.046 A 
BRANCH  23  26
ATOM     26  C   UNL     1       0.519  -1.085  12.011  0.00  0.00    +0.013 C 
ATOM     27  C   UNL     1       0.906  -2.137  13.053  0.00  0.00    +0.012 C 
ATOM     28  C   UNL     1       1.593   0.005  11.965  0.00  0.00    +0.012 C 
ENDBRANCH  23  26
ENDBRANCH  19  20
ENDBRANCH  10  19
TORSDOF 4
