REMARK  Name = ZINC41585848
REMARK  6 active torsions:
REMARK  status: ('A' for Active; 'I' for Inactive)
REMARK    1  A    between atoms: C_1  and  C_2
REMARK    2  A    between atoms: C_6  and  C_8
REMARK    3  A    between atoms: C_13  and  C_33
REMARK    4  A    between atoms: C_15  and  O_32
REMARK    5  A    between atoms: C_16  and  C_19
REMARK    6  A    between atoms: C_19  and  N_20
REMARK                            x       y       z     vdW  Elec       q    Type
REMARK                         _______ _______ _______ _____ _____    ______ ____
ROOT
ATOM      1  C   UNL     1      -0.051  -2.854   2.527  0.00  0.00    +0.058 C 
ATOM      2  C   UNL     1      -0.118  -4.208   2.501  0.00  0.00    +0.176 C 
ATOM      3  C   UNL     1      -0.227  -5.096   3.669  0.00  0.00    +0.232 C 
ATOM      4  O   UNL     1      -0.276  -4.780   4.845  0.00  0.00    -0.283 OA
ATOM      5  C   UNL     1      -0.265  -6.455   3.098  0.00  0.00    +0.071 A 
ATOM      6  C   UNL     1      -0.360  -7.726   3.665  0.00  0.00    -0.033 A 
ATOM      7  C   UNL     1      -0.372  -8.831   2.862  0.00  0.00    +0.050 A 
ATOM      8  C   UNL     1      -0.289  -8.691   1.479  0.00  0.00    +0.125 A 
ATOM      9  C   UNL     1      -0.194  -7.435   0.902  0.00  0.00    +0.051 A 
ATOM     10  C   UNL     1      -0.181  -6.301   1.705  0.00  0.00    +0.148 A 
ATOM     11  O   UNL     1      -0.103  -4.989   1.395  0.00  0.00    -0.451 OA
ATOM     12  C   UNL     1      -0.450  -7.881   5.162  0.00  0.00    +0.045 C 
ENDROOT
BRANCH   1  18
ATOM     13  C   UNL     1      -0.199   1.516   0.133  0.00  0.00    +0.044 C 
ATOM     14  C   UNL     1      -0.134   0.011   0.110  0.00  0.00    -0.050 A 
ATOM     15  C   UNL     1      -0.084  -0.659  -1.101  0.00  0.00    +0.003 A 
ATOM     16  C   UNL     1      -0.024  -2.041  -1.133  0.00  0.00    +0.001 A 
ATOM     17  C   UNL     1      -0.013  -2.763   0.042  0.00  0.00    +0.008 A 
ATOM     18  C   UNL     1      -0.062  -2.093   1.269  0.00  0.00    -0.021 A 
ATOM     19  C   UNL     1      -0.118  -0.695   1.294  0.00  0.00    +0.011 A 
ENDBRANCH   1  18
BRANCH   8  20
ATOM     20  O   UNL     1      -0.301  -9.795   0.689  0.00  0.00    -0.506 OA
ATOM     21  H   UNL     1      -1.185 -10.071   0.412  0.00  0.00    +0.292 HD
ENDBRANCH   8  20
BRANCH   9  22
ATOM     22  C   UNL     1      -0.104  -7.299  -0.596  0.00  0.00    +0.127 C 
BRANCH  22  23
ATOM     23  N   UNL     1      -1.456  -7.185  -1.159  0.00  0.00    -0.295 NA
ATOM     24  C   UNL     1      -2.104  -5.940  -0.726  0.00  0.00    +0.103 C 
ATOM     25  C   UNL     1      -3.567  -5.944  -1.182  0.00  0.00    +0.122 C 
ATOM     26  N   UNL     1      -3.604  -6.192  -2.631  0.00  0.00    -0.314 N 
ATOM     27  C   UNL     1      -2.861  -7.347  -3.158  0.00  0.00    +0.122 C 
ATOM     28  C   UNL     1      -1.426  -7.288  -2.624  0.00  0.00    +0.103 C 
ATOM     29  C   UNL     1      -4.321  -5.357  -3.480  0.00  0.00    +0.099 A 
ATOM     30  C   UNL     1      -4.451  -5.689  -4.825  0.00  0.00    +0.042 A 
ATOM     31  C   UNL     1      -5.167  -4.849  -5.659  0.00  0.00    +0.005 A 
ATOM     32  C   UNL     1      -5.732  -3.702  -5.117  0.00  0.00    +0.018 A 
ATOM     33  C   UNL     1      -5.563  -3.434  -3.774  0.00  0.00    +0.084 A 
ATOM     34  N   UNL     1      -4.879  -4.257  -3.001  0.00  0.00    -0.350 N 
ATOM     35  H   UNL     1      -4.779  -4.047  -2.059  0.00  0.00    +0.166 HD
ENDBRANCH  22  23
ENDBRANCH   9  22
TORSDOF 4
