REMARK  Name = ZINC43761527
REMARK  1 active torsions:
REMARK  status: ('A' for Active; 'I' for Inactive)
REMARK    1  A    between atoms: C_8  and  O_13
REMARK                            x       y       z     vdW  Elec       q    Type
REMARK                         _______ _______ _______ _____ _____    ______ ____
ROOT
ATOM      1  C   UNL     1      -0.019   1.542   0.011  0.00  0.00    +0.001 C 
ATOM      2  C   UNL     1       1.451   2.002  -0.001  0.00  0.00    +0.004 C 
ATOM      3  C   UNL     1       2.312   0.710   0.029  0.00  0.00    -0.005 C 
ATOM      4  C   UNL     1       2.594   0.406   1.502  0.00  0.00    +0.004 C 
ATOM      5  C   UNL     1       3.114  -1.019   1.673  0.00  0.00    +0.003 C 
ATOM      6  C   UNL     1       2.028  -1.993   1.203  0.00  0.00    +0.031 C 
ATOM      7  C   UNL     1       1.796  -1.766  -0.291  0.00  0.00    +0.118 C 
ATOM      8  C   UNL     1       1.379  -0.341  -0.600  0.00  0.00    +0.021 C 
ATOM      9  C   UNL     1       0.002  -0.004   0.002  0.00  0.00    +0.006 C 
ENDROOT
BRANCH   7  10
ATOM     10  O   UNL     1       0.776  -2.658  -0.746  0.00  0.00    -0.392 OA
ATOM     11  H   UNL     1       0.990  -3.594  -0.625  0.00  0.00    +0.210 HD
ENDBRANCH   7  10
TORSDOF 1
