REMARK  Name = ZINC14083684
REMARK  6 active torsions:
REMARK  status: ('A' for Active; 'I' for Inactive)
REMARK    1  A    between atoms: C_4  and  S_27
REMARK    2  A    between atoms: C_5  and  C_7
REMARK    3  A    between atoms: N_12  and  S_15
REMARK    4  A    between atoms: S_15  and  C_18
REMARK    5  A    between atoms: S_27  and  C_28
REMARK    6  A    between atoms: C_28  and  C_29
REMARK                            x       y       z     vdW  Elec       q    Type
REMARK                         _______ _______ _______ _____ _____    ______ ____
ROOT
ATOM      1  C   UNL     1      -0.061   5.452   1.224  0.00  0.00    +0.248 C 
ATOM      2  O   UNL     1       0.987   6.061   1.129  0.00  0.00    -0.270 OA
ATOM      3  N   UNL     1      -0.050   4.118   1.417  0.00  0.00    -0.295 N 
ATOM      4  C   UNL     1       1.218   3.374   1.422  0.00  0.00    +0.125 C 
ATOM      5  C   UNL     1       1.131   2.250   0.382  0.00  0.00    +0.128 C 
ATOM      6  N   UNL     1      -0.124   1.514   0.590  0.00  0.00    -0.174 NA
ATOM      7  C   UNL     1      -1.392   2.257   0.578  0.00  0.00    +0.128 C 
ATOM      8  C   UNL     1      -1.305   3.382   1.624  0.00  0.00    +0.125 C 
ENDROOT
BRANCH   1  13
ATOM      9  C   UNL     1      -3.483   6.743   2.059  0.00  0.00    +0.001 A 
ATOM     10  C   UNL     1      -3.759   7.527   0.949  0.00  0.00    +0.001 A 
ATOM     11  C   UNL     1      -2.839   7.640  -0.072  0.00  0.00    +0.015 A 
ATOM     12  C   UNL     1      -1.626   6.967   0.005  0.00  0.00    +0.020 A 
ATOM     13  C   UNL     1      -1.343   6.172   1.128  0.00  0.00    +0.050 A 
ATOM     14  C   UNL     1      -2.289   6.064   2.152  0.00  0.00    +0.014 A 
BRANCH  12  15
ATOM     15  S   UNL     1      -0.448   7.109  -1.297  0.00  0.00    -0.122 S 
BRANCH  15  16
ATOM     16  C   UNL     1      -1.248   8.214  -2.493  0.00  0.00    +0.106 C 
BRANCH  16  17
ATOM     17  C   UNL     1      -0.321   8.426  -3.692  0.00  0.00    +0.128 C 
ATOM     18  C   UNL     1      -0.941   9.459  -4.657  0.00  0.00    +0.034 C 
ATOM     19  C   UNL     1      -0.589   8.860  -6.048  0.00  0.00    +0.031 C 
ATOM     20  C   UNL     1      -0.674   7.343  -5.746  0.00  0.00    +0.160 C 
ATOM     21  O   UNL     1      -0.167   7.197  -4.410  0.00  0.00    -0.376 OA
ENDBRANCH  16  17
ENDBRANCH  15  16
ENDBRANCH  12  15
ENDBRANCH   1  13
BRANCH   6  22
ATOM     22  S   UNL     1      -0.111  -0.125   0.825  0.00  0.00    +0.061 S 
ATOM     23  O   UNL     1      -1.393  -0.602   0.439  0.00  0.00    -0.153 OA
ATOM     24  O   UNL     1       1.090  -0.610   0.240  0.00  0.00    -0.153 OA
BRANCH  22  25
ATOM     25  C   UNL     1       0.028  -0.401   2.560  0.00  0.00    +0.106 A 
ATOM     26  C   UNL     1      -1.111  -0.505   3.337  0.00  0.00    +0.029 A 
ATOM     27  C   UNL     1      -1.000  -0.722   4.697  0.00  0.00    +0.006 A 
ATOM     28  C   UNL     1       0.248  -0.835   5.285  0.00  0.00    -0.044 A 
ATOM     29  C   UNL     1       1.387  -0.730   4.508  0.00  0.00    -0.042 A 
ATOM     30  C   UNL     1       1.274  -0.519   3.144  0.00  0.00    +0.032 A 
ATOM     31  C   UNL     1       2.616  -0.888   5.378  0.00  0.00    +0.036 C 
ATOM     32  C   UNL     1       2.106  -1.532   6.684  0.00  0.00    +0.009 C 
ATOM     33  C   UNL     1       0.634  -1.070   6.730  0.00  0.00    +0.036 C 
ENDBRANCH  22  25
ENDBRANCH   6  22
TORSDOF 6
