REMARK  Name = ZINC01244886
REMARK  6 active torsions:
REMARK  status: ('A' for Active; 'I' for Inactive)
REMARK    1  A    between atoms: C_4  and  N_7
REMARK    2  A    between atoms: C_8  and  C_10
REMARK    3  A    between atoms: C_10  and  S_11
REMARK    4  A    between atoms: S_11  and  C_12
REMARK    5  A    between atoms: N_18  and  C_19
REMARK    6  A    between atoms: C_19  and  C_20
REMARK                            x       y       z     vdW  Elec       q    Type
REMARK                         _______ _______ _______ _____ _____    ______ ____
ROOT
ATOM      1  C   UNL     1      -0.014   4.206   0.075  0.00  0.00    +0.173 A 
ATOM      2  N   UNL     1       1.133   3.557   0.064  0.00  0.00    -0.223 NA
ATOM      3  C   UNL     1       1.166   2.220   0.033  0.00  0.00    +0.083 A 
ATOM      4  C   UNL     1      -0.018   1.499   0.041  0.00  0.00    +0.050 A 
ATOM      5  C   UNL     1      -1.234   2.196   0.053  0.00  0.00    +0.259 A 
ATOM      6  O   UNL     1      -2.296   1.595   0.055  0.00  0.00    -0.267 OA
ATOM      7  N   UNL     1      -1.205   3.546   0.059  0.00  0.00    -0.280 N 
ATOM      8  C   UNL     1       0.003  -0.005   0.042  0.00  0.00    +0.007 C 
ATOM      9  C   UNL     1      -1.311  -0.527  -0.548  0.00  0.00    +0.012 C 
ATOM     10  C   UNL     1      -1.298  -2.057  -0.543  0.00  0.00    +0.001 C 
ATOM     11  C   UNL     1      -1.154  -2.562   0.894  0.00  0.00    +0.000 C 
ATOM     12  C   UNL     1       0.154  -2.038   1.489  0.00  0.00    +0.001 C 
ATOM     13  C   UNL     1       0.142  -0.508   1.482  0.00  0.00    +0.012 C 
ATOM     14  C   UNL     1       1.172  -0.526  -0.790  0.00  0.00    +0.047 C 
ATOM     15  C   UNL     1       2.457   0.146  -0.387  0.00  0.00    -0.037 A 
ATOM     16  C   UNL     1       2.453   1.491  -0.017  0.00  0.00    +0.004 A 
ATOM     17  C   UNL     1       3.645   2.123   0.326  0.00  0.00    +0.010 A 
ATOM     18  C   UNL     1       4.826   1.407   0.318  0.00  0.00    +0.001 A 
ATOM     19  C   UNL     1       4.823   0.069  -0.030  0.00  0.00    +0.000 A 
ATOM     20  C   UNL     1       3.642  -0.560  -0.383  0.00  0.00    +0.004 A 
ENDROOT
BRANCH   1  21
ATOM     21  S   UNL     1      -0.006   5.968   0.112  0.00  0.00    -0.078 S 
BRANCH  21  22
ATOM     22  C   UNL     1       1.778   6.274   0.122  0.00  0.00    +0.173 C 
BRANCH  22  24
ATOM     23  N   UNL     1       3.297   8.226   0.166  0.00  0.00    -0.285 N 
ATOM     24  C   UNL     1       2.033   7.759   0.154  0.00  0.00    +0.227 C 
ATOM     25  O   UNL     1       1.100   8.534   0.168  0.00  0.00    -0.275 OA
ATOM     26  H   UNL     1       4.042   7.607   0.222  0.00  0.00    +0.155 HD
BRANCH  23  30
ATOM     27  C   UNL     1       4.006  12.326  -0.038  0.00  0.00    +0.000 A 
ATOM     28  C   UNL     1       2.902  11.850   0.645  0.00  0.00    +0.002 A 
ATOM     29  C   UNL     1       2.664  10.491   0.715  0.00  0.00    +0.023 A 
ATOM     30  C   UNL     1       3.535   9.603   0.097  0.00  0.00    +0.033 A 
ATOM     31  C   UNL     1       4.646  10.084  -0.583  0.00  0.00    +0.023 A 
ATOM     32  C   UNL     1       4.875  11.444  -0.653  0.00  0.00    +0.002 A 
ENDBRANCH  23  30
ENDBRANCH  22  24
ENDBRANCH  21  22
ENDBRANCH   1  21
BRANCH   7  33
ATOM     33  C   UNL     1      -2.459   4.303   0.053  0.00  0.00    +0.201 C 
BRANCH  33  34
ATOM     34  C   UNL     1      -2.876   4.572  -1.370  0.00  0.00    +0.125 A 
ATOM     35  C   UNL     1      -3.653   3.776  -2.126  0.00  0.00    +0.046 A 
ATOM     36  C   UNL     1      -3.790   4.411  -3.382  0.00  0.00    +0.041 A 
ATOM     37  C   UNL     1      -3.081   5.553  -3.321  0.00  0.00    +0.195 A 
ATOM     38  O   UNL     1      -2.530   5.645  -2.100  0.00  0.00    -0.466 OA
ENDBRANCH  33  34
ENDBRANCH   7  33
TORSDOF 6
