REMARK  Name = ZINC65370793
REMARK  3 active torsions:
REMARK  status: ('A' for Active; 'I' for Inactive)
REMARK    1  A    between atoms: C_6  and  C_7
REMARK    2  A    between atoms: C_12  and  C_21
REMARK    3  A    between atoms: C_24  and  C_27
REMARK                            x       y       z     vdW  Elec       q    Type
REMARK                         _______ _______ _______ _____ _____    ______ ____
ROOT
ATOM      1  C   UNL     1      -1.293  -0.775   0.010  0.00  0.00    +0.042 C 
ATOM      2  C   UNL     1      -1.375  -1.648  -1.245  0.00  0.00    +0.062 C 
ATOM      3  C   UNL     1      -2.671  -2.418  -1.245  0.00  0.00    +0.042 C 
ATOM      4  N   UNL     1      -3.557  -2.384  -2.164  0.00  0.00    -0.269 NA
ATOM      5  C   UNL     1      -4.706  -3.227  -1.820  0.00  0.00    +0.203 C 
ATOM      6  N   UNL     1      -4.241  -4.128  -0.740  0.00  0.00    -0.278 NA
ATOM      7  C   UNL     1      -3.110  -3.372  -0.153  0.00  0.00    +0.187 C 
ATOM      8  C   UNL     1      -3.612  -2.566   1.022  0.00  0.00    +0.236 C 
ATOM      9  O   UNL     1      -4.779  -2.610   1.349  0.00  0.00    -0.274 OA
ATOM     10  N   UNL     1      -2.738  -1.798   1.700  0.00  0.00    -0.313 N 
ATOM     11  C   UNL     1      -1.351  -1.661   1.256  0.00  0.00    +0.112 C 
ATOM     12  H   UNL     1      -4.968  -4.279  -0.057  0.00  0.00    +0.125 HD
ATOM     13  H   UNL     1      -3.034  -1.328   2.495  0.00  0.00    +0.149 HD
ENDROOT
BRANCH   1  19
ATOM     14  C   UNL     1      -0.017   1.378   0.010  0.00  0.00    +0.007 A 
ATOM     15  C   UNL     1       1.170   2.086   0.002  0.00  0.00    +0.038 A 
ATOM     16  C   UNL     1       2.379   1.410  -0.013  0.00  0.00    +0.123 A 
ATOM     17  C   UNL     1       2.396   0.026  -0.021  0.00  0.00    +0.038 A 
ATOM     18  C   UNL     1       1.208  -0.680  -0.013  0.00  0.00    +0.007 A 
ATOM     19  C   UNL     1       0.002  -0.004   0.002  0.00  0.00    -0.042 A 
ATOM     20  F   UNL     1       3.540   2.101  -0.021  0.00  0.00    -0.205 F 
ENDBRANCH   1  19
BRANCH   5  21
ATOM     21  C   UNL     1      -5.146  -4.042  -3.037  0.00  0.00    +0.191 C 
ATOM     22  C   UNL     1      -5.519  -3.128  -4.190  0.00  0.00    +0.030 C 
ATOM     23  C   UNL     1      -6.808  -3.397  -4.410  0.00  0.00    +0.065 C 
ATOM     24  N   UNL     1      -7.254  -4.342  -3.553  0.00  0.00    -0.158 NA
ATOM     25  N   UNL     1      -6.402  -4.759  -2.757  0.00  0.00    -0.176 NA
BRANCH  23  26
ATOM     26  C   UNL     1      -7.651  -2.738  -5.471  0.00  0.00    +0.039 C 
ATOM     27  C   UNL     1      -9.155  -3.018  -5.454  0.00  0.00    +0.010 C 
ATOM     28  C   UNL     1      -8.274  -3.639  -6.539  0.00  0.00    +0.010 C 
ENDBRANCH  23  26
ENDBRANCH   5  21
TORSDOF 3
