REMARK  Name = ZINC12635591
REMARK  13 active torsions:
REMARK  status: ('A' for Active; 'I' for Inactive)
REMARK    1  A    between atoms: C_1  and  C_2
REMARK    2  A    between atoms: C_2  and  C_3
REMARK    3  A    between atoms: C_8  and  N_9
REMARK    4  A    between atoms: N_9  and  C_10
REMARK    5  A    between atoms: C_10  and  N_12
REMARK    6  A    between atoms: N_12  and  C_13
REMARK    7  A    between atoms: N_12  and  C_28
REMARK    8  A    between atoms: C_13  and  C_14
REMARK    9  A    between atoms: C_19  and  C_27
REMARK   10  A    between atoms: C_20  and  C_26
REMARK   11  A    between atoms: C_28  and  C_29
REMARK   12  A    between atoms: C_34  and  C_35
REMARK   13  A    between atoms: C_34  and  N_70
REMARK                            x       y       z     vdW  Elec       q    Type
REMARK                         _______ _______ _______ _____ _____    ______ ____
ROOT
ATOM      1  N   UNL     1      -2.777   3.609  -1.623  0.00  0.00    -0.309 N 
ENDROOT
BRANCH   1   2
ATOM      2  C   UNL     1      -2.630   4.691  -2.413  0.00  0.00    +0.137 C 
ATOM      3  S   UNL     1      -1.394   5.829  -2.085  0.00  0.00    -0.018 S 
BRANCH   2   4
ATOM      4  N   UNL     1      -3.456   4.877  -3.462  0.00  0.00    -0.297 N 
ATOM      5  H   UNL     1      -4.130   4.212  -3.672  0.00  0.00    +0.154 HD
BRANCH   4  11
ATOM      6  C   UNL     1      -3.491   5.949  -5.626  0.00  0.00    -0.026 A 
ATOM      7  C   UNL     1      -3.381   7.089  -6.398  0.00  0.00    +0.005 A 
ATOM      8  C   UNL     1      -3.111   8.307  -5.802  0.00  0.00    +0.000 A 
ATOM      9  C   UNL     1      -2.955   8.389  -4.430  0.00  0.00    +0.002 A 
ATOM     10  C   UNL     1      -3.069   7.254  -3.651  0.00  0.00    +0.023 A 
ATOM     11  C   UNL     1      -3.340   6.029  -4.248  0.00  0.00    +0.036 A 
BRANCH   6  13
ATOM     12  C   UNL     1      -5.285   4.353  -6.245  0.00  0.00    +0.009 C 
ATOM     13  C   UNL     1      -3.779   4.621  -6.278  0.00  0.00    +0.033 C 
ENDBRANCH   6  13
ENDBRANCH   4  11
ENDBRANCH   2   4
ENDBRANCH   1   2
BRANCH   1  14
ATOM     14  C   UNL     1      -1.879   3.407  -0.483  0.00  0.00    +0.147 C 
BRANCH  14  15
ATOM     15  C   UNL     1      -0.680   2.609  -0.924  0.00  0.00    +0.035 A 
ATOM     16  C   UNL     1       0.458   3.248  -1.293  0.00  0.00    +0.020 A 
ATOM     17  C   UNL     1       1.606   2.443  -1.716  0.00  0.00    -0.001 A 
ATOM     18  C   UNL     1       2.806   3.045  -2.108  0.00  0.00    +0.010 A 
ATOM     19  C   UNL     1       3.859   2.266  -2.497  0.00  0.00    +0.004 A 
ATOM     20  C   UNL     1       3.748   0.882  -2.506  0.00  0.00    -0.046 A 
ATOM     21  C   UNL     1       2.575   0.268  -2.124  0.00  0.00    -0.024 A 
ATOM     22  C   UNL     1       1.490   1.040  -1.724  0.00  0.00    +0.052 A 
ATOM     23  N   UNL     1       0.305   0.452  -1.337  0.00  0.00    -0.322 N 
ATOM     24  H   UNL     1       0.226  -0.514  -1.344  0.00  0.00    +0.169 HD
ATOM     25  C   UNL     1      -0.746   1.200  -0.956  0.00  0.00    +0.254 A 
ATOM     26  O   UNL     1      -1.780   0.646  -0.626  0.00  0.00    -0.268 OA
ATOM     27  C   UNL     1       2.469  -1.235  -2.139  0.00  0.00    +0.046 C 
ATOM     28  C   UNL     1       4.923   0.043  -2.939  0.00  0.00    +0.044 C 
ENDBRANCH  14  15
ENDBRANCH   1  14
BRANCH   1  29
ATOM     29  C   UNL     1      -3.835   2.636  -1.904  0.00  0.00    +0.092 C 
BRANCH  29  30
ATOM     30  C   UNL     1      -5.147   3.112  -1.277  0.00  0.00    -0.051 C 
ATOM     31  C   UNL     1      -5.040   3.108   0.263  0.00  0.00    -0.016 C 
ATOM     32  C   UNL     1      -6.427   2.650   0.759  0.00  0.00    -0.020 C 
ATOM     33  C   UNL     1      -7.255   2.416  -0.523  0.00  0.00    -0.078 C 
ATOM     34  N   UNL     1      -6.241   2.174  -1.549  0.00  0.00    +0.382 N 
ATOM     35  H   UNL     1      -5.900   1.208  -1.484  0.00  0.00    -0.081 HD
BRANCH  34  36
ATOM     36  C   UNL     1      -6.802   2.406  -2.918  0.00  0.00    -0.082 C 
ATOM     37  C   UNL     1      -7.793   1.296  -3.272  0.00  0.00    -0.017 C 
ENDBRANCH  34  36
ENDBRANCH  29  30
ENDBRANCH   1  29
TORSDOF 9
