REMARK  Name = ZINC67151296
REMARK  8 active torsions:
REMARK  status: ('A' for Active; 'I' for Inactive)
REMARK    1  A    between atoms: C_1  and  C_2
REMARK    2  A    between atoms: C_5  and  C_12
REMARK    3  A    between atoms: C_8  and  C_10
REMARK    4  A    between atoms: C_8  and  C_11
REMARK    5  A    between atoms: C_12  and  C_13
REMARK    6  A    between atoms: C_18  and  N_21
REMARK    7  A    between atoms: N_21  and  C_22
REMARK    8  A    between atoms: N_21  and  C_23
REMARK                            x       y       z     vdW  Elec       q    Type
REMARK                         _______ _______ _______ _____ _____    ______ ____
ROOT
ATOM      1  C   UNL     1       2.222  -0.042  -3.737  0.00  0.00    +0.216 C 
ATOM      2  O   UNL     1       1.475   0.891  -3.531  0.00  0.00    -0.276 OA
ATOM      3  N   UNL     1       2.606  -0.331  -4.997  0.00  0.00    -0.302 N 
ATOM      4  C   UNL     1       3.505  -1.462  -5.263  0.00  0.00    +0.106 C 
ATOM      5  C   UNL     1       4.703  -0.959  -6.076  0.00  0.00    +0.004 C 
ATOM      6  C   UNL     1       4.198  -0.247  -7.333  0.00  0.00    -0.066 C 
ATOM      7  C   UNL     1       3.346   0.960  -6.931  0.00  0.00    +0.004 C 
ATOM      8  C   UNL     1       2.129   0.475  -6.129  0.00  0.00    +0.106 C 
ENDROOT
BRANCH   6   9
ATOM      9  N   UNL     1       5.345   0.208  -8.131  0.00  0.00    +0.378 N 
ATOM     10  C   UNL     1       6.162  -0.950  -8.518  0.00  0.00    -0.096 C 
ATOM     11  C   UNL     1       4.861   0.892  -9.337  0.00  0.00    -0.096 C 
ATOM     12  H   UNL     1       5.903   0.846  -7.584  0.00  0.00    -0.082 HD
ENDBRANCH   6   9
BRANCH   1  13
ATOM     13  C   UNL     1       2.720  -0.878  -2.587  0.00  0.00    +0.099 C 
BRANCH  13  17
ATOM     14  C   UNL     1      -0.019   1.524   0.010  0.00  0.00    +0.007 C 
ATOM     15  C   UNL     1       0.002  -0.004   0.002  0.00  0.00    -0.013 C 
ATOM     16  C   UNL     1       0.621  -0.525  -1.288  0.00  0.00    +0.007 C 
ATOM     17  C   UNL     1       2.137  -0.340  -1.274  0.00  0.00    -0.002 C 
ATOM     18  C   UNL     1       2.721  -1.130  -0.106  0.00  0.00    +0.010 C 
ATOM     19  C   UNL     1       2.178  -0.615   1.222  0.00  0.00    -0.034 C 
ATOM     20  C   UNL     1       0.661  -0.562   1.247  0.00  0.00    +0.009 C 
ATOM     21  C   UNL     1       2.780   0.757   1.538  0.00  0.00    +0.011 C 
ATOM     22  C   UNL     1       2.640  -1.588   2.329  0.00  0.00    +0.011 C 
ENDBRANCH  13  17
ENDBRANCH   1  13
TORSDOF 3
