REMARK  Name = ZINC40018230
REMARK  6 active torsions:
REMARK  status: ('A' for Active; 'I' for Inactive)
REMARK    1  A    between atoms: C_4  and  C_7
REMARK    2  A    between atoms: C_7  and  C_9
REMARK    3  A    between atoms: C_7  and  N_20
REMARK    4  A    between atoms: C_9  and  C_11
REMARK    5  A    between atoms: N_23  and  S_26
REMARK    6  A    between atoms: S_26  and  C_29
REMARK                            x       y       z     vdW  Elec       q    Type
REMARK                         _______ _______ _______ _____ _____    ______ ____
ROOT
ATOM      1  C   UNL     1       3.711  -0.707  -0.038  0.00  0.00    +0.159 C 
ENDROOT
BRANCH   1   5
ATOM      2  C   UNL     1      -0.017   1.378   0.010  0.00  0.00    +0.000 A 
ATOM      3  C   UNL     1       1.171   2.086   0.002  0.00  0.00    +0.000 A 
ATOM      4  C   UNL     1       2.377   1.411  -0.013  0.00  0.00    +0.005 A 
ATOM      5  C   UNL     1       2.396   0.029  -0.020  0.00  0.00    -0.023 A 
ATOM      6  C   UNL     1       1.208  -0.679  -0.012  0.00  0.00    +0.005 A 
ATOM      7  C   UNL     1       0.002  -0.004   0.002  0.00  0.00    +0.000 A 
ENDBRANCH   1   5
BRANCH   1   8
ATOM      8  N   UNL     1       3.630  -1.877   0.848  0.00  0.00    -0.286 NA
ATOM      9  C   UNL     1       3.235  -1.482   2.206  0.00  0.00    +0.102 C 
ATOM     10  C   UNL     1       2.986  -2.738   3.048  0.00  0.00    +0.124 C 
ATOM     11  N   UNL     1       4.178  -3.596   2.971  0.00  0.00    -0.178 NA
ATOM     12  C   UNL     1       4.716  -3.923   1.642  0.00  0.00    +0.124 C 
ATOM     13  C   UNL     1       4.897  -2.620   0.856  0.00  0.00    +0.102 C 
BRANCH  11  14
ATOM     14  S   UNL     1       4.896  -4.178   4.345  0.00  0.00    +0.045 S 
ATOM     15  O   UNL     1       6.252  -4.396   3.981  0.00  0.00    -0.157 OA
ATOM     16  O   UNL     1       4.560  -3.238   5.356  0.00  0.00    -0.157 OA
BRANCH  14  17
ATOM     17  C   UNL     1       4.073  -5.762   4.666  0.00  0.00    +0.213 C 
ATOM     18  C   UNL     1       4.461  -6.334   6.055  0.00  0.00    +0.066 C 
ATOM     19  C   UNL     1       3.280  -6.972   6.714  0.00  0.00    -0.017 C 
ATOM     20  C   UNL     1       2.062  -6.687   6.296  0.00  0.00    +0.038 C 
ATOM     21  S   UNL     1       2.265  -5.540   4.944  0.00  0.00    -0.105 S 
ENDBRANCH  14  17
ENDBRANCH  11  14
ENDBRANCH   1   8
BRANCH   1  22
ATOM     22  C   UNL     1       4.014  -1.161  -1.442  0.00  0.00    +0.183 C 
ATOM     23  O   UNL     1       3.797  -2.310  -1.770  0.00  0.00    -0.290 OA
BRANCH  22  24
ATOM     24  C   UNL     1       4.551  -0.250  -2.377  0.00  0.00    +0.025 C 
ATOM     25  C   UNL     1       4.879  -0.502  -3.697  0.00  0.00    +0.006 A 
ATOM     26  C   UNL     1       4.798  -1.662  -4.505  0.00  0.00    +0.010 A 
ATOM     27  C   UNL     1       5.198  -1.623  -5.795  0.00  0.00    +0.001 A 
ATOM     28  C   UNL     1       5.704  -0.457  -6.392  0.00  0.00    +0.002 A 
ATOM     29  C   UNL     1       5.823   0.702  -5.710  0.00  0.00    +0.026 A 
ATOM     30  C   UNL     1       5.409   0.747  -4.297  0.00  0.00    +0.043 A 
ATOM     31  N   UNL     1       5.414   1.709  -3.420  0.00  0.00    -0.380 N 
ATOM     32  C   UNL     1       4.884   1.208  -2.147  0.00  0.00    +0.152 C 
ATOM     33  H   UNL     1       5.717   2.615  -3.583  0.00  0.00    +0.160 HD
ENDBRANCH  22  24
ENDBRANCH   1  22
TORSDOF 6
