REMARK  Name = ZINC27239839
REMARK  13 active torsions:
REMARK  status: ('A' for Active; 'I' for Inactive)
REMARK    1  A    between atoms: C_1  and  C_2
REMARK    2  A    between atoms: C_2  and  C_3
REMARK    3  A    between atoms: C_6  and  C_9
REMARK    4  A    between atoms: C_9  and  C_10
REMARK    5  A    between atoms: C_9  and  C_18
REMARK    6  A    between atoms: C_9  and  O_37
REMARK    7  A    between atoms: C_13  and  O_16
REMARK    8  A    between atoms: O_16  and  C_17
REMARK    9  A    between atoms: C_18  and  C_20
REMARK   10  A    between atoms: C_18  and  O_28
REMARK   11  A    between atoms: C_20  and  N_21
REMARK   12  A    between atoms: O_28  and  C_29
REMARK   13  A    between atoms: C_34  and  C_35
REMARK                            x       y       z     vdW  Elec       q    Type
REMARK                         _______ _______ _______ _____ _____    ______ ____
ROOT
ATOM      1  C   UNL     1      -0.118   7.630   3.144  0.00  0.00    +0.151 C 
ENDROOT
BRANCH   1   5
ATOM      2  C   UNL     1       3.680   8.959   1.711  0.00  0.00    -0.048 A 
ATOM      3  C   UNL     1       2.609   9.831   1.741  0.00  0.00    +0.004 A 
ATOM      4  C   UNL     1       1.380   9.401   2.204  0.00  0.00    +0.007 A 
ATOM      5  C   UNL     1       1.222   8.098   2.638  0.00  0.00    -0.008 A 
ATOM      6  C   UNL     1       2.295   7.227   2.614  0.00  0.00    +0.007 A 
ATOM      7  C   UNL     1       3.523   7.655   2.145  0.00  0.00    +0.004 A 
BRANCH   2   9
ATOM      8  C   UNL     1       5.838   9.987   2.373  0.00  0.00    +0.009 C 
ATOM      9  C   UNL     1       5.021   9.428   1.206  0.00  0.00    +0.032 C 
ENDBRANCH   2   9
ENDBRANCH   1   5
BRANCH   1  10
ATOM     10  C   UNL     1      -0.206   7.869   4.630  0.00  0.00    -0.008 A 
ATOM     11  C   UNL     1       0.206   6.887   5.512  0.00  0.00    +0.010 A 
ATOM     12  C   UNL     1       0.131   7.106   6.874  0.00  0.00    +0.046 A 
ATOM     13  C   UNL     1      -0.368   8.307   7.356  0.00  0.00    +0.120 A 
ATOM     14  C   UNL     1      -0.785   9.288   6.469  0.00  0.00    +0.046 A 
ATOM     15  C   UNL     1      -0.703   9.067   5.108  0.00  0.00    +0.010 A 
BRANCH  13  16
ATOM     16  O   UNL     1      -0.448   8.522   8.696  0.00  0.00    -0.495 OA
ATOM     17  C   UNL     1       0.000   7.468   9.550  0.00  0.00    +0.277 C 
ENDBRANCH  13  16
ENDBRANCH   1  10
BRANCH   1  18
ATOM     18  O   UNL     1      -1.157   8.355   2.483  0.00  0.00    -0.376 OA
ATOM     19  H   UNL     1      -2.210   8.149   2.723  0.00  0.00    +0.211 HD
ENDBRANCH   1  18
BRANCH   1  20
ATOM     20  C   UNL     1      -0.277   6.135   2.858  0.00  0.00    +0.198 C 
BRANCH  20  21
ATOM     21  C   UNL     1      -0.954   5.946   1.499  0.00  0.00    -0.030 C 
BRANCH  21  22
ATOM     22  N   UNL     1      -0.757   4.564   1.042  0.00  0.00    +0.382 N 
ATOM     23  C   UNL     1       0.669   4.302   0.745  0.00  0.00    -0.079 C 
ATOM     24  C   UNL     1       0.884   3.000   0.021  0.00  0.00    -0.019 C 
ATOM     25  C   UNL     1       0.909   3.282  -1.496  0.00  0.00    -0.002 C 
ATOM     26  C   UNL     1      -0.431   3.457  -2.045  0.00  0.00    -0.002 C 
ATOM     27  C   UNL     1      -1.170   4.652  -1.408  0.00  0.00    -0.019 C 
ATOM     28  C   UNL     1      -1.687   4.231  -0.060  0.00  0.00    -0.079 C 
ATOM     29  H   UNL     1      -1.016   3.878   1.862  0.00  0.00    -0.082 HD
ENDBRANCH  21  22
ENDBRANCH  20  21
BRANCH  20  30
ATOM     30  O   UNL     1      -1.080   5.537   3.877  0.00  0.00    -0.487 OA
BRANCH  30  31
ATOM     31  C   UNL     1      -2.105   6.281   4.371  0.00  0.00    +0.124 A 
ATOM     32  C   UNL     1      -2.717   7.237   3.573  0.00  0.00    +0.047 A 
ATOM     33  C   UNL     1      -3.761   7.989   4.075  0.00  0.00    +0.023 A 
ATOM     34  C   UNL     1      -4.191   7.796   5.376  0.00  0.00    +0.041 A 
ATOM     35  C   UNL     1      -3.579   6.846   6.175  0.00  0.00    +0.027 A 
ATOM     36  C   UNL     1      -2.537   6.089   5.675  0.00  0.00    -0.007 A 
ATOM     37  C   UNL     1      -1.871   5.055   6.545  0.00  0.00    +0.047 C 
ATOM     38 CL   UNL     1      -5.500   8.747   6.007  0.00  0.00    -0.084 Cl
ENDBRANCH  30  31
ENDBRANCH  20  30
ENDBRANCH   1  20
TORSDOF 10
