REMARK  Name = ZINC07003268
REMARK  5 active torsions:
REMARK  status: ('A' for Active; 'I' for Inactive)
REMARK    1  A    between atoms: C_1  and  C_2
REMARK    2  A    between atoms: C_5  and  C_7
REMARK    3  A    between atoms: C_7  and  N_8
REMARK    4  A    between atoms: N_8  and  S_9
REMARK    5  A    between atoms: S_9  and  C_12
REMARK                            x       y       z     vdW  Elec       q    Type
REMARK                         _______ _______ _______ _____ _____    ______ ____
ROOT
ATOM      1  C   UNL     1       1.849   6.428   0.994  0.00  0.00    +0.106 A 
ATOM      2  C   UNL     1       2.111   6.818  -0.312  0.00  0.00    +0.030 A 
ATOM      3  C   UNL     1       1.415   7.857  -0.889  0.00  0.00    +0.028 A 
ATOM      4  C   UNL     1       0.447   8.532  -0.152  0.00  0.00    +0.047 A 
ATOM      5  C   UNL     1       0.189   8.137   1.173  0.00  0.00    +0.005 A 
ATOM      6  C   UNL     1       0.903   7.077   1.735  0.00  0.00    +0.038 A 
ATOM      7  C   UNL     1      -0.861   9.031   1.662  0.00  0.00    -0.019 A 
ATOM      8  C   UNL     1      -1.172   9.870   0.659  0.00  0.00    +0.020 A 
ATOM      9  N   UNL     1      -0.393   9.586  -0.433  0.00  0.00    -0.358 N 
ATOM     10  H   UNL     1      -0.429  10.059  -1.279  0.00  0.00    +0.166 HD
ATOM     11  C   UNL     1      -2.220  10.955   0.727  0.00  0.00    +0.053 C 
ATOM     12  C   UNL     1      -2.049  11.750   2.023  0.00  0.00    +0.006 C 
ATOM     13  C   UNL     1      -2.865  11.100   3.137  0.00  0.00    +0.001 C 
ATOM     14  C   UNL     1      -2.899   9.584   2.961  0.00  0.00    +0.005 C 
ATOM     15  C   UNL     1      -1.475   9.030   3.038  0.00  0.00    +0.037 C 
ENDROOT
BRANCH   1  16
ATOM     16  S   UNL     1       2.750   5.090   1.704  0.00  0.00    +0.059 S 
ATOM     17  O   UNL     1       2.710   5.276   3.112  0.00  0.00    -0.153 OA
ATOM     18  O   UNL     1       3.970   4.994   0.983  0.00  0.00    -0.153 OA
BRANCH  16  19
ATOM     19  N   UNL     1       1.901   3.705   1.386  0.00  0.00    -0.183 NA
ATOM     20  H   UNL     1       1.513   3.195   2.114  0.00  0.00    +0.148 HD
BRANCH  19  21
ATOM     21  C   UNL     1       1.735   3.249   0.003  0.00  0.00    +0.180 C 
BRANCH  21  26
ATOM     22  C   UNL     1       1.803  -1.795  -0.024  0.00  0.00    +0.086 C 
ATOM     23  C   UNL     1       1.295  -0.376  -0.012  0.00  0.00    +0.102 A 
ATOM     24  C   UNL     1       0.002  -0.004   0.002  0.00  0.00    +0.044 A 
ATOM     25  C   UNL     1      -0.017   1.410   0.010  0.00  0.00    +0.046 A 
ATOM     26  C   UNL     1       1.265   1.817  -0.000  0.00  0.00    +0.121 A 
ATOM     27  O   UNL     1       2.055   0.731  -0.014  0.00  0.00    -0.464 OA
ENDBRANCH  21  26
ENDBRANCH  19  21
ENDBRANCH  16  19
ENDBRANCH   1  16
TORSDOF 4
