REMARK  Name = ZINC38704986
REMARK  9 active torsions:
REMARK  status: ('A' for Active; 'I' for Inactive)
REMARK    1  A    between atoms: C_1  and  C_2
REMARK    2  A    between atoms: C_4  and  C_40
REMARK    3  A    between atoms: C_5  and  C_9
REMARK    4  A    between atoms: C_6  and  O_8
REMARK    5  A    between atoms: N_17  and  C_33
REMARK    6  A    between atoms: C_18  and  C_20
REMARK    7  A    between atoms: C_24  and  O_26
REMARK    8  A    between atoms: O_26  and  C_27
REMARK    9  A    between atoms: C_33  and  C_34
REMARK                            x       y       z     vdW  Elec       q    Type
REMARK                         _______ _______ _______ _____ _____    ______ ____
ROOT
ATOM      1  C   UNL     1       0.272  -4.426  -0.294  0.00  0.00    +0.102 A 
ATOM      2  C   UNL     1       0.243  -5.165   0.893  0.00  0.00    +0.035 A 
ATOM      3  C   UNL     1       0.174  -6.491   0.511  0.00  0.00    +0.126 A 
ATOM      4  N   UNL     1       0.165  -6.492  -0.855  0.00  0.00    -0.272 N 
ATOM      5  H   UNL     1       0.120  -7.285  -1.412  0.00  0.00    +0.189 HD
ATOM      6  N   UNL     1       0.217  -5.285  -1.294  0.00  0.00    -0.173 NA
ATOM      7  C   UNL     1       0.140  -7.324   1.718  0.00  0.00    +0.266 C 
ATOM      8  O   UNL     1       0.078  -8.539   1.722  0.00  0.00    -0.268 OA
ATOM      9  N   UNL     1       0.185  -6.554   2.820  0.00  0.00    -0.281 N 
ATOM     10  C   UNL     1       0.254  -5.149   2.397  0.00  0.00    +0.142 C 
ENDROOT
BRANCH   1  15
ATOM     11  C   UNL     1       0.562   1.312  -0.741  0.00  0.00    +0.044 C 
ATOM     12  C   UNL     1       0.484  -0.188  -0.622  0.00  0.00    -0.047 A 
ATOM     13  C   UNL     1       1.358  -0.983  -1.343  0.00  0.00    +0.007 A 
ATOM     14  C   UNL     1       1.293  -2.358  -1.240  0.00  0.00    -0.037 A 
ATOM     15  C   UNL     1       0.346  -2.949  -0.408  0.00  0.00    +0.047 A 
ATOM     16  C   UNL     1      -0.535  -2.144   0.319  0.00  0.00    +0.127 A 
ATOM     17  C   UNL     1      -0.456  -0.765   0.211  0.00  0.00    +0.049 A 
ATOM     18  C   UNL     1       2.247  -3.218  -2.028  0.00  0.00    +0.044 C 
BRANCH  16  19
ATOM     19  O   UNL     1      -1.463  -2.712   1.134  0.00  0.00    -0.506 OA
ATOM     20  H   UNL     1      -1.186  -2.779   2.058  0.00  0.00    +0.292 HD
ENDBRANCH  16  19
ENDBRANCH   1  15
BRANCH  10  21
ATOM     21  C   UNL     1       1.527  -4.517   2.900  0.00  0.00    -0.019 A 
ATOM     22  C   UNL     1       2.735  -5.170   2.735  0.00  0.00    +0.006 A 
ATOM     23  C   UNL     1       3.904  -4.593   3.194  0.00  0.00    +0.004 A 
ATOM     24  C   UNL     1       3.869  -3.362   3.820  0.00  0.00    +0.046 A 
ATOM     25  C   UNL     1       2.658  -2.705   3.987  0.00  0.00    +0.129 A 
ATOM     26  C   UNL     1       1.487  -3.284   3.520  0.00  0.00    +0.052 A 
BRANCH  25  27
ATOM     27  O   UNL     1       2.621  -1.494   4.602  0.00  0.00    -0.456 OA
BRANCH  27  28
ATOM     28  C   UNL     1       2.020  -1.414   5.818  0.00  0.00    +0.128 A 
ATOM     29  C   UNL     1       1.562  -2.565   6.444  0.00  0.00    +0.046 A 
ATOM     30  C   UNL     1       0.951  -2.482   7.680  0.00  0.00    +0.004 A 
ATOM     31  C   UNL     1       0.795  -1.252   8.294  0.00  0.00    +0.000 A 
ATOM     32  C   UNL     1       1.250  -0.104   7.672  0.00  0.00    +0.004 A 
ATOM     33  C   UNL     1       1.868  -0.183   6.439  0.00  0.00    +0.046 A 
ENDBRANCH  27  28
ENDBRANCH  25  27
ENDBRANCH  10  21
BRANCH   9  34
ATOM     34  C   UNL     1       0.169  -7.034   4.204  0.00  0.00    +0.144 C 
BRANCH  34  35
ATOM     35  C   UNL     1       1.583  -7.271   4.670  0.00  0.00    -0.030 A 
ATOM     36  C   UNL     1       2.173  -8.507   4.487  0.00  0.00    +0.005 A 
ATOM     37  C   UNL     1       3.470  -8.724   4.914  0.00  0.00    +0.000 A 
ATOM     38  C   UNL     1       4.176  -7.705   5.526  0.00  0.00    +0.000 A 
ATOM     39  C   UNL     1       3.585  -6.468   5.708  0.00  0.00    +0.000 A 
ATOM     40  C   UNL     1       2.290  -6.250   5.277  0.00  0.00    +0.005 A 
ENDBRANCH  34  35
ENDBRANCH   9  34
TORSDOF 7
