REMARK  Name = ZINC61812042
REMARK  4 active torsions:
REMARK  status: ('A' for Active; 'I' for Inactive)
REMARK    1  A    between atoms: C_6  and  N_7
REMARK    2  A    between atoms: N_7  and  C_8
REMARK    3  A    between atoms: C_12  and  C_14
REMARK    4  A    between atoms: C_14  and  N_16
REMARK                            x       y       z     vdW  Elec       q    Type
REMARK                         _______ _______ _______ _____ _____    ______ ____
ROOT
ATOM      1  N   UNL     1      -1.200  -0.720   0.010  0.00  0.00    -0.314 N 
ATOM      2  H   UNL     1      -1.184  -1.690   0.004  0.00  0.00    +0.152 HD
ENDROOT
BRANCH   1   8
ATOM      3  C   UNL     1       1.063  -0.533  -0.810  0.00  0.00    +0.027 A 
ATOM      4  C   UNL     1       2.243   0.178  -0.921  0.00  0.00    +0.051 A 
ATOM      5  C   UNL     1       2.363   1.424  -0.329  0.00  0.00    +0.173 A 
ATOM      6  C   UNL     1       1.292   1.962   0.382  0.00  0.00    +0.174 A 
ATOM      7  C   UNL     1       0.110   1.250   0.493  0.00  0.00    +0.073 A 
ATOM      8  C   UNL     1      -0.006   0.000  -0.102  0.00  0.00    +0.035 A 
ATOM      9  O   UNL     1       1.659   3.186   0.863  0.00  0.00    -0.395 OA
ATOM     10  C   UNL     1       3.096   3.213   0.789  0.00  0.00    +0.589 C 
ATOM     11  O   UNL     1       3.401   2.312  -0.291  0.00  0.00    -0.395 OA
ATOM     12  F   UNL     1       3.548   4.504   0.494  0.00  0.00    -0.125 F 
ATOM     13  F   UNL     1       3.659   2.755   1.985  0.00  0.00    -0.125 F 
ENDBRANCH   1   8
BRANCH   1  14
ATOM     14  C   UNL     1      -2.412  -0.045   0.130  0.00  0.00    +0.035 A 
ATOM     15  C   UNL     1      -2.593   1.208  -0.454  0.00  0.00    +0.041 A 
ATOM     16  C   UNL     1      -3.809   1.850  -0.315  0.00  0.00    +0.085 A 
ATOM     17  N   UNL     1      -4.795   1.296   0.360  0.00  0.00    -0.359 N 
ATOM     18  C   UNL     1      -4.668   0.103   0.933  0.00  0.00    +0.069 A 
ATOM     19  C   UNL     1      -3.477  -0.608   0.832  0.00  0.00    +0.051 A 
ATOM     20  H   UNL     1      -5.637   1.771   0.440  0.00  0.00    +0.165 HD
BRANCH  18  21
ATOM     21  C   UNL     1      -5.806  -0.475   1.680  0.00  0.00    +0.093 C 
ATOM     22  S   UNL     1      -6.077  -2.165   1.654  0.00  0.00    -0.034 S 
BRANCH  21  23
ATOM     23  N   UNL     1      -6.630   0.329   2.381  0.00  0.00    -0.351 N 
ATOM     24  H   UNL     1      -6.477   1.286   2.396  0.00  0.00    +0.143 HD
ATOM     25  H   UNL     1      -7.377  -0.051   2.871  0.00  0.00    +0.143 HD
ENDBRANCH  21  23
ENDBRANCH  18  21
ENDBRANCH   1  14
TORSDOF 4
