REMARK  Name = ZINC12836975
REMARK  12 active torsions:
REMARK  status: ('A' for Active; 'I' for Inactive)
REMARK    1  A    between atoms: C_1  and  N_67
REMARK    2  A    between atoms: C_4  and  C_7
REMARK    3  A    between atoms: C_7  and  N_69
REMARK    4  A    between atoms: C_8  and  C_9
REMARK    5  A    between atoms: C_8  and  N_69
REMARK    6  A    between atoms: C_9  and  C_10
REMARK    7  A    between atoms: C_13  and  O_16
REMARK    8  A    between atoms: O_16  and  C_17
REMARK    9  A    between atoms: C_18  and  C_19
REMARK   10  A    between atoms: C_18  and  N_69
REMARK   11  A    between atoms: C_25  and  O_29
REMARK   12  A    between atoms: O_29  and  C_30
REMARK                            x       y       z     vdW  Elec       q    Type
REMARK                         _______ _______ _______ _____ _____    ______ ____
ROOT
ATOM      1  N   UNL     1       3.767   6.573  -0.874  0.00  0.00    +0.383 N 
ATOM      2  H   UNL     1       3.375   5.672  -1.173  0.00  0.00    -0.081 HD
ENDROOT
BRANCH   1   3
ATOM      3  C   UNL     1       2.824   7.651  -1.239  0.00  0.00    -0.075 C 
BRANCH   3   7
ATOM      4  C   UNL     1      -2.498   6.150  -2.687  0.00  0.00    -0.096 C 
ATOM      5  C   UNL     1      -1.018   7.635  -1.476  0.00  0.00    -0.079 C 
ATOM      6  C   UNL     1       0.398   8.216  -1.450  0.00  0.00    -0.017 C 
ATOM      7  C   UNL     1       1.402   7.087  -1.206  0.00  0.00    -0.031 C 
ATOM      8  C   UNL     1       1.246   6.029  -2.301  0.00  0.00    -0.017 C 
ATOM      9  C   UNL     1      -0.194   5.512  -2.303  0.00  0.00    -0.079 C 
ATOM     10  N   UNL     1      -1.110   6.642  -2.567  0.00  0.00    +0.378 N 
ATOM     11  H   UNL     1      -0.838   7.091  -3.450  0.00  0.00    -0.082 HD
ENDBRANCH   3   7
ENDBRANCH   1   3
BRANCH   1  12
ATOM     12  C   UNL     1       5.062   6.783  -1.555  0.00  0.00    -0.074 C 
BRANCH  12  13
ATOM     13  C   UNL     1       4.903   6.425  -3.034  0.00  0.00    +0.016 C 
BRANCH  13  14
ATOM     14  C   UNL     1       6.246   6.490  -3.714  0.00  0.00    -0.049 A 
ATOM     15  C   UNL     1       6.672   7.673  -4.290  0.00  0.00    +0.007 A 
ATOM     16  C   UNL     1       7.905   7.737  -4.909  0.00  0.00    +0.046 A 
ATOM     17  C   UNL     1       8.712   6.609  -4.962  0.00  0.00    +0.120 A 
ATOM     18  C   UNL     1       8.280   5.422  -4.389  0.00  0.00    +0.046 A 
ATOM     19  C   UNL     1       7.048   5.365  -3.767  0.00  0.00    +0.007 A 
BRANCH  17  20
ATOM     20  O   UNL     1       9.924   6.668  -5.575  0.00  0.00    -0.495 OA
ATOM     21  C   UNL     1      10.303   7.923  -6.143  0.00  0.00    +0.277 C 
ENDBRANCH  17  20
ENDBRANCH  13  14
ENDBRANCH  12  13
ENDBRANCH   1  12
BRANCH   1  22
ATOM     22  C   UNL     1       3.965   6.549   0.590  0.00  0.00    -0.044 C 
BRANCH  22  23
ATOM     23  C   UNL     1       2.691   6.077   1.244  0.00  0.00    -0.049 C 
ATOM     24  C   UNL     1       2.384   4.784   1.241  0.00  0.00    +0.012 C 
ATOM     25  C   UNL     1       1.110   4.364   1.862  0.00  0.00    +0.020 A 
ATOM     26  C   UNL     1       0.848   3.030   2.158  0.00  0.00    +0.012 A 
ATOM     27  C   UNL     1      -0.354   2.681   2.741  0.00  0.00    +0.004 A 
ATOM     28  C   UNL     1      -1.301   3.650   3.022  0.00  0.00    +0.049 A 
ATOM     29  C   UNL     1      -1.054   4.982   2.727  0.00  0.00    +0.162 A 
ATOM     30  C   UNL     1       0.148   5.345   2.137  0.00  0.00    +0.169 A 
ATOM     31  O   UNL     1       0.413   6.636   1.811  0.00  0.00    -0.484 OA
ATOM     32  C   UNL     1       1.770   7.072   1.899  0.00  0.00    +0.258 C 
BRANCH  29  33
ATOM     33  O   UNL     1      -1.988   5.929   3.009  0.00  0.00    -0.491 OA
ATOM     34  C   UNL     1      -3.202   5.482   3.616  0.00  0.00    +0.277 C 
ENDBRANCH  29  33
ENDBRANCH  22  23
ENDBRANCH   1  22
TORSDOF 9
