REMARK  Name = ZINC05288046
REMARK  5 active torsions:
REMARK  status: ('A' for Active; 'I' for Inactive)
REMARK    1  A    between atoms: C_1  and  C_2
REMARK    2  A    between atoms: C_2  and  C_4
REMARK    3  A    between atoms: C_2  and  S_10
REMARK    4  A    between atoms: S_10  and  C_11
REMARK    5  A    between atoms: C_19  and  C_21
REMARK                            x       y       z     vdW  Elec       q    Type
REMARK                         _______ _______ _______ _____ _____    ______ ____
ROOT
ATOM      1  C   UNL     1       2.370   3.960   0.000  0.00  0.00    +0.109 A 
ATOM      2  C   UNL     1       1.145   3.162   0.008  0.00  0.00    +0.032 A 
ATOM      3  C   UNL     1       1.166   1.765   0.000  0.00  0.00    +0.012 A 
ATOM      4  C   UNL     1      -0.013   1.076   0.008  0.00  0.00    +0.001 A 
ATOM      5  C   UNL     1      -1.232   1.746   0.017  0.00  0.00    +0.002 A 
ATOM      6  C   UNL     1      -1.286   3.108   0.031  0.00  0.00    +0.028 A 
ATOM      7  C   UNL     1      -0.096   3.848   0.024  0.00  0.00    +0.076 A 
ATOM      8  N   UNL     1      -0.090   5.187   0.030  0.00  0.00    -0.227 NA
ATOM      9  C   UNL     1       1.046   5.862   0.023  0.00  0.00    +0.168 A 
ATOM     10  N   UNL     1       2.245   5.281   0.008  0.00  0.00    -0.220 NA
ENDROOT
BRANCH   9  11
ATOM     11  C   UNL     1       0.983   7.336   0.031  0.00  0.00    +0.056 A 
ATOM     12  C   UNL     1       2.010   8.244   0.031  0.00  0.00    +0.019 A 
ATOM     13  C   UNL     1       1.707   9.586   0.034  0.00  0.00    +0.008 A 
ATOM     14  C   UNL     1       0.403   9.970   0.050  0.00  0.00    +0.046 A 
ATOM     15  S   UNL     1      -0.449   8.401   0.050  0.00  0.00    -0.094 S 
ENDBRANCH   9  11
BRANCH   1  16
ATOM     16  S   UNL     1       3.956   3.194  -0.018  0.00  0.00    -0.093 S 
BRANCH  16  18
ATOM     17  C   UNL     1       4.805   5.439  -1.323  0.00  0.00    +0.029 C 
ATOM     18  C   UNL     1       5.014   4.663  -0.022  0.00  0.00    +0.136 C 
BRANCH  18  19
ATOM     19  C   UNL     1       6.457   4.243   0.086  0.00  0.00    +0.233 C 
ATOM     20  O   UNL     1       6.797   3.140  -0.286  0.00  0.00    -0.274 OA
ATOM     21  N   UNL     1       7.370   5.092   0.598  0.00  0.00    -0.239 N 
ATOM     22  C   UNL     1       8.661   4.716   0.695  0.00  0.00    +0.303 C 
ATOM     23  O   UNL     1       9.002   3.611   0.321  0.00  0.00    -0.253 OA
ATOM     24  N   UNL     1       9.574   5.566   1.206  0.00  0.00    -0.313 N 
ATOM     25  H   UNL     1       7.098   5.974   0.896  0.00  0.00    +0.159 HD
ATOM     26  H   UNL     1       9.302   6.448   1.504  0.00  0.00    +0.146 HD
ATOM     27  H   UNL     1      10.503   5.296   1.276  0.00  0.00    +0.146 HD
ENDBRANCH  18  19
ENDBRANCH  16  18
ENDBRANCH   1  16
TORSDOF 4
