REMARK  Name = ZINC31774891
REMARK  4 active torsions:
REMARK  status: ('A' for Active; 'I' for Inactive)
REMARK    1  A    between atoms: C_1  and  C_2
REMARK    2  A    between atoms: C_2  and  C_4
REMARK    3  A    between atoms: C_2  and  N_15
REMARK    4  A    between atoms: C_16  and  C_18
REMARK                            x       y       z     vdW  Elec       q    Type
REMARK                         _______ _______ _______ _____ _____    ______ ____
ROOT
ATOM      1  C   UNL     1      -0.013   1.086   0.008  0.00  0.00    +0.033 C 
ATOM      2  C   UNL     1      -0.729   1.579   1.267  0.00  0.00    +0.101 C 
ENDROOT
BRANCH   2   3
ATOM      3  C   UNL     1       0.000   1.080   2.488  0.00  0.00    -0.024 A 
ATOM      4  C   UNL     1       1.144   1.726   2.919  0.00  0.00    +0.009 A 
ATOM      5  C   UNL     1       1.815   1.277   4.043  0.00  0.00    +0.050 A 
ATOM      6  C   UNL     1       1.343   0.170   4.727  0.00  0.00    +0.162 A 
ATOM      7  C   UNL     1       0.198  -0.482   4.291  0.00  0.00    +0.162 A 
ATOM      8  C   UNL     1      -0.474  -0.026   3.170  0.00  0.00    +0.055 A 
ATOM      9  O   UNL     1      -0.260  -1.571   4.974  0.00  0.00    -0.488 OA
ATOM     10  C   UNL     1       0.559  -2.741   4.904  0.00  0.00    +0.232 C 
ATOM     11  C   UNL     1       1.663  -2.689   5.949  0.00  0.00    +0.082 C 
ATOM     12  C   UNL     1       2.644  -1.555   5.699  0.00  0.00    +0.232 C 
ATOM     13  O   UNL     1       1.998  -0.287   5.834  0.00  0.00    -0.488 OA
ENDBRANCH   2   3
BRANCH   2  14
ATOM     14  N   UNL     1      -0.749   3.044   1.275  0.00  0.00    -0.305 N 
ATOM     15  C   UNL     1      -1.720   3.708   0.618  0.00  0.00    +0.246 C 
ATOM     16  O   UNL     1      -2.580   3.092   0.019  0.00  0.00    -0.270 OA
ATOM     17  H   UNL     1       0.029   3.602   1.817  0.00  0.00    +0.150 HD
BRANCH  15  18
ATOM     18  C   UNL     1      -1.740   5.185   0.626  0.00  0.00    +0.055 A 
ATOM     19  C   UNL     1      -0.754   5.896   1.313  0.00  0.00    +0.016 A 
ATOM     20  C   UNL     1      -0.778   7.274   1.318  0.00  0.00    +0.021 A 
ATOM     21  C   UNL     1      -1.778   7.956   0.642  0.00  0.00    +0.042 A 
ATOM     22  C   UNL     1      -2.759   7.258  -0.041  0.00  0.00    +0.040 A 
ATOM     23  C   UNL     1      -2.743   5.877  -0.058  0.00  0.00    +0.054 A 
ATOM     24 CL   UNL     1      -3.969   5.003  -0.922  0.00  0.00    -0.083 Cl
ATOM     25 CL   UNL     1      -1.800   9.691   0.652  0.00  0.00    -0.083 Cl
ENDBRANCH  15  18
ENDBRANCH   2  14
TORSDOF 3
