REMARK  Name = ZINC39570243
REMARK  8 active torsions:
REMARK  status: ('A' for Active; 'I' for Inactive)
REMARK    1  A    between atoms: C_1  and  C_2
REMARK    2  A    between atoms: C_2  and  C_3
REMARK    3  A    between atoms: N_11  and  C_15
REMARK    4  A    between atoms: C_15  and  C_16
REMARK    5  A    between atoms: N_18  and  C_19
REMARK    6  A    between atoms: C_19  and  C_21
REMARK    7  A    between atoms: C_19  and  C_22
REMARK    8  A    between atoms: C_27  and  C_28
REMARK                            x       y       z     vdW  Elec       q    Type
REMARK                         _______ _______ _______ _____ _____    ______ ____
ROOT
ATOM      1  C   UNL     1      -6.063  -4.361   0.999  0.00  0.00    -0.011 C 
ATOM      2  C   UNL     1      -6.436  -3.557  -0.248  0.00  0.00    +0.006 C 
ATOM      3  C   UNL     1      -5.313  -2.567  -0.570  0.00  0.00    +0.035 C 
ATOM      4  C   UNL     1      -4.013  -3.328  -0.806  0.00  0.00    +0.113 C 
ATOM      5  C   UNL     1      -3.641  -4.155   0.420  0.00  0.00    +0.035 C 
ATOM      6  C   UNL     1      -4.771  -5.138   0.738  0.00  0.00    +0.006 C 
ATOM      7  C   UNL     1      -4.134  -4.214  -2.024  0.00  0.00    +0.247 C 
ATOM      8  O   UNL     1      -4.908  -5.132  -2.190  0.00  0.00    -0.273 OA
ATOM      9  N   UNL     1      -3.199  -3.768  -2.888  0.00  0.00    -0.215 N 
ATOM     10  C   UNL     1      -2.515  -2.733  -2.384  0.00  0.00    +0.310 C 
ATOM     11  O   UNL     1      -1.621  -2.161  -2.976  0.00  0.00    -0.252 OA
ATOM     12  N   UNL     1      -2.929  -2.398  -1.147  0.00  0.00    -0.285 N 
ATOM     13  H   UNL     1      -2.580  -1.684  -0.591  0.00  0.00    +0.151 HD
ENDROOT
BRANCH   1  15
ATOM     14  C   UNL     1      -8.449  -4.562   1.712  0.00  0.00    +0.004 C 
ATOM     15  C   UNL     1      -7.190  -5.342   1.329  0.00  0.00    -0.000 C 
ENDBRANCH   1  15
BRANCH   9  16
ATOM     16  C   UNL     1      -2.961  -4.345  -4.213  0.00  0.00    +0.213 C 
BRANCH  16  17
ATOM     17  C   UNL     1      -3.826  -3.644  -5.229  0.00  0.00    +0.231 C 
ATOM     18  O   UNL     1      -4.568  -2.751  -4.880  0.00  0.00    -0.274 OA
ATOM     19  N   UNL     1      -3.775  -4.010  -6.525  0.00  0.00    -0.307 N 
ATOM     20  H   UNL     1      -3.181  -4.725  -6.804  0.00  0.00    +0.149 HD
BRANCH  19  21
ATOM     21  C   UNL     1      -4.616  -3.329  -7.512  0.00  0.00    +0.100 C 
ATOM     22  C   UNL     1      -3.965  -3.430  -8.893  0.00  0.00    +0.033 C 
BRANCH  21  23
ATOM     23  C   UNL     1      -5.975  -3.980  -7.549  0.00  0.00    -0.025 A 
ATOM     24  C   UNL     1      -6.130  -5.281  -7.107  0.00  0.00    +0.006 A 
ATOM     25  C   UNL     1      -7.376  -5.878  -7.140  0.00  0.00    +0.000 A 
ATOM     26  C   UNL     1      -8.467  -5.174  -7.616  0.00  0.00    +0.000 A 
ATOM     27  C   UNL     1      -8.312  -3.874  -8.057  0.00  0.00    +0.004 A 
ATOM     28  C   UNL     1      -7.066  -3.275  -8.020  0.00  0.00    -0.046 A 
ATOM     29  C   UNL     1      -6.898  -1.855  -8.496  0.00  0.00    +0.044 C 
ENDBRANCH  21  23
ENDBRANCH  19  21
ENDBRANCH  16  17
ENDBRANCH   9  16
TORSDOF 5
