REMARK  Name = ZINC43761915
REMARK  4 active torsions:
REMARK  status: ('A' for Active; 'I' for Inactive)
REMARK    1  A    between atoms: C_3  and  N_26
REMARK    2  A    between atoms: C_6  and  C_7
REMARK    3  A    between atoms: C_7  and  O_9
REMARK    4  A    between atoms: O_9  and  C_10
REMARK                            x       y       z     vdW  Elec       q    Type
REMARK                         _______ _______ _______ _____ _____    ______ ____
ROOT
ATOM      1  O   UNL     1      -1.243  -2.110   0.003  0.00  0.00    -0.453 OA
ENDROOT
BRANCH   1   2
ATOM      2  C   UNL     1      -2.506  -2.780   0.012  0.00  0.00    +0.207 C 
ATOM      3  C   UNL     1      -2.935  -3.119   1.450  0.00  0.00    +0.014 C 
ATOM      4  C   UNL     1      -2.357  -4.115   2.085  0.00  0.00    -0.020 C 
ATOM      5  C   UNL     1      -1.200  -4.905   1.555  0.00  0.00    +0.038 C 
ATOM      6  C   UNL     1      -1.239  -6.397   1.890  0.00  0.00    -0.023 C 
ATOM      7  C   UNL     1      -1.887  -7.097   0.958  0.00  0.00    -0.023 C 
ATOM      8  C   UNL     1      -2.508  -6.114   0.045  0.00  0.00    +0.038 C 
ATOM      9  C   UNL     1      -1.306  -4.998   0.015  0.00  0.00    +0.021 C 
ATOM     10  C   UNL     1      -2.399  -4.097  -0.606  0.00  0.00    +0.061 C 
ATOM     11  C   UNL     1      -2.684  -4.818  -1.854  0.00  0.00    -0.023 C 
ATOM     12  C   UNL     1      -2.684  -6.177  -1.449  0.00  0.00    -0.023 C 
ENDBRANCH   1   2
BRANCH   1  13
ATOM     13  C   UNL     1      -1.265  -0.763   0.011  0.00  0.00    +0.340 C 
ATOM     14  O   UNL     1      -2.327  -0.173   0.024  0.00  0.00    -0.245 OA
BRANCH  13  20
ATOM     15  C   UNL     1      -0.017   1.392   0.010  0.00  0.00    +0.017 A 
ATOM     16  C   UNL     1       1.170   2.095   0.002  0.00  0.00    +0.033 A 
ATOM     17  C   UNL     1       2.378   1.419  -0.013  0.00  0.00    +0.126 A 
ATOM     18  C   UNL     1       2.404   0.036  -0.021  0.00  0.00    +0.033 A 
ATOM     19  C   UNL     1       1.224  -0.679  -0.014  0.00  0.00    +0.017 A 
ATOM     20  C   UNL     1       0.002  -0.004   0.002  0.00  0.00    +0.059 A 
BRANCH  17  21
ATOM     21  N   UNL     1       3.647   2.180  -0.021  0.00  0.00    +0.056 N 
ATOM     22  O   UNL     1       3.628   3.389  -0.014  0.00  0.00    -0.126 OA
ATOM     23  O   UNL     1       4.704   1.593  -0.034  0.00  0.00    -0.126 OA
ENDBRANCH  17  21
ENDBRANCH  13  20
ENDBRANCH   1  13
TORSDOF 4
