REMARK  Name = ZINC06128554
REMARK  7 active torsions:
REMARK  status: ('A' for Active; 'I' for Inactive)
REMARK    1  A    between atoms: C_1  and  C_2
REMARK    2  A    between atoms: C_3  and  C_12
REMARK    3  A    between atoms: C_12  and  C_14
REMARK    4  A    between atoms: C_14  and  S_15
REMARK    5  A    between atoms: S_15  and  C_16
REMARK    6  A    between atoms: C_19  and  C_27
REMARK    7  A    between atoms: N_20  and  C_21
REMARK                            x       y       z     vdW  Elec       q    Type
REMARK                         _______ _______ _______ _____ _____    ______ ____
ROOT
ATOM      1  S   UNL     1       6.236   4.652  -0.095  0.00  0.00    -0.078 S 
ENDROOT
BRANCH   1   2
ATOM      2  C   UNL     1       7.076   6.191   0.078  0.00  0.00    +0.197 A 
ATOM      3  N   UNL     1       6.523   7.363   0.291  0.00  0.00    -0.122 NA
ATOM      4  N   UNL     1       7.431   8.268   0.364  0.00  0.00    -0.133 NA
ATOM      5  C   UNL     1       8.610   7.736   0.205  0.00  0.00    +0.142 A 
ATOM      6  N   UNL     1       8.428   6.391   0.023  0.00  0.00    -0.274 N 
BRANCH   6   7
ATOM      7  C   UNL     1       9.420   5.421  -0.181  0.00  0.00    +0.050 A 
ATOM      8  C   UNL     1      10.340   5.146   0.821  0.00  0.00    +0.026 A 
ATOM      9  C   UNL     1      11.312   4.185   0.619  0.00  0.00    +0.002 A 
ATOM     10  C   UNL     1      11.378   3.508  -0.585  0.00  0.00    +0.000 A 
ATOM     11  C   UNL     1      10.466   3.784  -1.587  0.00  0.00    +0.002 A 
ATOM     12  C   UNL     1       9.488   4.739  -1.389  0.00  0.00    +0.026 A 
ENDBRANCH   6   7
BRANCH   5  13
ATOM     13  C   UNL     1       9.929   8.464   0.224  0.00  0.00    +0.057 C 
ATOM     14  C   UNL     1       9.920   9.933   0.653  0.00  0.00    +0.012 C 
ATOM     15  C   UNL     1      10.143   9.566  -0.816  0.00  0.00    +0.012 C 
ENDBRANCH   5  13
ENDBRANCH   1   2
BRANCH   1  16
ATOM     16  C   UNL     1       4.523   5.204   0.103  0.00  0.00    +0.157 C 
BRANCH  16  17
ATOM     17  C   UNL     1       3.597   4.021  -0.011  0.00  0.00    +0.176 C 
ATOM     18  O   UNL     1       4.054   2.900  -0.111  0.00  0.00    -0.291 OA
BRANCH  17  21
ATOM     19  C   UNL     1       1.820   4.288  -2.537  0.00  0.00    +0.064 C 
ATOM     20  C   UNL     1       1.368   4.339  -1.100  0.00  0.00    +0.024 A 
ATOM     21  C   UNL     1       2.193   4.216  -0.003  0.00  0.00    +0.046 A 
ATOM     22  C   UNL     1       1.321   4.329   1.183  0.00  0.00    +0.010 A 
ATOM     23  C   UNL     1       1.546   4.288   2.556  0.00  0.00    +0.011 A 
ATOM     24  C   UNL     1       0.486   4.429   3.425  0.00  0.00    +0.001 A 
ATOM     25  C   UNL     1      -0.800   4.606   2.937  0.00  0.00    +0.002 A 
ATOM     26  C   UNL     1      -1.035   4.654   1.580  0.00  0.00    +0.026 A 
ATOM     27  C   UNL     1       0.022   4.513   0.686  0.00  0.00    +0.047 A 
ATOM     28  N   UNL     1       0.096   4.513  -0.692  0.00  0.00    -0.358 N 
ATOM     29  H   UNL     1      -0.663   4.623  -1.285  0.00  0.00    +0.166 HD
ENDBRANCH  17  21
ENDBRANCH  16  17
ENDBRANCH   1  16
TORSDOF 6
