REMARK  Name = ZINC49528706
REMARK  7 active torsions:
REMARK  status: ('A' for Active; 'I' for Inactive)
REMARK    1  A    between atoms: C_1  and  C_2
REMARK    2  A    between atoms: C_2  and  C_3
REMARK    3  A    between atoms: C_3  and  C_5
REMARK    4  A    between atoms: C_3  and  N_10
REMARK    5  A    between atoms: N_10  and  S_11
REMARK    6  A    between atoms: S_11  and  C_14
REMARK    7  A    between atoms: C_15  and  N_22
REMARK                            x       y       z     vdW  Elec       q    Type
REMARK                         _______ _______ _______ _____ _____    ______ ____
ROOT
ATOM      1  S   UNL     1      -3.207   1.448   1.594  0.00  0.00    +0.062 S 
ATOM      2  O   UNL     1      -3.747   1.647   2.893  0.00  0.00    -0.153 OA
ATOM      3  O   UNL     1      -2.568   2.489   0.867  0.00  0.00    -0.153 OA
ENDROOT
BRANCH   1   4
ATOM      4  C   UNL     1      -4.528   0.866   0.583  0.00  0.00    +0.144 A 
ATOM      5  C   UNL     1      -4.447   0.977  -0.799  0.00  0.00    +0.054 A 
ATOM      6  C   UNL     1      -5.489   0.517  -1.593  0.00  0.00    +0.044 A 
ATOM      7  C   UNL     1      -6.605  -0.050  -1.006  0.00  0.00    +0.044 A 
ATOM      8  C   UNL     1      -6.683  -0.159   0.371  0.00  0.00    +0.042 A 
ATOM      9  C   UNL     1      -5.644   0.294   1.165  0.00  0.00    +0.070 A 
ATOM     10 CL   UNL     1      -5.743   0.148   2.892  0.00  0.00    -0.081 Cl
ATOM     11 CL   UNL     1      -7.909  -0.625  -1.997  0.00  0.00    -0.083 Cl
BRANCH   5  12
ATOM     12  N   UNL     1      -3.318   1.551  -1.390  0.00  0.00    -0.356 N 
ATOM     13  H   UNL     1      -2.517   1.698  -0.864  0.00  0.00    +0.142 HD
ATOM     14  H   UNL     1      -3.336   1.802  -2.327  0.00  0.00    +0.142 HD
ENDBRANCH   5  12
ENDBRANCH   1   4
BRANCH   1  15
ATOM     15  N   UNL     1      -2.108   0.216   1.721  0.00  0.00    -0.182 NA
ATOM     16  H   UNL     1      -1.953  -0.208   2.579  0.00  0.00    +0.149 HD
BRANCH  15  17
ATOM     17  C   UNL     1      -1.371  -0.233   0.537  0.00  0.00    +0.113 C 
BRANCH  17  18
ATOM     18  C   UNL     1      -2.080  -1.411  -0.080  0.00  0.00    +0.008 A 
ATOM     19  C   UNL     1      -2.276  -1.700  -1.389  0.00  0.00    +0.013 A 
ATOM     20  C   UNL     1      -2.962  -2.851  -1.727  0.00  0.00    +0.008 A 
ATOM     21  C   UNL     1      -3.420  -3.657  -0.738  0.00  0.00    +0.045 A 
ATOM     22  S   UNL     1      -2.873  -2.793   0.726  0.00  0.00    -0.100 S 
ENDBRANCH  17  18
BRANCH  17  24
ATOM     23  C   UNL     1       0.809   0.581   1.446  0.00  0.00    +0.006 C 
ATOM     24  C   UNL     1       0.045  -0.645   0.944  0.00  0.00    +0.022 C 
ENDBRANCH  17  24
ENDBRANCH  15  17
ENDBRANCH   1  15
TORSDOF 6
