REMARK  Name = ZINC16393599
REMARK  8 active torsions:
REMARK  status: ('A' for Active; 'I' for Inactive)
REMARK    1  A    between atoms: C_1  and  C_2
REMARK    2  A    between atoms: C_2  and  O_3
REMARK    3  A    between atoms: O_3  and  C_4
REMARK    4  A    between atoms: C_9  and  C_10
REMARK    5  A    between atoms: C_15  and  C_20
REMARK    6  A    between atoms: C_26  and  C_38
REMARK    7  A    between atoms: C_27  and  C_28
REMARK    8  A    between atoms: C_35  and  C_37
REMARK                            x       y       z     vdW  Elec       q    Type
REMARK                         _______ _______ _______ _____ _____    ______ ____
ROOT
ATOM      1  C   UNL     1       2.528   3.971  -0.252  0.00  0.00    +0.094 C 
ATOM      2  C   UNL     1       2.560   5.048  -1.307  0.00  0.00    +0.024 C 
ATOM      3  C   UNL     1       2.294   6.333  -0.988  0.00  0.00    +0.016 C 
ATOM      4  C   UNL     1       2.305   7.413  -2.042  0.00  0.00    +0.060 C 
ATOM      5  C   UNL     1       3.318   7.057  -3.132  0.00  0.00    +0.039 C 
ATOM      6  C   UNL     1       2.934   5.700  -3.729  0.00  0.00    +0.088 C 
ATOM      7  C   UNL     1       2.874   4.678  -2.626  0.00  0.00    +0.162 C 
ATOM      8  O   UNL     1       3.102   3.512  -2.880  0.00  0.00    -0.292 OA
ATOM      9  N   UNL     1       2.004   6.683   0.303  0.00  0.00    -0.321 N 
ATOM     10  C   UNL     1       2.347   5.862   1.341  0.00  0.00    +0.014 C 
ATOM     11  C   UNL     1       2.610   4.563   1.124  0.00  0.00    +0.043 C 
ATOM     12  C   UNL     1       2.431   6.419   2.739  0.00  0.00    +0.061 C 
ATOM     13  H   UNL     1       1.490   7.633   0.513  0.00  0.00    +0.152 HD
ENDROOT
BRANCH  11  14
ATOM     14  C   UNL     1       2.970   3.735   2.216  0.00  0.00    +0.248 C 
ATOM     15  O   UNL     1       4.129   3.394   2.365  0.00  0.00    -0.270 OA
ATOM     16  N   UNL     1       2.029   3.324   3.089  0.00  0.00    -0.267 N 
ATOM     17  C   UNL     1       2.398   2.602   4.222  0.00  0.00    +0.125 A 
ATOM     18  C   UNL     1       1.416   2.087   5.061  0.00  0.00    +0.044 A 
ATOM     19  C   UNL     1       1.796   1.368   6.180  0.00  0.00    +0.005 A 
ATOM     20  C   UNL     1       3.151   1.197   6.428  0.00  0.00    +0.023 A 
ATOM     21  C   UNL     1       4.073   1.740   5.555  0.00  0.00    +0.040 A 
ATOM     22  N   UNL     1       3.680   2.417   4.493  0.00  0.00    -0.237 NA
ATOM     23  C   UNL     1       5.545   1.558   5.819  0.00  0.00    +0.065 C 
ATOM     24  H   UNL     1       0.970   3.559   2.907  0.00  0.00    +0.157 HD
ENDBRANCH  11  14
BRANCH   1  30
ATOM     25  C   UNL     1       1.284   1.834  -0.666  0.00  0.00    +0.125 A 
ATOM     26  C   UNL     1       0.101   1.118  -0.783  0.00  0.00    +0.046 A 
ATOM     27  C   UNL     1      -1.112   1.759  -0.620  0.00  0.00    +0.004 A 
ATOM     28  C   UNL     1      -1.147   3.111  -0.330  0.00  0.00    +0.001 A 
ATOM     29  C   UNL     1       0.030   3.826  -0.213  0.00  0.00    +0.008 A 
ATOM     30  C   UNL     1       1.245   3.191  -0.380  0.00  0.00    +0.006 A 
BRANCH  25  31
ATOM     31  O   UNL     1       2.478   1.207  -0.831  0.00  0.00    -0.492 OA
BRANCH  31  33
ATOM     32  C   UNL     1       3.870  -0.719  -1.274  0.00  0.00    +0.048 C 
ATOM     33  C   UNL     1       2.441  -0.192  -1.123  0.00  0.00    +0.225 C 
ENDBRANCH  31  33
ENDBRANCH  25  31
ENDBRANCH   1  30
BRANCH   5  34
ATOM     34  C   UNL     1       3.293   8.110  -4.210  0.00  0.00    -0.006 A 
ATOM     35  C   UNL     1       4.300   8.903  -4.652  0.00  0.00    +0.011 A 
ATOM     36  C   UNL     1       4.045   9.809  -5.664  0.00  0.00    +0.008 A 
ATOM     37  C   UNL     1       2.795   9.877  -6.185  0.00  0.00    +0.045 A 
ATOM     38  S   UNL     1       1.933   8.631  -5.241  0.00  0.00    -0.101 S 
ENDBRANCH   5  34
TORSDOF 5
