REMARK  Name = ZINC49559415
REMARK  9 active torsions:
REMARK  status: ('A' for Active; 'I' for Inactive)
REMARK    1  A    between atoms: C_1  and  C_2
REMARK    2  A    between atoms: C_2  and  C_4
REMARK    3  A    between atoms: C_2  and  N_9
REMARK    4  A    between atoms: C_4  and  C_5
REMARK    5  A    between atoms: C_5  and  N_6
REMARK    6  A    between atoms: N_6  and  C_7
REMARK    7  A    between atoms: N_6  and  C_8
REMARK    8  A    between atoms: C_17  and  C_18
REMARK    9  A    between atoms: C_18  and  C_20
REMARK                            x       y       z     vdW  Elec       q    Type
REMARK                         _______ _______ _______ _____ _____    ______ ____
ROOT
ATOM      1  N   UNL     1       0.688  -0.476  -1.203  0.00  0.00    -0.324 N 
ATOM      2  C   UNL     1       0.320  -0.218  -2.509  0.00  0.00    +0.069 A 
ATOM      3  C   UNL     1      -0.714   0.499  -3.096  0.00  0.00    +0.029 A 
ATOM      4  C   UNL     1      -0.807   0.567  -4.470  0.00  0.00    +0.017 A 
ATOM      5  C   UNL     1       0.126  -0.077  -5.271  0.00  0.00    +0.020 A 
ATOM      6  C   UNL     1       1.157  -0.793  -4.706  0.00  0.00    +0.045 A 
ATOM      7  C   UNL     1       1.266  -0.872  -3.315  0.00  0.00    +0.090 A 
ATOM      8  N   UNL     1       2.144  -1.482  -2.478  0.00  0.00    -0.231 NA
ATOM      9  C   UNL     1       1.808  -1.246  -1.244  0.00  0.00    +0.129 A 
ATOM     10 BR   UNL     1      -0.021   0.029  -7.154  0.00  0.00    -0.050 Br
ENDROOT
BRANCH   9  11
ATOM     11  C   UNL     1       2.550  -1.755  -0.035  0.00  0.00    +0.143 C 
ATOM     12  C   UNL     1       2.260  -3.246   0.152  0.00  0.00    +0.033 C 
ATOM     13 CL   UNL     1       4.322  -1.514  -0.271  0.00  0.00    -0.114 Cl
ENDBRANCH   9  11
BRANCH   1  15
ATOM     14  C   UNL     1      -0.019   1.526   0.010  0.00  0.00    +0.031 C 
ATOM     15  C   UNL     1       0.002  -0.004   0.002  0.00  0.00    +0.084 C 
BRANCH  15  16
ATOM     16  C   UNL     1      -1.433  -0.534   0.013  0.00  0.00    +0.006 C 
BRANCH  16  17
ATOM     17  C   UNL     1      -2.110  -0.145   1.329  0.00  0.00    -0.078 C 
BRANCH  17  18
ATOM     18  N   UNL     1      -3.488  -0.654   1.339  0.00  0.00    +0.376 N 
ATOM     19  C   UNL     1      -3.469  -2.123   1.331  0.00  0.00    -0.097 C 
ATOM     20  C   UNL     1      -4.176  -0.180   2.548  0.00  0.00    -0.097 C 
ATOM     21  H   UNL     1      -3.976  -0.320   0.522  0.00  0.00    -0.083 HD
ENDBRANCH  17  18
ENDBRANCH  16  17
ENDBRANCH  15  16
ENDBRANCH   1  15
TORSDOF 5
