REMARK  Name = ZINC06229269
REMARK  8 active torsions:
REMARK  status: ('A' for Active; 'I' for Inactive)
REMARK    1  A    between atoms: C_1  and  C_2
REMARK    2  A    between atoms: C_6  and  C_39
REMARK    3  A    between atoms: C_7  and  N_8
REMARK    4  A    between atoms: N_8  and  S_9
REMARK    5  A    between atoms: S_9  and  C_12
REMARK    6  A    between atoms: C_25  and  C_28
REMARK    7  A    between atoms: C_32  and  O_34
REMARK    8  A    between atoms: O_34  and  C_35
REMARK                            x       y       z     vdW  Elec       q    Type
REMARK                         _______ _______ _______ _____ _____    ______ ____
ROOT
ATOM      1  C   UNL     1      -0.828  -0.732  -1.996  0.00  0.00    +0.109 A 
ATOM      2  C   UNL     1      -0.174  -0.870  -3.207  0.00  0.00    +0.030 A 
ATOM      3  C   UNL     1      -0.903  -1.108  -4.355  0.00  0.00    +0.025 A 
ATOM      4  C   UNL     1      -2.288  -1.208  -4.291  0.00  0.00    +0.031 A 
ATOM      5  C   UNL     1      -2.947  -1.068  -3.080  0.00  0.00    -0.018 A 
ATOM      6  C   UNL     1      -2.203  -0.835  -1.932  0.00  0.00    +0.034 A 
ATOM      7  C   UNL     1      -4.435  -1.165  -2.962  0.00  0.00    +0.049 C 
ATOM      8  C   UNL     1      -4.856  -2.477  -2.345  0.00  0.00    -0.023 C 
ATOM      9  C   UNL     1      -5.965  -2.904  -2.897  0.00  0.00    -0.030 C 
ATOM     10  C   UNL     1      -6.440  -1.930  -3.957  0.00  0.00    +0.033 C 
ATOM     11  C   UNL     1      -5.149  -1.142  -4.328  0.00  0.00    +0.029 C 
ATOM     12  C   UNL     1      -4.372  -1.991  -5.339  0.00  0.00    +0.105 C 
ATOM     13  N   UNL     1      -3.012  -1.455  -5.462  0.00  0.00    -0.336 N 
ATOM     14  H   UNL     1      -2.626  -1.275  -6.333  0.00  0.00    +0.147 HD
ENDROOT
BRANCH  12  15
ATOM     15  C   UNL     1      -4.311  -3.419  -4.861  0.00  0.00    -0.024 A 
ATOM     16  C   UNL     1      -3.392  -3.785  -3.895  0.00  0.00    +0.006 A 
ATOM     17  C   UNL     1      -3.336  -5.093  -3.451  0.00  0.00    +0.004 A 
ATOM     18  C   UNL     1      -4.192  -6.040  -3.981  0.00  0.00    +0.045 A 
ATOM     19  C   UNL     1      -5.111  -5.676  -4.954  0.00  0.00    +0.121 A 
ATOM     20  C   UNL     1      -5.168  -4.362  -5.394  0.00  0.00    +0.051 A 
BRANCH  19  21
ATOM     21  O   UNL     1      -5.954  -6.606  -5.476  0.00  0.00    -0.487 OA
BRANCH  21  22
ATOM     22  C   UNL     1      -5.819  -7.946  -4.997  0.00  0.00    +0.193 C 
ATOM     23  C   UNL     1      -5.088  -8.865  -5.978  0.00  0.00    +0.114 C 
ATOM     24  S   UNL     1      -6.083 -10.268  -5.398  0.00  0.00    -0.153 S 
ATOM     25  C   UNL     1      -7.092  -8.777  -5.169  0.00  0.00    +0.114 C 
ENDBRANCH  21  22
ENDBRANCH  19  21
ENDBRANCH  12  15
BRANCH   1  26
ATOM     26  S   UNL     1       0.099  -0.430  -0.528  0.00  0.00    +0.072 S 
ATOM     27  O   UNL     1       1.436  -0.824  -0.804  0.00  0.00    -0.150 OA
ATOM     28  O   UNL     1      -0.651  -0.980   0.546  0.00  0.00    -0.150 OA
BRANCH  26  29
ATOM     29  N   UNL     1       0.127   1.209  -0.295  0.00  0.00    -0.216 N 
ATOM     30  H   UNL     1       0.956   1.701  -0.408  0.00  0.00    +0.174 HD
BRANCH  29  37
ATOM     31  C   UNL     1      -1.173   2.771  -2.287  0.00  0.00    +0.046 C 
ATOM     32  C   UNL     1      -1.711   2.659  -0.884  0.00  0.00    -0.028 A 
ATOM     33  C   UNL     1      -2.871   3.321  -0.533  0.00  0.00    +0.005 A 
ATOM     34  C   UNL     1      -3.362   3.223   0.756  0.00  0.00    +0.001 A 
ATOM     35  C   UNL     1      -2.697   2.458   1.696  0.00  0.00    +0.005 A 
ATOM     36  C   UNL     1      -1.540   1.789   1.351  0.00  0.00    -0.028 A 
ATOM     37  C   UNL     1      -1.044   1.885   0.057  0.00  0.00    +0.054 A 
ATOM     38  C   UNL     1      -0.816   0.956   2.377  0.00  0.00    +0.046 C 
ENDBRANCH  29  37
ENDBRANCH  26  29
ENDBRANCH   1  26
TORSDOF 6
