REMARK  Name = ZINC35294158
REMARK  14 active torsions:
REMARK  status: ('A' for Active; 'I' for Inactive)
REMARK    1  A    between atoms: C_1  and  C_2
REMARK    2  A    between atoms: C_9  and  C_11
REMARK    3  A    between atoms: C_11  and  C_12
REMARK    4  A    between atoms: C_12  and  C_13
REMARK    5  A    between atoms: C_12  and  C_14
REMARK    6  A    between atoms: C_12  and  C_15
REMARK    7  A    between atoms: C_20  and  S_22
REMARK    8  A    between atoms: S_22  and  C_23
REMARK    9  A    between atoms: C_23  and  C_24
REMARK   10  A    between atoms: N_26  and  C_27
REMARK   11  A    between atoms: C_27  and  C_28
REMARK   12  A    between atoms: C_28  and  C_29
REMARK   13  A    between atoms: C_29  and  C_30
REMARK   14  A    between atoms: C_29  and  C_31
REMARK                            x       y       z     vdW  Elec       q    Type
REMARK                         _______ _______ _______ _____ _____    ______ ____
ROOT
ATOM      1  C   UNL     1       0.111   1.665   0.494  0.00  0.00    +0.029 C 
ATOM      2  C   UNL     1       0.120   0.155   0.249  0.00  0.00    +0.090 C 
ATOM      3  C   UNL     1      -1.317  -0.344   0.054  0.00  0.00    +0.128 C 
ATOM      4  N   UNL     1      -2.019  -0.269   1.343  0.00  0.00    -0.312 N 
ATOM      5  C   UNL     1      -1.437  -0.954   2.506  0.00  0.00    +0.125 C 
ATOM      6  C   UNL     1      -0.000  -0.456   2.701  0.00  0.00    +0.127 C 
ATOM      7  N   UNL     1       0.705  -0.530   1.410  0.00  0.00    -0.296 N 
ATOM      8  C   UNL     1       1.861  -1.214   1.293  0.00  0.00    +0.216 C 
ATOM      9  O   UNL     1       2.427  -1.268   0.222  0.00  0.00    -0.276 OA
ATOM     10  C   UNL     1      -3.207   0.433   1.460  0.00  0.00    +0.127 A 
ATOM     11  C   UNL     1      -3.869   0.898   0.322  0.00  0.00    +0.083 A 
ATOM     12  C   UNL     1      -5.053   1.594   0.486  0.00  0.00    +0.135 A 
ATOM     13  N   UNL     1      -5.520   1.800   1.710  0.00  0.00    -0.210 NA
ATOM     14  C   UNL     1      -4.869   1.347   2.772  0.00  0.00    +0.192 A 
ATOM     15  N   UNL     1      -3.735   0.671   2.656  0.00  0.00    -0.207 NA
ATOM     16 CL   UNL     1      -5.917   2.194  -0.895  0.00  0.00    -0.062 Cl
ENDROOT
BRANCH   8  17
ATOM     17  C   UNL     1       2.449  -1.911   2.493  0.00  0.00    +0.102 C 
BRANCH  17  18
ATOM     18  C   UNL     1       3.751  -2.607   2.091  0.00  0.00    -0.029 C 
ATOM     19  C   UNL     1       4.744  -1.568   1.567  0.00  0.00    +0.011 C 
ATOM     20  C   UNL     1       4.348  -3.315   3.309  0.00  0.00    +0.011 C 
ATOM     21  C   UNL     1       3.462  -3.635   0.995  0.00  0.00    +0.011 C 
ENDBRANCH  17  18
ENDBRANCH   8  17
BRANCH  14  22
ATOM     22  S   UNL     1      -5.531   1.645   4.378  0.00  0.00    -0.077 S 
BRANCH  22  23
ATOM     23  C   UNL     1      -7.056   2.575   4.058  0.00  0.00    +0.173 C 
BRANCH  23  24
ATOM     24  C   UNL     1      -7.730   2.899   5.366  0.00  0.00    +0.223 C 
ATOM     25  O   UNL     1      -7.232   2.538   6.411  0.00  0.00    -0.275 OA
ATOM     26  N   UNL     1      -8.888   3.589   5.374  0.00  0.00    -0.315 N 
ATOM     27  H   UNL     1      -9.287   3.878   4.538  0.00  0.00    +0.149 HD
BRANCH  26  28
ATOM     28  C   UNL     1      -9.544   3.904   6.646  0.00  0.00    +0.104 C 
BRANCH  28  29
ATOM     29  C   UNL     1     -10.829   4.688   6.376  0.00  0.00    +0.022 C 
BRANCH  29  30
ATOM     30  C   UNL     1     -11.514   5.017   7.704  0.00  0.00    -0.016 C 
ATOM     31  C   UNL     1     -12.732   5.906   7.443  0.00  0.00    +0.007 C 
ATOM     32  C   UNL     1     -11.965   3.720   8.380  0.00  0.00    +0.007 C 
ENDBRANCH  29  30
ENDBRANCH  28  29
ENDBRANCH  26  28
ENDBRANCH  23  24
ENDBRANCH  22  23
ENDBRANCH  14  22
TORSDOF 8
