REMARK  Name = ZINC01598759
REMARK  3 active torsions:
REMARK  status: ('A' for Active; 'I' for Inactive)
REMARK    1  A    between atoms: C_6  and  N_7
REMARK    2  A    between atoms: C_8  and  C_10
REMARK    3  A    between atoms: C_19  and  N_22
REMARK                            x       y       z     vdW  Elec       q    Type
REMARK                         _______ _______ _______ _____ _____    ______ ____
ROOT
ATOM      1  C   UNL     1      -3.301  -1.936   0.192  0.00  0.00    +0.024 A 
ATOM      2  C   UNL     1      -2.469  -0.837   0.186  0.00  0.00    +0.010 A 
ATOM      3  C   UNL     1      -1.096  -1.000  -0.009  0.00  0.00    -0.014 A 
ATOM      4  C   UNL     1      -0.577  -2.280  -0.195  0.00  0.00    -0.033 A 
ATOM      5  C   UNL     1      -1.410  -3.376  -0.188  0.00  0.00    +0.028 A 
ATOM      6  C   UNL     1      -2.777  -3.210   0.005  0.00  0.00    +0.034 A 
ATOM      7  C   UNL     1       0.915  -2.143  -0.377  0.00  0.00    +0.074 C 
ATOM      8  C   UNL     1       1.213  -0.667  -0.279  0.00  0.00    +0.002 A 
ATOM      9  C   UNL     1       0.006  -0.008  -0.061  0.00  0.00    -0.011 A 
ATOM     10  C   UNL     1      -0.001   1.382   0.069  0.00  0.00    +0.011 A 
ATOM     11  C   UNL     1       1.179   2.090  -0.019  0.00  0.00    +0.036 A 
ATOM     12  C   UNL     1       2.374   1.429  -0.238  0.00  0.00    +0.161 A 
ATOM     13  C   UNL     1       2.391   0.049  -0.367  0.00  0.00    +0.157 A 
ATOM     14  F   UNL     1       3.559  -0.595  -0.580  0.00  0.00    -0.203 F 
ENDROOT
BRANCH   6  15
ATOM     15  N   UNL     1      -3.623  -4.323   0.012  0.00  0.00    -0.278 N 
ATOM     16  C   UNL     1      -3.183  -5.502   0.494  0.00  0.00    +0.321 C 
ATOM     17  O   UNL     1      -2.087  -5.575   1.010  0.00  0.00    -0.266 OA
ATOM     18  H   UNL     1      -4.527  -4.246  -0.331  0.00  0.00    +0.155 HD
BRANCH  16  19
ATOM     19  C   UNL     1      -4.051  -6.729   0.393  0.00  0.00    +0.470 C 
ATOM     20  F   UNL     1      -3.383  -7.821   0.958  0.00  0.00    -0.162 F 
ATOM     21  F   UNL     1      -5.250  -6.510   1.079  0.00  0.00    -0.162 F 
ATOM     22  F   UNL     1      -4.326  -6.996  -0.953  0.00  0.00    -0.162 F 
ENDBRANCH  16  19
ENDBRANCH   6  15
BRANCH  12  23
ATOM     23  N   UNL     1       3.637   2.196  -0.332  0.00  0.00    +0.059 N 
ATOM     24  O   UNL     1       3.623   3.408  -0.219  0.00  0.00    -0.126 OA
ATOM     25  O   UNL     1       4.690   1.614  -0.523  0.00  0.00    -0.126 OA
ENDBRANCH  12  23
TORSDOF 3
