REMARK  Name = ZINC59015150
REMARK  7 active torsions:
REMARK  status: ('A' for Active; 'I' for Inactive)
REMARK    1  A    between atoms: C_5  and  C_7
REMARK    2  A    between atoms: N_8  and  N_9
REMARK    3  A    between atoms: C_12  and  S_15
REMARK    4  A    between atoms: S_15  and  C_16
REMARK    5  A    between atoms: C_16  and  C_17
REMARK    6  A    between atoms: N_19  and  C_20
REMARK    7  A    between atoms: C_21  and  C_29
REMARK                            x       y       z     vdW  Elec       q    Type
REMARK                         _______ _______ _______ _____ _____    ______ ____
ROOT
ATOM      1  N   UNL     1       2.414  -4.185  -0.045  0.00  0.00    -0.205 N 
ATOM      2  C   UNL     1       3.624  -4.854  -0.061  0.00  0.00    +0.232 A 
ATOM      3  N   UNL     1       4.817  -4.296  -0.063  0.00  0.00    -0.186 NA
ATOM      4  C   UNL     1       5.758  -5.245  -0.079  0.00  0.00    +0.211 A 
ATOM      5  N   UNL     1       5.177  -6.421  -0.087  0.00  0.00    -0.144 NA
ATOM      6  N   UNL     1       3.791  -6.193  -0.070  0.00  0.00    -0.245 N 
ATOM      7  H   UNL     1       1.583  -4.686  -0.040  0.00  0.00    +0.177 HD
ATOM      8  H   UNL     1       3.092  -6.866  -0.067  0.00  0.00    +0.192 HD
ENDROOT
BRANCH   1  10
ATOM      9  C   UNL     1       1.251  -2.157  -0.022  0.00  0.00    +0.139 C 
ATOM     10  N   UNL     1       2.387  -2.785  -0.037  0.00  0.00    -0.188 NA
BRANCH   9  15
ATOM     11  C   UNL     1      -0.017   1.375   0.010  0.00  0.00    +0.001 A 
ATOM     12  C   UNL     1       1.170   2.087   0.002  0.00  0.00    +0.001 A 
ATOM     13  C   UNL     1       2.383   1.423  -0.013  0.00  0.00    +0.020 A 
ATOM     14  C   UNL     1       2.418   0.042  -0.021  0.00  0.00    +0.050 A 
ATOM     15  C   UNL     1       1.223  -0.683  -0.013  0.00  0.00    +0.013 A 
ATOM     16  C   UNL     1       0.002  -0.004   0.002  0.00  0.00    +0.011 A 
ATOM     17 CL   UNL     1       3.941  -0.790  -0.041  0.00  0.00    -0.083 Cl
ENDBRANCH   9  15
ENDBRANCH   1  10
BRANCH   4  18
ATOM     18  S   UNL     1       7.497  -4.963  -0.088  0.00  0.00    -0.075 S 
BRANCH  18  19
ATOM     19  C   UNL     1       8.212  -6.630  -0.110  0.00  0.00    +0.173 C 
BRANCH  19  20
ATOM     20  C   UNL     1       9.716  -6.532  -0.119  0.00  0.00    +0.228 C 
ATOM     21  O   UNL     1      10.253  -5.444  -0.112  0.00  0.00    -0.275 OA
ATOM     22  N   UNL     1      10.465  -7.652  -0.135  0.00  0.00    -0.278 N 
ATOM     23  H   UNL     1      10.036  -8.522  -0.141  0.00  0.00    +0.155 HD
BRANCH  22  24
ATOM     24  C   UNL     1      11.850  -7.562  -0.144  0.00  0.00    +0.090 A 
ATOM     25  C   UNL     1      12.771  -8.596  -0.166  0.00  0.00    +0.084 A 
ATOM     26  C   UNL     1      14.177  -8.234  -0.171  0.00  0.00    -0.018 A 
ATOM     27  C   UNL     1      14.404  -6.902  -0.153  0.00  0.00    -0.004 A 
ATOM     28  S   UNL     1      12.793  -6.173  -0.137  0.00  0.00    -0.077 S 
ATOM     29  C   UNL     1      15.736  -6.218  -0.151  0.00  0.00    +0.043 C 
ATOM     30  C   UNL     1      16.811  -7.255   0.207  0.00  0.00    +0.005 C 
ATOM     31  C   UNL     1      16.595  -8.508  -0.646  0.00  0.00    +0.005 C 
ATOM     32  C   UNL     1      15.325  -9.232  -0.196  0.00  0.00    +0.037 C 
BRANCH  25  33
ATOM     33  C   UNL     1      12.353  -9.966  -0.183  0.00  0.00    +0.102 C 
ATOM     34  N   UNL     1      12.022 -11.053  -0.196  0.00  0.00    -0.191 NA
ENDBRANCH  25  33
ENDBRANCH  22  24
ENDBRANCH  19  20
ENDBRANCH  18  19
ENDBRANCH   4  18
TORSDOF 7
