REMARK  Name = ZINC64662069
REMARK  5 active torsions:
REMARK  status: ('A' for Active; 'I' for Inactive)
REMARK    1  A    between atoms: C_1  and  C_2
REMARK    2  A    between atoms: C_5  and  N_9
REMARK    3  A    between atoms: C_21  and  C_22
REMARK    4  A    between atoms: C_21  and  C_23
REMARK    5  A    between atoms: N_25  and  C_26
REMARK                            x       y       z     vdW  Elec       q    Type
REMARK                         _______ _______ _______ _____ _____    ______ ____
ROOT
ATOM      1  N   UNL     1       0.154  -4.136  -0.007  0.00  0.00    -0.250 N 
ATOM      2  C   UNL     1       0.184  -4.759  -1.208  0.00  0.00    +0.268 C 
ATOM      3  O   UNL     1       0.451  -4.161  -2.233  0.00  0.00    -0.268 OA
ATOM      4  C   UNL     1      -0.122  -6.196  -1.208  0.00  0.00    +0.106 A 
ATOM      5  C   UNL     1      -0.003  -7.114  -2.188  0.00  0.00    +0.041 A 
ATOM      6  C   UNL     1      -0.420  -8.376  -1.663  0.00  0.00    +0.008 A 
ATOM      7  C   UNL     1      -0.560  -9.760  -2.095  0.00  0.00    +0.017 A 
ATOM      8  C   UNL     1      -1.014 -10.672  -1.225  0.00  0.00    +0.048 A 
ATOM      9  S   UNL     1      -1.292  -9.723   0.258  0.00  0.00    -0.079 S 
ATOM     10  C   UNL     1      -0.790  -8.127  -0.334  0.00  0.00    +0.088 A 
ATOM     11  N   UNL     1      -0.620  -6.819  -0.062  0.00  0.00    -0.328 N 
ATOM     12  C   UNL     1      -0.887  -6.062   1.166  0.00  0.00    +0.158 C 
ATOM     13  C   UNL     1       0.081  -4.878   1.246  0.00  0.00    +0.133 C 
ATOM     14  C   UNL     1       1.477  -5.397   1.596  0.00  0.00    +0.044 C 
ENDROOT
BRANCH   1  19
ATOM     15  C   UNL     1       0.337   1.532   0.158  0.00  0.00    +0.045 C 
ATOM     16  C   UNL     1       0.289   0.026   0.114  0.00  0.00    -0.032 A 
ATOM     17  C   UNL     1      -0.779  -0.612  -0.489  0.00  0.00    +0.006 A 
ATOM     18  C   UNL     1      -0.827  -1.992  -0.530  0.00  0.00    +0.024 A 
ATOM     19  C   UNL     1       0.200  -2.739   0.034  0.00  0.00    +0.039 A 
ATOM     20  C   UNL     1       1.272  -2.095   0.638  0.00  0.00    +0.043 A 
ATOM     21  C   UNL     1       1.316  -0.714   0.672  0.00  0.00    +0.046 A 
ATOM     22 CL   UNL     1       2.659   0.092   1.421  0.00  0.00    -0.083 Cl
ENDBRANCH   1  19
BRANCH  13  23
ATOM     23  C   UNL     1      -0.377  -3.946   2.338  0.00  0.00    +0.239 C 
ATOM     24  O   UNL     1       0.171  -3.964   3.420  0.00  0.00    -0.273 OA
ATOM     25  N   UNL     1      -1.397  -3.094   2.113  0.00  0.00    -0.311 N 
ATOM     26  H   UNL     1      -1.790  -3.031   1.229  0.00  0.00    +0.149 HD
BRANCH  25  27
ATOM     27  C   UNL     1      -1.912  -2.263   3.205  0.00  0.00    +0.073 C 
ATOM     28  C   UNL     1      -2.921  -3.067   4.051  0.00  0.00    +0.022 C 
ATOM     29  C   UNL     1      -4.005  -2.031   4.435  0.00  0.00    +0.002 C 
ATOM     30  C   UNL     1      -4.128  -1.172   3.151  0.00  0.00    +0.002 C 
ATOM     31  C   UNL     1      -2.679  -1.058   2.633  0.00  0.00    +0.022 C 
ENDBRANCH  25  27
ENDBRANCH  13  23
TORSDOF 3
