REMARK  Name = ZINC04324012
REMARK  5 active torsions:
REMARK  status: ('A' for Active; 'I' for Inactive)
REMARK    1  A    between atoms: C_3  and  C_19
REMARK    2  A    between atoms: C_6  and  C_7
REMARK    3  A    between atoms: N_8  and  O_9
REMARK    4  A    between atoms: O_9  and  C_10
REMARK    5  A    between atoms: C_10  and  C_12
REMARK                            x       y       z     vdW  Elec       q    Type
REMARK                         _______ _______ _______ _____ _____    ______ ____
ROOT
ATOM      1  C   UNL     1      -1.268  -0.765   0.011  0.00  0.00    +0.163 C 
ATOM      2  N   UNL     1      -1.247  -2.066   0.003  0.00  0.00    -0.059 NA
ATOM      3  N   UNL     1      -2.477  -0.092   0.026  0.00  0.00    -0.340 N 
ATOM      4  H   UNL     1      -2.492   0.878   0.032  0.00  0.00    +0.144 HD
ATOM      5  H   UNL     1      -3.309  -0.591   0.032  0.00  0.00    +0.144 HD
ENDROOT
BRANCH   1  11
ATOM      6  C   UNL     1      -0.017   1.391   0.010  0.00  0.00    +0.012 A 
ATOM      7  C   UNL     1       1.170   2.094   0.002  0.00  0.00    +0.013 A 
ATOM      8  C   UNL     1       2.378   1.419  -0.013  0.00  0.00    +0.055 A 
ATOM      9  C   UNL     1       2.403   0.035  -0.021  0.00  0.00    +0.013 A 
ATOM     10  C   UNL     1       1.222  -0.679  -0.014  0.00  0.00    +0.012 A 
ATOM     11  C   UNL     1       0.002  -0.004   0.002  0.00  0.00    +0.018 A 
BRANCH   8  12
ATOM     12  C   UNL     1       3.670   2.193  -0.023  0.00  0.00    +0.417 C 
ATOM     13  F   UNL     1       4.084   2.426   1.293  0.00  0.00    -0.166 F 
ATOM     14  F   UNL     1       4.651   1.456  -0.696  0.00  0.00    -0.166 F 
ATOM     15  F   UNL     1       3.477   3.416  -0.674  0.00  0.00    -0.166 F 
ENDBRANCH   8  12
ENDBRANCH   1  11
BRANCH   2  16
ATOM     16  O   UNL     1      -2.462  -2.793   0.011  0.00  0.00    -0.310 OA
BRANCH  16  17
ATOM     17  C   UNL     1      -2.300  -4.132   0.003  0.00  0.00    +0.374 C 
ATOM     18  O   UNL     1      -1.181  -4.609  -0.011  0.00  0.00    -0.242 OA
BRANCH  17  19
ATOM     19  C   UNL     1      -3.469  -5.010   0.010  0.00  0.00    +0.117 A 
ATOM     20  C   UNL     1      -3.522  -6.398   0.008  0.00  0.00    +0.062 A 
ATOM     21  C   UNL     1      -4.783  -6.947   0.017  0.00  0.00    +0.028 A 
ATOM     22  C   UNL     1      -5.860  -6.123   0.026  0.00  0.00    +0.047 A 
ATOM     23  S   UNL     1      -5.199  -4.579   0.030  0.00  0.00    -0.089 S 
ATOM     24 CL   UNL     1      -2.088  -7.377  -0.004  0.00  0.00    -0.082 Cl
ENDBRANCH  17  19
ENDBRANCH  16  17
ENDBRANCH   2  16
TORSDOF 5
