REMARK  Name = ZINC64143595
REMARK  6 active torsions:
REMARK  status: ('A' for Active; 'I' for Inactive)
REMARK    1  A    between atoms: C_4  and  C_7
REMARK    2  A    between atoms: C_7  and  C_8
REMARK    3  A    between atoms: C_8  and  C_9
REMARK    4  A    between atoms: N_18  and  C_19
REMARK    5  A    between atoms: C_25  and  C_27
REMARK    6  A    between atoms: C_27  and  C_28
REMARK                            x       y       z     vdW  Elec       q    Type
REMARK                         _______ _______ _______ _____ _____    ______ ____
ROOT
ATOM      1  C   UNL     1       5.507  -1.710   1.381  0.00  0.00    +0.160 C 
ATOM      2  N   UNL     1       5.346  -3.021   0.740  0.00  0.00    -0.323 N 
ATOM      3  C   UNL     1       5.678  -3.990   1.694  0.00  0.00    +0.067 A 
ATOM      4  C   UNL     1       5.696  -5.378   1.612  0.00  0.00    +0.028 A 
ATOM      5  C   UNL     1       6.074  -6.103   2.734  0.00  0.00    +0.019 A 
ATOM      6  C   UNL     1       6.418  -5.428   3.888  0.00  0.00    +0.084 A 
ATOM      7  N   UNL     1       6.391  -4.110   3.938  0.00  0.00    -0.348 N 
ATOM      8  C   UNL     1       6.037  -3.374   2.892  0.00  0.00    +0.122 A 
ATOM      9  N   UNL     1       5.950  -1.987   2.752  0.00  0.00    -0.294 N 
ATOM     10  H   UNL     1       5.061  -3.185  -0.173  0.00  0.00    +0.148 HD
ATOM     11  H   UNL     1       6.638  -3.666   4.764  0.00  0.00    +0.167 HD
ENDROOT
BRANCH   9  12
ATOM     12  C   UNL     1       6.246  -0.991   3.785  0.00  0.00    +0.080 C 
ATOM     13  C   UNL     1       7.704  -1.134   4.228  0.00  0.00    +0.041 C 
ATOM     14  C   UNL     1       8.020  -0.069   5.283  0.00  0.00    +0.109 C 
ATOM     15  N   UNL     1       7.043  -0.180   6.375  0.00  0.00    -0.301 N 
ATOM     16  C   UNL     1       5.611  -0.146   6.048  0.00  0.00    +0.109 C 
ATOM     17  C   UNL     1       5.322  -1.210   4.985  0.00  0.00    +0.041 C 
ATOM     18  C   UNL     1       7.453  -0.311   7.652  0.00  0.00    +0.220 C 
ATOM     19  O   UNL     1       8.638  -0.339   7.909  0.00  0.00    -0.275 OA
BRANCH  18  20
ATOM     20  C   UNL     1       6.439  -0.424   8.761  0.00  0.00    +0.129 C 
BRANCH  20  21
ATOM     21  C   UNL     1       7.152  -0.561  10.082  0.00  0.00    -0.033 C 
ATOM     22  C   UNL     1       7.450   0.432  10.951  0.00  0.00    -0.001 A 
ATOM     23  C   UNL     1       7.209   1.879  10.928  0.00  0.00    +0.010 A 
ATOM     24  C   UNL     1       7.635   2.632  11.968  0.00  0.00    +0.001 A 
ATOM     25  C   UNL     1       8.299   2.065  13.065  0.00  0.00    +0.002 A 
ATOM     26  C   UNL     1       8.556   0.743  13.158  0.00  0.00    +0.026 A 
ATOM     27  C   UNL     1       8.152  -0.142  12.121  0.00  0.00    +0.043 A 
ATOM     28  N   UNL     1       8.284  -1.439  11.980  0.00  0.00    -0.380 N 
ATOM     29  C   UNL     1       7.673  -1.836  10.706  0.00  0.00    +0.145 C 
ATOM     30  H   UNL     1       8.710  -2.037  12.614  0.00  0.00    +0.160 HD
ENDBRANCH  20  21
ENDBRANCH  18  20
ENDBRANCH   9  12
BRANCH   1  31
ATOM     31  C   UNL     1       4.171  -0.963   1.399  0.00  0.00    +0.047 C 
BRANCH  31  32
ATOM     32  C   UNL     1       3.711  -0.707  -0.038  0.00  0.00    +0.038 C 
BRANCH  32  36
ATOM     33  C   UNL     1      -0.017   1.378   0.010  0.00  0.00    +0.000 A 
ATOM     34  C   UNL     1       1.171   2.086   0.002  0.00  0.00    +0.000 A 
ATOM     35  C   UNL     1       2.377   1.411  -0.013  0.00  0.00    +0.003 A 
ATOM     36  C   UNL     1       2.396   0.029  -0.020  0.00  0.00    -0.047 A 
ATOM     37  C   UNL     1       1.208  -0.679  -0.012  0.00  0.00    +0.003 A 
ATOM     38  C   UNL     1       0.002  -0.004   0.002  0.00  0.00    +0.000 A 
ENDBRANCH  32  36
ENDBRANCH  31  32
ENDBRANCH   1  31
TORSDOF 6
