REMARK  Name = ZINC08861105
REMARK  7 active torsions:
REMARK  status: ('A' for Active; 'I' for Inactive)
REMARK    1  A    between atoms: C_1  and  C_2
REMARK    2  A    between atoms: N_8  and  N_9
REMARK    3  A    between atoms: N_9  and  C_10
REMARK    4  A    between atoms: C_13  and  S_16
REMARK    5  A    between atoms: S_16  and  N_19
REMARK    6  A    between atoms: C_22  and  C_25
REMARK    7  A    between atoms: C_29  and  N_31
REMARK                            x       y       z     vdW  Elec       q    Type
REMARK                         _______ _______ _______ _____ _____    ______ ____
ROOT
ATOM      1  C   UNL     1      -0.018   1.503   0.010  0.00  0.00    +0.070 C 
ATOM      2  C   UNL     1       0.002  -0.004   0.002  0.00  0.00    +0.089 C 
ATOM      3  N   UNL     1       0.008  -0.765  -1.049  0.00  0.00    -0.173 NA
ATOM      4  N   UNL     1       0.029  -2.115  -0.701  0.00  0.00    -0.130 N 
ATOM      5  C   UNL     1       0.036  -2.248   0.641  0.00  0.00    +0.294 C 
ATOM      6  O   UNL     1       0.054  -3.289   1.274  0.00  0.00    -0.266 OA
ATOM      7  C   UNL     1       0.025  -0.879   1.184  0.00  0.00    +0.168 C 
ATOM      8  N   UNL     1       0.032  -0.517   2.454  0.00  0.00    -0.175 NA
ATOM      9  C   UNL     1       0.039  -3.171  -1.607  0.00  0.00    +0.189 A 
ATOM     10  N   UNL     1       0.038  -3.140  -2.926  0.00  0.00    -0.223 NA
ATOM     11  C   UNL     1       0.050  -4.255  -3.641  0.00  0.00    +0.080 A 
ATOM     12  C   UNL     1       0.064  -5.462  -3.000  0.00  0.00    +0.077 A 
ATOM     13  S   UNL     1       0.065  -4.931  -1.292  0.00  0.00    -0.058 S 
ENDROOT
BRANCH  11  14
ATOM     14  C   UNL     1       0.049  -4.194  -5.123  0.00  0.00    +0.003 A 
ATOM     15  C   UNL     1       0.055  -5.370  -5.871  0.00  0.00    +0.010 A 
ATOM     16  C   UNL     1       0.053  -5.308  -7.250  0.00  0.00    +0.003 A 
ATOM     17  C   UNL     1       0.045  -4.081  -7.889  0.00  0.00    +0.033 A 
ATOM     18  C   UNL     1       0.039  -2.911  -7.152  0.00  0.00    +0.127 A 
ATOM     19  C   UNL     1       0.035  -2.961  -5.772  0.00  0.00    +0.042 A 
BRANCH  18  20
ATOM     20  N   UNL     1       0.031  -1.602  -7.843  0.00  0.00    +0.056 N 
ATOM     21  O   UNL     1       0.029  -1.556  -9.051  0.00  0.00    -0.126 OA
ATOM     22  O   UNL     1       0.025  -0.578  -7.200  0.00  0.00    -0.126 OA
ENDBRANCH  18  20
ENDBRANCH  11  14
BRANCH   8  23
ATOM     23  N   UNL     1       0.053  -1.415   3.381  0.00  0.00    -0.237 N 
ATOM     24  H   UNL     1       0.064  -2.355   3.145  0.00  0.00    +0.174 HD
BRANCH  23  25
ATOM     25  C   UNL     1       0.060  -1.032   4.722  0.00  0.00    +0.048 A 
ATOM     26  C   UNL     1       0.039   0.316   5.063  0.00  0.00    +0.026 A 
ATOM     27  C   UNL     1       0.045   0.690   6.391  0.00  0.00    +0.030 A 
ATOM     28  C   UNL     1       0.073  -0.273   7.383  0.00  0.00    +0.105 A 
ATOM     29  C   UNL     1       0.095  -1.615   7.049  0.00  0.00    +0.030 A 
ATOM     30  C   UNL     1       0.083  -1.998   5.722  0.00  0.00    +0.026 A 
BRANCH  28  31
ATOM     31  S   UNL     1       0.082   0.210   9.078  0.00  0.00    +0.056 S 
ATOM     32  O   UNL     1       0.660  -0.866   9.804  0.00  0.00    -0.153 OA
ATOM     33  O   UNL     1       0.610   1.529   9.121  0.00  0.00    -0.153 OA
BRANCH  31  34
ATOM     34  N   UNL     1      -1.497   0.316   9.565  0.00  0.00    -0.204 NA
ATOM     35  H   UNL     1      -1.732   0.137  10.489  0.00  0.00    +0.144 HD
ATOM     36  H   UNL     1      -2.186   0.556   8.927  0.00  0.00    +0.144 HD
ENDBRANCH  31  34
ENDBRANCH  28  31
ENDBRANCH  23  25
ENDBRANCH   8  23
TORSDOF 6
