REMARK  Name = ZINC38935257
REMARK  10 active torsions:
REMARK  status: ('A' for Active; 'I' for Inactive)
REMARK    1  A    between atoms: C_1  and  C_2
REMARK    2  A    between atoms: C_5  and  S_8
REMARK    3  A    between atoms: S_8  and  C_11
REMARK    4  A    between atoms: C_11  and  C_13
REMARK    5  A    between atoms: C_11  and  C_29
REMARK    6  A    between atoms: C_13  and  N_14
REMARK    7  A    between atoms: C_15  and  C_17
REMARK    8  A    between atoms: N_19  and  C_20
REMARK    9  A    between atoms: C_25  and  O_26
REMARK   10  A    between atoms: O_26  and  C_27
REMARK                            x       y       z     vdW  Elec       q    Type
REMARK                         _______ _______ _______ _____ _____    ______ ____
ROOT
ATOM      1  C   UNL     1       1.994  -6.493  -0.064  0.00  0.00    +0.136 C 
ENDROOT
BRANCH   1   2
ATOM      2  N   UNL     1       1.336  -7.038  -1.254  0.00  0.00    -0.305 N 
ATOM      3  C   UNL     1       1.329  -8.368  -1.470  0.00  0.00    +0.299 C 
ATOM      4  O   UNL     1       1.869  -9.114  -0.680  0.00  0.00    -0.265 OA
ATOM      5  H   UNL     1       0.904  -6.442  -1.885  0.00  0.00    +0.149 HD
BRANCH   3   6
ATOM      6  C   UNL     1       0.657  -8.924  -2.683  0.00  0.00    +0.303 C 
ATOM      7  O   UNL     1       0.117  -8.178  -3.473  0.00  0.00    -0.265 OA
ATOM      8  N   UNL     1       0.651 -10.254  -2.899  0.00  0.00    -0.275 N 
ATOM      9  H   UNL     1       1.137 -10.845  -2.303  0.00  0.00    +0.155 HD
BRANCH   8  10
ATOM     10  C   UNL     1      -0.057 -10.783  -3.984  0.00  0.00    +0.077 A 
ATOM     11  C   UNL     1      -0.137 -10.075  -5.175  0.00  0.00    +0.047 A 
ATOM     12  C   UNL     1      -0.837 -10.599  -6.245  0.00  0.00    +0.043 A 
ATOM     13  C   UNL     1      -1.460 -11.830  -6.131  0.00  0.00    +0.024 A 
ATOM     14  C   UNL     1      -1.385 -12.541  -4.948  0.00  0.00    +0.049 A 
ATOM     15  C   UNL     1      -0.679 -12.025  -3.873  0.00  0.00    +0.141 A 
ATOM     16 CL   UNL     1      -0.936  -9.712  -7.734  0.00  0.00    -0.083 Cl
BRANCH  15  17
ATOM     17  O   UNL     1      -0.600 -12.726  -2.711  0.00  0.00    -0.493 OA
ATOM     18  C   UNL     1      -1.262 -13.992  -2.670  0.00  0.00    +0.277 C 
ENDBRANCH  15  17
ENDBRANCH   8  10
ENDBRANCH   3   6
ENDBRANCH   1   2
BRANCH   1  19
ATOM     19  C   UNL     1       1.857  -4.969  -0.059  0.00  0.00    +0.189 C 
BRANCH  19  20
ATOM     20  C   UNL     1       2.535  -4.408   1.165  0.00  0.00    +0.016 A 
ATOM     21  C   UNL     1       3.562  -3.527   1.243  0.00  0.00    +0.013 A 
ATOM     22  C   UNL     1       4.027  -3.149   2.489  0.00  0.00    +0.008 A 
ATOM     23  C   UNL     1       3.442  -3.670   3.595  0.00  0.00    +0.045 A 
ATOM     24  S   UNL     1       2.188  -4.725   2.887  0.00  0.00    -0.100 S 
ENDBRANCH  19  20
BRANCH  19  25
ATOM     25  S   UNL     1       0.100  -4.520  -0.036  0.00  0.00    +0.006 S 
ATOM     26  O   UNL     1      -0.484  -4.892   1.205  0.00  0.00    -0.169 OA
ATOM     27  O   UNL     1      -0.515  -4.886  -1.264  0.00  0.00    -0.169 OA
BRANCH  25  32
ATOM     28  C   UNL     1       0.037   1.513  -0.019  0.00  0.00    +0.044 C 
ATOM     29  C   UNL     1       0.053   0.006  -0.024  0.00  0.00    -0.050 A 
ATOM     30  C   UNL     1       0.046  -0.682  -1.222  0.00  0.00    +0.005 A 
ATOM     31  C   UNL     1       0.061  -2.064  -1.226  0.00  0.00    +0.027 A 
ATOM     32  C   UNL     1       0.082  -2.758  -0.031  0.00  0.00    +0.089 A 
ATOM     33  C   UNL     1       0.090  -2.070   1.168  0.00  0.00    +0.027 A 
ATOM     34  C   UNL     1       0.080  -0.688   1.172  0.00  0.00    +0.005 A 
ENDBRANCH  25  32
ENDBRANCH  19  25
ENDBRANCH   1  19
TORSDOF 8
