REMARK  Name = ZINC11238054
REMARK  14 active torsions:
REMARK  status: ('A' for Active; 'I' for Inactive)
REMARK    1  A    between atoms: C_1  and  C_2
REMARK    2  A    between atoms: C_2  and  O_3
REMARK    3  A    between atoms: O_3  and  C_4
REMARK    4  A    between atoms: C_7  and  O_10
REMARK    5  A    between atoms: O_10  and  C_11
REMARK    6  A    between atoms: C_11  and  C_13
REMARK    7  A    between atoms: C_11  and  C_14
REMARK    8  A    between atoms: N_16  and  N_17
REMARK    9  A    between atoms: C_18  and  C_20
REMARK   10  A    between atoms: C_20  and  C_22
REMARK   11  A    between atoms: C_20  and  N_25
REMARK   12  A    between atoms: C_22  and  C_23
REMARK   13  A    between atoms: C_22  and  C_24
REMARK   14  A    between atoms: C_26  and  C_28
REMARK                            x       y       z     vdW  Elec       q    Type
REMARK                         _______ _______ _______ _____ _____    ______ ____
ROOT
ATOM      1  N   UNL     1       1.641  -0.289   3.856  0.00  0.00    -0.233 N 
ATOM      2  C   UNL     1       1.235  -1.470   4.362  0.00  0.00    +0.250 C 
ATOM      3  O   UNL     1       0.204  -1.975   3.971  0.00  0.00    -0.272 OA
ATOM      4  H   UNL     1       2.495   0.085   4.122  0.00  0.00    +0.173 HD
ENDROOT
BRANCH   1   7
ATOM      5  C   UNL     1       1.233   1.582   2.441  0.00  0.00    +0.270 C 
ATOM      6  O   UNL     1       2.302   2.049   2.773  0.00  0.00    -0.270 OA
ATOM      7  N   UNL     1       0.828   0.400   2.947  0.00  0.00    -0.231 N 
ATOM      8  H   UNL     1      -0.027   0.027   2.681  0.00  0.00    +0.173 HD
BRANCH   5   9
ATOM      9  C   UNL     1       0.359   2.322   1.462  0.00  0.00    +0.257 C 
ATOM     10  C   UNL     1       0.227   1.505   0.176  0.00  0.00    +0.062 C 
BRANCH   9  11
ATOM     11  O   UNL     1       0.946   3.590   1.163  0.00  0.00    -0.480 OA
BRANCH  11  15
ATOM     12  C   UNL     1      -1.582   6.552  -0.207  0.00  0.00    +0.121 A 
ATOM     13  C   UNL     1      -2.093   5.310   0.142  0.00  0.00    +0.049 A 
ATOM     14  C   UNL     1      -1.247   4.319   0.601  0.00  0.00    +0.049 A 
ATOM     15  C   UNL     1       0.114   4.566   0.712  0.00  0.00    +0.122 A 
ATOM     16  C   UNL     1       0.624   5.809   0.367  0.00  0.00    +0.049 A 
ATOM     17  C   UNL     1      -0.222   6.798  -0.095  0.00  0.00    +0.049 A 
BRANCH  12  18
ATOM     18  O   UNL     1      -2.415   7.527  -0.659  0.00  0.00    -0.492 OA
BRANCH  18  20
ATOM     19  C   UNL     1      -2.906   9.744  -1.485  0.00  0.00    +0.048 C 
ATOM     20  C   UNL     1      -1.821   8.781  -1.001  0.00  0.00    +0.225 C 
ENDBRANCH  18  20
ENDBRANCH  12  18
ENDBRANCH  11  15
ENDBRANCH   9  11
ENDBRANCH   5   9
ENDBRANCH   1   7
BRANCH   2  21
ATOM     21  C   UNL     1       2.062  -2.163   5.414  0.00  0.00    +0.163 C 
BRANCH  21  22
ATOM     22  N   UNL     1       1.835  -3.609   5.340  0.00  0.00    -0.303 N 
ATOM     23  C   UNL     1       2.777  -4.463   5.787  0.00  0.00    +0.217 C 
ATOM     24  O   UNL     1       3.812  -4.034   6.251  0.00  0.00    -0.275 OA
ATOM     25  H   UNL     1       1.007  -3.951   4.969  0.00  0.00    +0.149 HD
BRANCH  23  26
ATOM     26  C   UNL     1       2.543  -5.949   5.711  0.00  0.00    +0.075 C 
ATOM     27  C   UNL     1       1.299  -6.313   6.523  0.00  0.00    +0.013 C 
ATOM     28  C   UNL     1       1.062  -7.822   6.446  0.00  0.00    +0.001 C 
ATOM     29  C   UNL     1       2.276  -8.559   7.015  0.00  0.00    +0.000 C 
ATOM     30  C   UNL     1       3.521  -8.196   6.202  0.00  0.00    +0.001 C 
ATOM     31  C   UNL     1       3.758  -6.686   6.280  0.00  0.00    +0.013 C 
ENDBRANCH  23  26
ENDBRANCH  21  22
BRANCH  21  32
ATOM     32  C   UNL     1       1.657  -1.654   6.799  0.00  0.00    +0.012 C 
ATOM     33  C   UNL     1       2.448  -2.406   7.871  0.00  0.00    +0.009 C 
ATOM     34  C   UNL     1       1.957  -0.157   6.900  0.00  0.00    +0.009 C 
ENDBRANCH  21  32
ENDBRANCH   2  21
TORSDOF 10
