REMARK  Name = ZINC44388712
REMARK  5 active torsions:
REMARK  status: ('A' for Active; 'I' for Inactive)
REMARK    1  A    between atoms: C_1  and  N_2
REMARK    2  A    between atoms: C_8  and  C_10
REMARK    3  A    between atoms: C_10  and  C_11
REMARK    4  A    between atoms: C_10  and  C_17
REMARK    5  A    between atoms: C_23  and  C_29
REMARK                            x       y       z     vdW  Elec       q    Type
REMARK                         _______ _______ _______ _____ _____    ______ ____
ROOT
ATOM      1  C   UNL     1      -0.225   1.860   0.719  0.00  0.00    +0.174 C 
ATOM      2  N   UNL     1      -0.176   0.407   0.538  0.00  0.00    -0.251 N 
ATOM      3  C   UNL     1      -0.180  -0.245  -0.640  0.00  0.00    +0.129 A 
ATOM      4  C   UNL     1      -0.110  -1.587  -0.372  0.00  0.00    +0.042 A 
ATOM      5  C   UNL     1      -0.076  -1.747   1.010  0.00  0.00    +0.153 A 
ATOM      6  N   UNL     1      -0.109  -0.552   1.561  0.00  0.00    -0.154 NA
ATOM      7  N   UNL     1      -0.011  -2.968   1.695  0.00  0.00    -0.268 N 
ATOM      8  C   UNL     1       0.016  -2.984   3.043  0.00  0.00    +0.230 C 
ATOM      9  O   UNL     1      -0.015  -1.941   3.662  0.00  0.00    -0.274 OA
ATOM     10  C   UNL     1      -0.072  -2.626  -1.463  0.00  0.00    +0.064 C 
ATOM     11  C   UNL     1      -0.814  -2.070  -2.683  0.00  0.00    +0.109 C 
ATOM     12  C   UNL     1      -0.432  -0.641  -2.946  0.00  0.00    +0.219 C 
ATOM     13  O   UNL     1      -0.305  -0.268  -4.094  0.00  0.00    -0.275 OA
ATOM     14  N   UNL     1      -0.227   0.242  -1.946  0.00  0.00    -0.270 N 
ATOM     15  H   UNL     1       0.013  -3.801   1.200  0.00  0.00    +0.156 HD
ATOM     16  H   UNL     1      -0.114   1.187  -2.130  0.00  0.00    +0.156 HD
ENDROOT
BRANCH  10  17
ATOM     17  C   UNL     1      -0.749  -3.886  -0.988  0.00  0.00    -0.039 A 
ATOM     18  C   UNL     1      -2.078  -3.857  -0.611  0.00  0.00    +0.004 A 
ATOM     19  C   UNL     1      -2.698  -5.013  -0.175  0.00  0.00    +0.000 A 
ATOM     20  C   UNL     1      -1.989  -6.198  -0.116  0.00  0.00    +0.000 A 
ATOM     21  C   UNL     1      -0.659  -6.227  -0.494  0.00  0.00    +0.000 A 
ATOM     22  C   UNL     1      -0.041  -5.072  -0.934  0.00  0.00    +0.004 A 
ENDBRANCH  10  17
BRANCH   8  23
ATOM     23  C   UNL     1       0.085  -4.296   3.780  0.00  0.00    +0.135 C 
BRANCH  23  24
ATOM     24  C   UNL     1       0.104  -4.039   5.264  0.00  0.00    -0.031 A 
ATOM     25  C   UNL     1       1.136  -4.536   6.039  0.00  0.00    +0.005 A 
ATOM     26  C   UNL     1       1.153  -4.299   7.401  0.00  0.00    +0.000 A 
ATOM     27  C   UNL     1       0.140  -3.565   7.988  0.00  0.00    +0.000 A 
ATOM     28  C   UNL     1      -0.891  -3.068   7.213  0.00  0.00    +0.000 A 
ATOM     29  C   UNL     1      -0.906  -3.300   5.851  0.00  0.00    +0.005 A 
ENDBRANCH  23  24
BRANCH  23  30
ATOM     30  C   UNL     1      -1.119  -5.133   3.430  0.00  0.00    -0.031 A 
ATOM     31  C   UNL     1      -2.384  -4.577   3.478  0.00  0.00    +0.005 A 
ATOM     32  C   UNL     1      -3.488  -5.344   3.158  0.00  0.00    +0.000 A 
ATOM     33  C   UNL     1      -3.328  -6.667   2.789  0.00  0.00    +0.000 A 
ATOM     34  C   UNL     1      -2.063  -7.222   2.741  0.00  0.00    +0.000 A 
ATOM     35  C   UNL     1      -0.958  -6.454   3.057  0.00  0.00    +0.005 A 
ENDBRANCH  23  30
ENDBRANCH   8  23
TORSDOF 4
