REMARK  Name = ZINC53126494
REMARK  7 active torsions:
REMARK  status: ('A' for Active; 'I' for Inactive)
REMARK    1  A    between atoms: C_1  and  C_2
REMARK    2  A    between atoms: C_7  and  C_8
REMARK    3  A    between atoms: C_8  and  C_9
REMARK    4  A    between atoms: C_9  and  C_11
REMARK    5  A    between atoms: C_9  and  N_12
REMARK    6  A    between atoms: C_13  and  C_15
REMARK    7  A    between atoms: C_15  and  N_16
REMARK                            x       y       z     vdW  Elec       q    Type
REMARK                         _______ _______ _______ _____ _____    ______ ____
ROOT
ATOM      1  C   UNL     1      -4.260  -2.141   3.294  0.00  0.00    +0.213 C 
ENDROOT
BRANCH   1   2
ATOM      2  N   UNL     1      -5.691  -1.905   3.083  0.00  0.00    -0.215 N 
ATOM      3  C   UNL     1      -6.538  -1.487   4.043  0.00  0.00    +0.247 C 
ATOM      4  O   UNL     1      -6.269  -1.247   5.201  0.00  0.00    -0.273 OA
ATOM      5  C   UNL     1      -7.899  -1.378   3.377  0.00  0.00    +0.113 C 
ATOM      6  C   UNL     1      -8.296   0.116   3.356  0.00  0.00    +0.035 C 
ATOM      7  C   UNL     1      -9.286   0.339   2.247  0.00  0.00    +0.003 C 
ATOM      8  C   UNL     1     -10.748   0.253   2.728  0.00  0.00    +0.000 C 
ATOM      9  C   UNL     1     -10.984  -0.906   3.716  0.00  0.00    +0.000 C 
ATOM     10  C   UNL     1     -10.267  -2.163   3.303  0.00  0.00    +0.003 C 
ATOM     11  C   UNL     1      -8.907  -2.207   4.025  0.00  0.00    +0.035 C 
ATOM     12  N   UNL     1      -7.628  -1.793   1.985  0.00  0.00    -0.285 N 
ATOM     13  C   UNL     1      -6.315  -2.072   1.913  0.00  0.00    +0.310 C 
ATOM     14  O   UNL     1      -5.758  -2.439   0.897  0.00  0.00    -0.252 OA
ATOM     15  H   UNL     1      -8.272  -1.850   1.263  0.00  0.00    +0.151 HD
ENDBRANCH   1   2
BRANCH   1  17
ATOM     16  N   UNL     1      -2.155  -0.849   3.159  0.00  0.00    -0.311 N 
ATOM     17  C   UNL     1      -3.497  -0.869   3.027  0.00  0.00    +0.231 C 
ATOM     18  O   UNL     1      -4.089   0.135   2.693  0.00  0.00    -0.274 OA
ATOM     19  H   UNL     1      -1.682  -1.652   3.425  0.00  0.00    +0.149 HD
BRANCH  16  20
ATOM     20  C   UNL     1      -1.413   0.387   2.899  0.00  0.00    +0.074 C 
ATOM     21  C   UNL     1      -1.403   1.252   4.161  0.00  0.00    +0.028 C 
BRANCH  20  22
ATOM     22  C   UNL     1       0.025   0.045   2.504  0.00  0.00    +0.057 C 
BRANCH  22  29
ATOM     23  C   UNL     1      -0.018   1.503   0.010  0.00  0.00    +0.044 C 
ATOM     24  C   UNL     1       0.002  -0.004   0.002  0.00  0.00    -0.047 A 
ATOM     25  C   UNL     1       0.006  -0.689  -1.199  0.00  0.00    +0.003 A 
ATOM     26  C   UNL     1       0.025  -2.071  -1.207  0.00  0.00    +0.000 A 
ATOM     27  C   UNL     1       0.040  -2.768  -0.013  0.00  0.00    +0.000 A 
ATOM     28  C   UNL     1       0.037  -2.084   1.188  0.00  0.00    +0.004 A 
ATOM     29  C   UNL     1       0.023  -0.702   1.195  0.00  0.00    -0.043 A 
ENDBRANCH  22  29
ENDBRANCH  20  22
ENDBRANCH  16  20
ENDBRANCH   1  17
TORSDOF 5
