REMARK  Name = ZINC08670972
REMARK  11 active torsions:
REMARK  status: ('A' for Active; 'I' for Inactive)
REMARK    1  A    between atoms: C_1  and  C_2
REMARK    2  A    between atoms: C_6  and  C_14
REMARK    3  A    between atoms: C_7  and  O_13
REMARK    4  A    between atoms: C_11  and  C_12
REMARK    5  A    between atoms: C_14  and  C_16
REMARK    6  A    between atoms: C_14  and  N_69
REMARK    7  A    between atoms: N_20  and  C_21
REMARK    8  A    between atoms: C_26  and  C_27
REMARK    9  A    between atoms: C_26  and  N_69
REMARK   10  A    between atoms: C_33  and  C_34
REMARK   11  A    between atoms: C_33  and  N_69
REMARK                            x       y       z     vdW  Elec       q    Type
REMARK                         _______ _______ _______ _____ _____    ______ ____
ROOT
ATOM      1  C   UNL     1       3.608   1.664  -0.303  0.00  0.00    +0.040 C 
ENDROOT
BRANCH   1   7
ATOM      2  C   UNL     1       1.676  -5.389   0.949  0.00  0.00    +0.044 C 
ATOM      3  C   UNL     1       1.324  -3.967   0.593  0.00  0.00    -0.047 A 
ATOM      4  C   UNL     1       2.307  -3.027   0.527  0.00  0.00    +0.013 A 
ATOM      5  C   UNL     1       1.980  -1.703   0.196  0.00  0.00    +0.001 A 
ATOM      6  C   UNL     1       2.970  -0.703   0.118  0.00  0.00    +0.017 A 
ATOM      7  C   UNL     1       2.583   0.563  -0.208  0.00  0.00    +0.008 A 
ATOM      8  C   UNL     1       1.233   0.838  -0.457  0.00  0.00    +0.215 A 
ATOM      9  N   UNL     1       0.313  -0.100  -0.383  0.00  0.00    -0.213 NA
ATOM     10  C   UNL     1       0.631  -1.360  -0.066  0.00  0.00    +0.075 A 
ATOM     11  C   UNL     1      -0.355  -2.358   0.011  0.00  0.00    +0.032 A 
ATOM     12  C   UNL     1      -0.003  -3.632   0.336  0.00  0.00    -0.045 A 
ATOM     13  C   UNL     1      -1.066  -4.697   0.417  0.00  0.00    +0.044 C 
BRANCH   8  14
ATOM     14  O   UNL     1       0.864   2.102  -0.782  0.00  0.00    -0.492 OA
ATOM     15  H   UNL     1       0.638   2.653  -0.021  0.00  0.00    +0.294 HD
ENDBRANCH   8  14
ENDBRANCH   1   7
BRANCH   1  16
ATOM     16  C   UNL     1       3.961   1.900  -1.749  0.00  0.00    +0.143 A 
ATOM     17  N   UNL     1       4.843   1.238  -2.457  0.00  0.00    -0.115 NA
ATOM     18  N   UNL     1       4.853   1.734  -3.645  0.00  0.00    -0.023 NA
ATOM     19  N   UNL     1       4.006   2.701  -3.712  0.00  0.00    -0.044 NA
ATOM     20  N   UNL     1       3.435   2.834  -2.562  0.00  0.00    -0.227 N 
BRANCH  20  21
ATOM     21  C   UNL     1       2.409   3.818  -2.209  0.00  0.00    +0.111 C 
ATOM     22  C   UNL     1       1.148   3.599  -3.071  0.00  0.00    +0.027 C 
ATOM     23  C   UNL     1       0.631   5.031  -3.357  0.00  0.00    +0.002 C 
ATOM     24  C   UNL     1       1.940   5.835  -3.557  0.00  0.00    +0.002 C 
ATOM     25  C   UNL     1       2.912   5.239  -2.518  0.00  0.00    +0.027 C 
ENDBRANCH  20  21
ENDBRANCH   1  16
BRANCH   1  26
ATOM     26  N   UNL     1       4.825   1.251   0.427  0.00  0.00    +0.397 N 
ATOM     27  H   UNL     1       5.187   0.386   0.009  0.00  0.00    -0.079 HD
BRANCH  26  28
ATOM     28  C   UNL     1       5.857   2.304   0.324  0.00  0.00    -0.039 C 
BRANCH  28  29
ATOM     29  C   UNL     1       5.364   3.590   0.933  0.00  0.00    -0.046 A 
ATOM     30  C   UNL     1       4.671   4.512   0.163  0.00  0.00    +0.005 A 
ATOM     31  C   UNL     1       4.232   5.680   0.767  0.00  0.00    +0.020 A 
ATOM     32  C   UNL     1       4.506   5.890   2.106  0.00  0.00    +0.111 A 
ATOM     33  N   UNL     1       5.172   4.993   2.807  0.00  0.00    -0.263 NA
ATOM     34  C   UNL     1       5.601   3.869   2.266  0.00  0.00    +0.112 A 
ENDBRANCH  28  29
ENDBRANCH  26  28
BRANCH  26  35
ATOM     35  C   UNL     1       4.501   0.999   1.847  0.00  0.00    -0.001 C 
BRANCH  35  36
ATOM     36  C   UNL     1       5.604   0.172   2.454  0.00  0.00    +0.089 A 
ATOM     37  C   UNL     1       6.633   0.644   3.181  0.00  0.00    +0.042 A 
ATOM     38  C   UNL     1       7.421  -0.471   3.548  0.00  0.00    +0.041 A 
ATOM     39  C   UNL     1       6.828  -1.558   3.023  0.00  0.00    +0.195 A 
ATOM     40  O   UNL     1       5.724  -1.163   2.367  0.00  0.00    -0.470 OA
ENDBRANCH  35  36
ENDBRANCH  26  35
ENDBRANCH   1  26
TORSDOF 9
