REMARK  Name = ZINC22022876
REMARK  7 active torsions:
REMARK  status: ('A' for Active; 'I' for Inactive)
REMARK    1  A    between atoms: C_1  and  S_2
REMARK    2  A    between atoms: S_2  and  C_3
REMARK    3  A    between atoms: C_7  and  C_9
REMARK    4  A    between atoms: C_11  and  C_29
REMARK    5  A    between atoms: C_24  and  C_25
REMARK    6  A    between atoms: C_24  and  C_27
REMARK    7  A    between atoms: C_29  and  C_31
REMARK                            x       y       z     vdW  Elec       q    Type
REMARK                         _______ _______ _______ _____ _____    ______ ____
ROOT
ATOM      1  C   UNL     1      -2.285   0.994  -0.058  0.00  0.00    +0.081 C 
ATOM      2  C   UNL     1      -2.660   0.096  -1.268  0.00  0.00    +0.134 C 
ATOM      3  N   UNL     1      -3.700  -0.788  -0.733  0.00  0.00    -0.383 NA
ATOM      4  C   UNL     1      -4.811  -1.305  -1.376  0.00  0.00    +0.054 C 
ATOM      5  C   UNL     1      -5.939  -1.390  -0.641  0.00  0.00    +0.022 C 
ATOM      6  C   UNL     1      -5.926  -0.916   0.758  0.00  0.00    -0.019 A 
ATOM      7  C   UNL     1      -7.126  -0.644   1.418  0.00  0.00    +0.008 A 
ATOM      8  C   UNL     1      -7.106  -0.207   2.726  0.00  0.00    +0.001 A 
ATOM      9  C   UNL     1      -5.903  -0.037   3.388  0.00  0.00    +0.000 A 
ATOM     10  C   UNL     1      -4.707  -0.302   2.741  0.00  0.00    +0.006 A 
ATOM     11  C   UNL     1      -4.714  -0.735   1.435  0.00  0.00    -0.019 A 
ATOM     12  C   UNL     1      -3.427  -1.014   0.702  0.00  0.00    +0.122 C 
ATOM     13  C   UNL     1      -2.329  -0.020   1.116  0.00  0.00    +0.172 C 
ATOM     14  H   UNL     1      -4.323  -1.222  -1.528  0.00  0.00    +0.127 HD
ENDROOT
BRANCH   1  19
ATOM     15  C   UNL     1       0.613   3.421  -0.046  0.00  0.00    +0.008 A 
ATOM     16  C   UNL     1       1.641   2.621  -0.532  0.00  0.00    +0.015 A 
ATOM     17  C   UNL     1       1.394   1.302  -0.857  0.00  0.00    +0.001 A 
ATOM     18  C   UNL     1       0.124   0.776  -0.699  0.00  0.00    +0.004 A 
ATOM     19  C   UNL     1      -0.902   1.570  -0.222  0.00  0.00    -0.039 A 
ATOM     20  C   UNL     1      -0.661   2.889   0.111  0.00  0.00    +0.018 A 
BRANCH  15  22
ATOM     21  C   UNL     1       2.688   5.328   0.004  0.00  0.00    +0.090 C 
ATOM     22  S   UNL     1       0.925   5.104   0.370  0.00  0.00    -0.129 S 
ENDBRANCH  15  22
ENDBRANCH   1  19
BRANCH  13  23
ATOM     23  C   UNL     1      -1.035  -0.707   1.253  0.00  0.00    +0.087 C 
ATOM     24  N   UNL     1      -0.036  -1.238   1.359  0.00  0.00    -0.195 NA
ENDBRANCH  13  23
BRANCH  13  25
ATOM     25  C   UNL     1      -2.691   0.658   2.371  0.00  0.00    +0.087 C 
ATOM     26  N   UNL     1      -2.970   1.181   3.340  0.00  0.00    -0.195 NA
ENDBRANCH  13  25
BRANCH   2  27
ATOM     27  C   UNL     1      -3.201   0.930  -2.401  0.00  0.00    +0.159 C 
ATOM     28  O   UNL     1      -4.074   1.738  -2.192  0.00  0.00    -0.295 OA
BRANCH  27  29
ATOM     29  C   UNL     1      -2.652   0.757  -3.793  0.00  0.00    +0.032 C 
ATOM     30  C   UNL     1      -1.137   0.963  -3.774  0.00  0.00    +0.018 C 
ATOM     31  C   UNL     1      -0.580   0.786  -5.188  0.00  0.00    -0.010 C 
ATOM     32  C   UNL     1      -1.222   1.815  -6.121  0.00  0.00    +0.007 C 
ATOM     33  C   UNL     1      -2.738   1.609  -6.140  0.00  0.00    -0.010 C 
ATOM     34  C   UNL     1      -3.295   1.786  -4.726  0.00  0.00    +0.018 C 
ATOM     35  C   UNL     1      -3.054   0.199  -6.641  0.00  0.00    +0.007 C 
ATOM     36  C   UNL     1      -2.412  -0.830  -5.708  0.00  0.00    -0.010 C 
ATOM     37  C   UNL     1      -0.896  -0.624  -5.689  0.00  0.00    +0.007 C 
ATOM     38  C   UNL     1      -2.969  -0.654  -4.294  0.00  0.00    +0.018 C 
ENDBRANCH  27  29
ENDBRANCH   2  27
TORSDOF 6
