REMARK  Name = ZINC43766780
REMARK  9 active torsions:
REMARK  status: ('A' for Active; 'I' for Inactive)
REMARK    1  A    between atoms: C_1  and  C_2
REMARK    2  A    between atoms: C_2  and  N_3
REMARK    3  A    between atoms: C_10  and  C_22
REMARK    4  A    between atoms: C_12  and  C_18
REMARK    5  A    between atoms: C_12  and  C_20
REMARK    6  A    between atoms: C_13  and  N_17
REMARK    7  A    between atoms: C_14  and  C_15
REMARK    8  A    between atoms: C_24  and  O_29
REMARK    9  A    between atoms: O_29  and  C_30
REMARK                            x       y       z     vdW  Elec       q    Type
REMARK                         _______ _______ _______ _____ _____    ______ ____
ROOT
ATOM      1  N   UNL     1      -0.685  -0.936  -0.946  0.00  0.00    -0.298 NA
ATOM      2  C   UNL     1       0.546  -0.449  -0.300  0.00  0.00    +0.112 C 
ATOM      3  C   UNL     1       1.649  -0.493  -1.329  0.00  0.00    -0.007 C 
ATOM      4  C   UNL     1       1.651  -1.436  -2.253  0.00  0.00    -0.026 C 
ATOM      5  C   UNL     1       0.621  -2.528  -2.308  0.00  0.00    +0.044 C 
ATOM      6  C   UNL     1      -0.527  -2.337  -1.344  0.00  0.00    +0.093 C 
ATOM      7  C   UNL     1       0.144  -2.658  -3.755  0.00  0.00    +0.070 C 
ATOM      8  C   UNL     1       1.325  -3.083  -4.630  0.00  0.00    +0.188 C 
ATOM      9  C   UNL     1       2.524  -2.212  -4.408  0.00  0.00    +0.054 C 
ATOM     10  C   UNL     1       2.701  -1.445  -3.302  0.00  0.00    +0.074 C 
ENDROOT
BRANCH   7  11
ATOM     11  C   UNL     1      -0.389  -1.331  -4.232  0.00  0.00    -0.002 A 
ATOM     12  C   UNL     1       0.484  -0.352  -4.667  0.00  0.00    +0.052 A 
ATOM     13  C   UNL     1      -0.006   0.868  -5.106  0.00  0.00    +0.121 A 
ATOM     14  C   UNL     1      -1.373   1.104  -5.109  0.00  0.00    +0.048 A 
ATOM     15  C   UNL     1      -2.244   0.124  -4.674  0.00  0.00    +0.042 A 
ATOM     16  C   UNL     1      -1.753  -1.096  -4.241  0.00  0.00    +0.127 A 
ATOM     17  F   UNL     1      -2.606  -2.057  -3.821  0.00  0.00    -0.205 F 
BRANCH  13  18
ATOM     18  O   UNL     1       0.851   1.832  -5.533  0.00  0.00    -0.495 OA
ATOM     19  C   UNL     1       0.276   3.065  -5.971  0.00  0.00    +0.277 C 
ENDBRANCH  13  18
ENDBRANCH   7  11
BRANCH   9  20
ATOM     20  N   UNL     1       3.492  -2.187  -5.373  0.00  0.00    -0.358 N 
ATOM     21  H   UNL     1       3.392  -2.725  -6.174  0.00  0.00    +0.142 HD
ATOM     22  H   UNL     1       4.279  -1.633  -5.256  0.00  0.00    +0.142 HD
ENDBRANCH   9  20
BRANCH   1  24
ATOM     23  C   UNL     1      -2.128   0.723   0.133  0.00  0.00    +0.020 C 
ATOM     24  C   UNL     1      -1.846  -0.769  -0.060  0.00  0.00    +0.081 C 
ENDBRANCH   1  24
BRANCH  10  25
ATOM     25  C   UNL     1       3.886  -0.656  -3.148  0.00  0.00    +0.101 C 
ATOM     26  N   UNL     1       4.826  -0.030  -3.027  0.00  0.00    -0.191 NA
ENDBRANCH  10  25
BRANCH   8  27
ATOM     27  C   UNL     1       0.927  -3.001  -6.045  0.00  0.00    +0.091 C 
ATOM     28  N   UNL     1       0.620  -2.938  -7.136  0.00  0.00    -0.194 NA
ENDBRANCH   8  27
BRANCH   8  29
ATOM     29  C   UNL     1       1.679  -4.476  -4.313  0.00  0.00    +0.091 C 
ATOM     30  N   UNL     1       1.952  -5.551  -4.068  0.00  0.00    -0.194 NA
ENDBRANCH   8  29
TORSDOF 7
