REMARK  Name = ZINC29589322
REMARK  5 active torsions:
REMARK  status: ('A' for Active; 'I' for Inactive)
REMARK    1  A    between atoms: C_4  and  N_7
REMARK    2  A    between atoms: C_11  and  S_12
REMARK    3  A    between atoms: S_12  and  C_13
REMARK    4  A    between atoms: C_13  and  C_14
REMARK    5  A    between atoms: C_22  and  N_24
REMARK                            x       y       z     vdW  Elec       q    Type
REMARK                         _______ _______ _______ _____ _____    ______ ____
ROOT
ATOM      1  N   UNL     1      -4.272   3.544   2.420  0.00  0.00    -0.291 N 
ATOM      2  C   UNL     1      -5.339   4.113   1.773  0.00  0.00    +0.047 A 
ATOM      3  C   UNL     1      -5.113   3.997   0.449  0.00  0.00    +0.064 A 
ATOM      4  N   UNL     1      -3.937   3.380   0.277  0.00  0.00    -0.226 NA
ATOM      5  C   UNL     1      -3.415   3.102   1.451  0.00  0.00    +0.174 A 
ATOM      6  C   UNL     1      -6.060   4.495  -0.615  0.00  0.00    +0.057 C 
ATOM      7  C   UNL     1      -7.429   4.739   0.030  0.00  0.00    +0.007 C 
ATOM      8  C   UNL     1      -7.256   5.589   1.292  0.00  0.00    +0.007 C 
ATOM      9  C   UNL     1      -6.561   4.756   2.377  0.00  0.00    +0.056 C 
ENDROOT
BRANCH   1  13
ATOM     10  C   UNL     1      -3.742   3.229   6.542  0.00  0.00    +0.000 A 
ATOM     11  C   UNL     1      -2.881   4.011   5.794  0.00  0.00    +0.002 A 
ATOM     12  C   UNL     1      -3.055   4.117   4.427  0.00  0.00    +0.026 A 
ATOM     13  C   UNL     1      -4.094   3.438   3.806  0.00  0.00    +0.049 A 
ATOM     14  C   UNL     1      -4.960   2.659   4.561  0.00  0.00    +0.026 A 
ATOM     15  C   UNL     1      -4.778   2.552   5.926  0.00  0.00    +0.002 A 
ENDBRANCH   1  13
BRANCH   5  16
ATOM     16  S   UNL     1      -1.876   2.292   1.730  0.00  0.00    -0.080 S 
BRANCH  16  17
ATOM     17  C   UNL     1      -1.350   2.020   0.019  0.00  0.00    +0.153 C 
BRANCH  17  18
ATOM     18  C   UNL     1      -0.016   1.319   0.009  0.00  0.00    +0.142 A 
ATOM     19  N   UNL     1       1.075   2.048   0.003  0.00  0.00    -0.231 NA
ATOM     20  C   UNL     1       2.283   1.465  -0.012  0.00  0.00    +0.076 A 
ATOM     21  C   UNL     1       3.468   2.212  -0.019  0.00  0.00    +0.028 A 
ATOM     22  C   UNL     1       4.669   1.568  -0.035  0.00  0.00    +0.002 A 
ATOM     23  C   UNL     1       4.738   0.178  -0.044  0.00  0.00    +0.001 A 
ATOM     24  C   UNL     1       3.604  -0.580  -0.036  0.00  0.00    +0.013 A 
ATOM     25  C   UNL     1       2.355   0.050  -0.020  0.00  0.00    +0.040 A 
ATOM     26  C   UNL     1       1.142  -0.681  -0.013  0.00  0.00    +0.127 A 
ATOM     27  N   UNL     1       0.002  -0.004   0.002  0.00  0.00    -0.216 NA
BRANCH  26  28
ATOM     28  N   UNL     1       1.147  -2.060  -0.020  0.00  0.00    -0.343 N 
ATOM     29  H   UNL     1       0.197  -2.613  -0.013  0.00  0.00    +0.144 HD
ATOM     30  H   UNL     1       2.102  -2.607  -0.031  0.00  0.00    +0.144 HD
ENDBRANCH  26  28
ENDBRANCH  17  18
ENDBRANCH  16  17
ENDBRANCH   5  16
TORSDOF 5
