REMARK  Name = ZINC52573653
REMARK  6 active torsions:
REMARK  status: ('A' for Active; 'I' for Inactive)
REMARK    1  A    between atoms: C_1  and  C_2
REMARK    2  A    between atoms: C_4  and  C_19
REMARK    3  A    between atoms: N_5  and  C_7
REMARK    4  A    between atoms: C_7  and  C_8
REMARK    5  A    between atoms: C_9  and  C_17
REMARK    6  A    between atoms: C_17  and  N_18
REMARK                            x       y       z     vdW  Elec       q    Type
REMARK                         _______ _______ _______ _____ _____    ______ ____
ROOT
ATOM      1  C   UNL     1       1.481  -3.682   1.774  0.00  0.00    +0.129 A 
ATOM      2  C   UNL     1       2.201  -3.238   2.813  0.00  0.00    -0.014 A 
ATOM      3  C   UNL     1       3.521  -3.870   2.697  0.00  0.00    +0.022 A 
ATOM      4  C   UNL     1       4.695  -3.822   3.447  0.00  0.00    +0.012 A 
ATOM      5  C   UNL     1       5.780  -4.554   3.055  0.00  0.00    +0.001 A 
ATOM      6  C   UNL     1       5.721  -5.344   1.916  0.00  0.00    +0.004 A 
ATOM      7  C   UNL     1       4.568  -5.405   1.162  0.00  0.00    +0.047 A 
ATOM      8  C   UNL     1       3.453  -4.669   1.543  0.00  0.00    +0.135 A 
ATOM      9  O   UNL     1       2.215  -4.527   1.030  0.00  0.00    -0.458 OA
ENDROOT
BRANCH   1  10
ATOM     10  C   UNL     1       0.053  -3.295   1.486  0.00  0.00    +0.218 C 
BRANCH  10  15
ATOM     11  C   UNL     1      -0.018   1.503   0.010  0.00  0.00    +0.068 C 
ATOM     12  C   UNL     1       0.002  -0.004   0.002  0.00  0.00    +0.074 A 
ATOM     13  C   UNL     1       0.008  -0.818  -1.136  0.00  0.00    +0.061 A 
ATOM     14  C   UNL     1       0.027  -2.108  -0.725  0.00  0.00    +0.051 A 
ATOM     15  N   UNL     1       0.034  -2.109   0.625  0.00  0.00    -0.260 N 
ATOM     16  N   UNL     1       0.023  -0.777   1.058  0.00  0.00    -0.175 NA
ATOM     17  C   UNL     1       0.039  -3.324  -1.615  0.00  0.00    +0.066 C 
ATOM     18 BR   UNL     1      -0.009  -0.222  -2.930  0.00  0.00    -0.047 Br
ENDBRANCH  10  15
ENDBRANCH   1  10
BRANCH   2  19
ATOM     19  C   UNL     1       1.748  -2.281   3.886  0.00  0.00    -0.046 C 
BRANCH  19  20
ATOM     20  N   UNL     1       1.156  -3.036   4.998  0.00  0.00    +0.381 N 
ATOM     21  H   UNL     1       1.845  -3.667   5.380  0.00  0.00    -0.090 HD
ATOM     22  H   UNL     1       0.853  -2.396   5.716  0.00  0.00    -0.090 HD
ATOM     23  H   UNL     1       0.365  -3.565   4.662  0.00  0.00    -0.090 HD
ENDBRANCH  19  20
ENDBRANCH   2  19
TORSDOF 4
