REMARK  Name = ZINC21241601
REMARK  7 active torsions:
REMARK  status: ('A' for Active; 'I' for Inactive)
REMARK    1  A    between atoms: C_1  and  C_2
REMARK    2  A    between atoms: C_2  and  C_3
REMARK    3  A    between atoms: C_2  and  O_4
REMARK    4  A    between atoms: O_4  and  C_5
REMARK    5  A    between atoms: C_8  and  C_11
REMARK    6  A    between atoms: C_16  and  C_26
REMARK    7  A    between atoms: C_29  and  C_32
REMARK                            x       y       z     vdW  Elec       q    Type
REMARK                         _______ _______ _______ _____ _____    ______ ____
ROOT
ATOM      1  C   UNL     1      -0.594   0.047  -0.266  0.00  0.00    +0.032 C 
ATOM      2  C   UNL     1      -1.249  -0.652  -1.455  0.00  0.00    +0.059 C 
ATOM      3  C   UNL     1      -1.039  -2.153  -1.356  0.00  0.00    +0.017 C 
ATOM      4  C   UNL     1      -0.966  -2.755  -0.156  0.00  0.00    +0.036 C 
ATOM      5  C   UNL     1      -0.773  -4.233   0.084  0.00  0.00    +0.136 C 
ATOM      6  N   UNL     1      -0.924  -5.059  -1.095  0.00  0.00    -0.331 N 
ATOM      7  C   UNL     1      -0.038  -4.949  -2.166  0.00  0.00    +0.049 A 
ATOM      8  C   UNL     1       0.797  -5.994  -2.525  0.00  0.00    +0.025 A 
ATOM      9  C   UNL     1       1.694  -5.821  -3.565  0.00  0.00    +0.002 A 
ATOM     10  C   UNL     1       1.760  -4.616  -4.239  0.00  0.00    +0.002 A 
ATOM     11  C   UNL     1       0.914  -3.575  -3.894  0.00  0.00    +0.025 A 
ATOM     12  C   UNL     1       0.001  -3.755  -2.870  0.00  0.00    +0.052 A 
ATOM     13  N   UNL     1      -0.953  -2.797  -2.548  0.00  0.00    -0.316 N 
ATOM     14  C   UNL     1      -1.070  -1.991   1.030  0.00  0.00    +0.163 C 
ATOM     15  O   UNL     1      -1.019  -2.562   2.102  0.00  0.00    -0.292 OA
ATOM     16  C   UNL     1      -1.240  -0.501   1.012  0.00  0.00    +0.088 C 
ATOM     17  H   UNL     1      -1.747  -5.786  -1.155  0.00  0.00    +0.147 HD
ATOM     18  H   UNL     1      -1.674  -2.572  -3.348  0.00  0.00    +0.152 HD
ENDROOT
BRANCH   1  22
ATOM     19  C   UNL     1      -1.248   4.263  -0.524  0.00  0.00    +0.121 A 
ATOM     20  C   UNL     1       0.045   3.761  -0.480  0.00  0.00    +0.046 A 
ATOM     21  C   UNL     1       0.254   2.398  -0.397  0.00  0.00    +0.007 A 
ATOM     22  C   UNL     1      -0.825   1.534  -0.357  0.00  0.00    -0.043 A 
ATOM     23  C   UNL     1      -2.114   2.030  -0.406  0.00  0.00    +0.007 A 
ATOM     24  C   UNL     1      -2.328   3.393  -0.483  0.00  0.00    +0.046 A 
BRANCH  19  25
ATOM     25  O   UNL     1      -1.456   5.603  -0.606  0.00  0.00    -0.489 OA
BRANCH  25  27
ATOM     26  C   UNL     1      -0.704   7.742  -1.442  0.00  0.00    +0.051 C 
ATOM     27  C   UNL     1      -0.301   6.430  -0.767  0.00  0.00    +0.167 C 
ATOM     28  C   UNL     1       0.307   6.728   0.605  0.00  0.00    +0.051 C 
ENDBRANCH  25  27
ENDBRANCH  19  25
ENDBRANCH   1  22
BRANCH   5  29
ATOM     29  C   UNL     1       0.609  -4.449   0.644  0.00  0.00    -0.023 A 
ATOM     30  C   UNL     1       1.720  -4.154  -0.124  0.00  0.00    +0.006 A 
ATOM     31  C   UNL     1       2.987  -4.348   0.392  0.00  0.00    +0.013 A 
ATOM     32  C   UNL     1       3.144  -4.846   1.672  0.00  0.00    +0.055 A 
ATOM     33  C   UNL     1       2.033  -5.145   2.438  0.00  0.00    +0.013 A 
ATOM     34  C   UNL     1       0.765  -4.947   1.924  0.00  0.00    +0.006 A 
BRANCH  32  35
ATOM     35  C   UNL     1       4.526  -5.061   2.233  0.00  0.00    +0.417 C 
ATOM     36  F   UNL     1       4.956  -6.357   1.929  0.00  0.00    -0.166 F 
ATOM     37  F   UNL     1       5.408  -4.133   1.669  0.00  0.00    -0.166 F 
ATOM     38  F   UNL     1       4.497  -4.892   3.622  0.00  0.00    -0.166 F 
ENDBRANCH  32  35
ENDBRANCH   5  29
TORSDOF 5
