REMARK  Name = ZINC52617334
REMARK  2 active torsions:
REMARK  status: ('A' for Active; 'I' for Inactive)
REMARK    1  A    between atoms: N_9  and  C_11
REMARK    2  A    between atoms: C_11  and  C_12
REMARK                            x       y       z     vdW  Elec       q    Type
REMARK                         _______ _______ _______ _____ _____    ______ ____
ROOT
ATOM      1  C   UNL     1       4.863  -2.801   0.250  0.00  0.00    +0.118 C 
ENDROOT
BRANCH   1  10
ATOM      2  C   UNL     1      -0.017   1.376   0.010  0.00  0.00    +0.000 A 
ATOM      3  C   UNL     1       1.173   2.080   0.002  0.00  0.00    +0.000 A 
ATOM      4  C   UNL     1       2.374   1.400  -0.015  0.00  0.00    +0.005 A 
ATOM      5  C   UNL     1       2.395   0.013  -0.024  0.00  0.00    -0.030 A 
ATOM      6  C   UNL     1       1.208  -0.688  -0.012  0.00  0.00    -0.042 A 
ATOM      7  C   UNL     1       0.002  -0.004   0.002  0.00  0.00    +0.004 A 
ATOM      8  C   UNL     1       1.180  -2.195  -0.009  0.00  0.00    +0.051 C 
ATOM      9  C   UNL     1       2.541  -2.744  -0.440  0.00  0.00    +0.090 C 
ATOM     10  N   UNL     1       3.585  -2.085   0.361  0.00  0.00    -0.294 NA
ATOM     11  C   UNL     1       3.730  -0.684  -0.048  0.00  0.00    +0.120 C 
ENDBRANCH   1  10
BRANCH   1  12
ATOM     12  C   UNL     1       5.835  -2.252   1.262  0.00  0.00    -0.026 C 
ATOM     13  C   UNL     1       6.087  -2.742   2.497  0.00  0.00    +0.019 A 
ATOM     14  C   UNL     1       5.555  -3.888   3.244  0.00  0.00    +0.013 A 
ATOM     15  C   UNL     1       6.038  -4.103   4.497  0.00  0.00    +0.020 A 
ATOM     16  C   UNL     1       7.006  -3.254   5.042  0.00  0.00    +0.113 A 
ATOM     17  N   UNL     1       7.502  -2.227   4.408  0.00  0.00    -0.238 NA
ATOM     18  C   UNL     1       7.111  -1.900   3.157  0.00  0.00    +0.134 A 
ATOM     19  N   UNL     1       7.477  -0.927   2.360  0.00  0.00    -0.365 N 
ATOM     20  C   UNL     1       6.732  -1.045   1.101  0.00  0.00    +0.147 C 
ATOM     21  H   UNL     1       8.134  -0.244   2.566  0.00  0.00    +0.161 HD
ENDBRANCH   1  12
TORSDOF 2
