REMARK  Name = ZINC01622855
REMARK  6 active torsions:
REMARK  status: ('A' for Active; 'I' for Inactive)
REMARK    1  A    between atoms: C_1  and  C_2
REMARK    2  A    between atoms: C_2  and  C_34
REMARK    3  A    between atoms: C_8  and  C_32
REMARK    4  A    between atoms: C_9  and  C_30
REMARK    5  A    between atoms: N_14  and  C_17
REMARK    6  A    between atoms: N_23  and  C_24
REMARK                            x       y       z     vdW  Elec       q    Type
REMARK                         _______ _______ _______ _____ _____    ______ ____
ROOT
ATOM      1  C   UNL     1       0.951   2.271  -1.431  0.00  0.00    +0.041 C 
ATOM      2  C   UNL     1       1.220   2.011   0.053  0.00  0.00    +0.066 C 
ATOM      3  C   UNL     1       1.434   0.485   0.296  0.00  0.00    +0.060 C 
ATOM      4  C   UNL     1       0.371   0.211   1.365  0.00  0.00    +0.123 C 
ATOM      5  C   UNL     1      -0.710   1.192   0.891  0.00  0.00    +0.181 C 
ATOM      6  O   UNL     1       0.059   2.406   0.848  0.00  0.00    -0.364 OA
ATOM      7  C   UNL     1      -1.882   1.111   1.818  0.00  0.00    +0.077 C 
ATOM      8  C   UNL     1      -2.304  -0.195   2.100  0.00  0.00    +0.069 C 
ATOM      9  C   UNL     1      -1.514  -1.298   1.688  0.00  0.00    +0.044 C 
ATOM     10  C   UNL     1      -0.186  -1.168   1.527  0.00  0.00    +0.064 C 
ATOM     11  N   UNL     1       0.754  -2.114   1.633  0.00  0.00    -0.221 NA
ATOM     12  C   UNL     1       1.711  -1.783   2.507  0.00  0.00    +0.198 C 
ATOM     13  N   UNL     1       1.701  -0.582   3.184  0.00  0.00    -0.211 N 
ATOM     14  C   UNL     1       1.014   0.502   2.703  0.00  0.00    +0.241 C 
ATOM     15  O   UNL     1       0.931   1.565   3.280  0.00  0.00    -0.274 OA
ATOM     16  N   UNL     1       2.733  -2.664   2.736  0.00  0.00    -0.286 N 
ATOM     17  C   UNL     1       2.454   2.793   0.505  0.00  0.00    +0.041 C 
ATOM     18  H   UNL     1       3.391  -2.475   3.422  0.00  0.00    +0.155 HD
ENDROOT
BRANCH  13  19
ATOM     19  C   UNL     1       2.408  -0.467   4.388  0.00  0.00    +0.044 A 
ATOM     20  C   UNL     1       1.820  -0.868   5.581  0.00  0.00    +0.024 A 
ATOM     21  C   UNL     1       2.521  -0.758   6.766  0.00  0.00    +0.002 A 
ATOM     22  C   UNL     1       3.803  -0.240   6.767  0.00  0.00    +0.000 A 
ATOM     23  C   UNL     1       4.389   0.165   5.582  0.00  0.00    +0.002 A 
ATOM     24  C   UNL     1       3.695   0.053   4.393  0.00  0.00    +0.024 A 
ENDBRANCH  13  19
BRANCH  16  25
ATOM     25  C   UNL     1       2.828  -3.836   1.979  0.00  0.00    +0.033 A 
ATOM     26  C   UNL     1       2.424  -3.841   0.650  0.00  0.00    +0.023 A 
ATOM     27  C   UNL     1       2.523  -5.000  -0.095  0.00  0.00    +0.002 A 
ATOM     28  C   UNL     1       3.014  -6.156   0.483  0.00  0.00    +0.000 A 
ATOM     29  C   UNL     1       3.413  -6.155   1.807  0.00  0.00    +0.002 A 
ATOM     30  C   UNL     1       3.321  -4.999   2.557  0.00  0.00    +0.023 A 
ENDBRANCH  16  25
BRANCH   8  31
ATOM     31  C   UNL     1      -3.535  -0.416   2.798  0.00  0.00    +0.100 C 
ATOM     32  N   UNL     1      -4.511  -0.591   3.352  0.00  0.00    -0.191 NA
ENDBRANCH   8  31
BRANCH   7  33
ATOM     33  C   UNL     1      -2.518   2.269   2.370  0.00  0.00    +0.099 C 
ATOM     34  N   UNL     1      -3.023   3.188   2.808  0.00  0.00    -0.191 NA
ENDBRANCH   7  33
TORSDOF 4
