REMARK  Name = ZINC19771439
REMARK  9 active torsions:
REMARK  status: ('A' for Active; 'I' for Inactive)
REMARK    1  A    between atoms: C_1  and  C_2
REMARK    2  A    between atoms: C_3  and  C_21
REMARK    3  A    between atoms: C_4  and  C_16
REMARK    4  A    between atoms: C_10  and  C_14
REMARK    5  A    between atoms: C_10  and  C_15
REMARK    6  A    between atoms: C_21  and  O_23
REMARK    7  A    between atoms: O_23  and  C_24
REMARK    8  A    between atoms: C_24  and  C_25
REMARK    9  A    between atoms: C_25  and  C_26
REMARK                            x       y       z     vdW  Elec       q    Type
REMARK                         _______ _______ _______ _____ _____    ______ ____
ROOT
ATOM      1  C   UNL     1       0.036   9.096  -5.120  0.00  0.00    +0.061 C 
ATOM      2  C   UNL     1      -0.068   9.928  -3.868  0.00  0.00    +0.016 C 
ATOM      3  C   UNL     1      -0.299   9.330  -2.686  0.00  0.00    +0.066 C 
ATOM      4  C   UNL     1      -0.423  10.127  -1.421  0.00  0.00    +0.099 C 
ATOM      5  C   UNL     1       0.168  11.506  -1.592  0.00  0.00    +0.024 C 
ATOM      6  C   UNL     1       0.382  12.015  -2.824  0.00  0.00    +0.016 C 
ATOM      7  N   UNL     1       0.074  11.286  -3.941  0.00  0.00    -0.321 N 
ATOM      8  C   UNL     1       0.967  13.395  -3.003  0.00  0.00    +0.058 C 
ATOM      9  C   UNL     1       0.551  14.286  -1.831  0.00  0.00    -0.023 C 
ATOM     10  C   UNL     1       1.040  13.637  -0.531  0.00  0.00    +0.086 C 
ATOM     11  C   UNL     1       0.478  12.245  -0.437  0.00  0.00    +0.162 C 
ATOM     12  O   UNL     1       0.290  11.750   0.656  0.00  0.00    -0.292 OA
ATOM     13  C   UNL     1      -0.973  14.416  -1.798  0.00  0.00    +0.011 C 
ATOM     14  C   UNL     1       1.183  15.671  -1.983  0.00  0.00    +0.011 C 
ATOM     15  H   UNL     1      -0.058  11.802  -4.903  0.00  0.00    +0.152 HD
ENDROOT
BRANCH   4  16
ATOM     16  C   UNL     1      -1.879  10.249  -1.053  0.00  0.00    +0.002 A 
ATOM     17  C   UNL     1      -2.515   9.827   0.067  0.00  0.00    +0.012 A 
ATOM     18  C   UNL     1      -3.873  10.052   0.193  0.00  0.00    +0.008 A 
ATOM     19  C   UNL     1      -4.531  10.679  -0.813  0.00  0.00    +0.045 A 
ATOM     20  S   UNL     1      -3.216  10.979  -1.984  0.00  0.00    -0.101 S 
ENDBRANCH   4  16
BRANCH   3  21
ATOM     21  C   UNL     1      -0.434   7.923  -2.636  0.00  0.00    +0.338 C 
ATOM     22  O   UNL     1       0.466   7.241  -2.182  0.00  0.00    -0.245 OA
BRANCH  21  23
ATOM     23  O   UNL     1      -1.562   7.337  -3.090  0.00  0.00    -0.461 OA
BRANCH  23  24
ATOM     24  C   UNL     1      -1.630   5.912  -3.009  0.00  0.00    +0.237 C 
BRANCH  24  25
ATOM     25  C   UNL     1      -2.971   5.432  -3.567  0.00  0.00    +0.076 C 
BRANCH  25  26
ATOM     26  C   UNL     1      -3.043   3.930  -3.481  0.00  0.00    -0.044 A 
ATOM     27  C   UNL     1      -3.561   3.326  -2.350  0.00  0.00    +0.004 A 
ATOM     28  C   UNL     1      -3.627   1.948  -2.271  0.00  0.00    +0.000 A 
ATOM     29  C   UNL     1      -3.175   1.173  -3.322  0.00  0.00    +0.000 A 
ATOM     30  C   UNL     1      -2.652   1.776  -4.451  0.00  0.00    +0.000 A 
ATOM     31  C   UNL     1      -2.591   3.155  -4.532  0.00  0.00    +0.004 A 
ENDBRANCH  25  26
ENDBRANCH  24  25
ENDBRANCH  23  24
ENDBRANCH  21  23
ENDBRANCH   3  21
TORSDOF 6
