REMARK  Name = ZINC09660204
REMARK  11 active torsions:
REMARK  status: ('A' for Active; 'I' for Inactive)
REMARK    1  A    between atoms: C_1  and  C_2
REMARK    2  A    between atoms: C_7  and  N_62
REMARK    3  A    between atoms: C_9  and  C_11
REMARK    4  A    between atoms: C_12  and  N_62
REMARK    5  A    between atoms: C_14  and  C_31
REMARK    6  A    between atoms: C_15  and  C_30
REMARK    7  A    between atoms: N_18  and  C_19
REMARK    8  A    between atoms: C_19  and  C_21
REMARK    9  A    between atoms: C_19  and  C_22
REMARK   10  A    between atoms: C_22  and  C_23
REMARK   11  A    between atoms: C_23  and  C_24
REMARK                            x       y       z     vdW  Elec       q    Type
REMARK                         _______ _______ _______ _____ _____    ______ ____
ROOT
ATOM      1  C   UNL     1      -5.157   1.915   0.848  0.00  0.00    +0.047 C 
ATOM      2  C   UNL     1      -6.081   1.079   1.702  0.00  0.00    -0.062 C 
ATOM      3  C   UNL     1      -7.324   1.373   1.335  0.00  0.00    +0.010 C 
ATOM      4  C   UNL     1      -7.301   2.376   0.265  0.00  0.00    +0.241 C 
ATOM      5  O   UNL     1      -8.286   2.842  -0.275  0.00  0.00    -0.270 OA
ATOM      6  N   UNL     1      -6.029   2.706  -0.032  0.00  0.00    -0.305 N 
ATOM      7  C   UNL     1      -8.570   0.767   1.928  0.00  0.00    +0.049 C 
ATOM      8  C   UNL     1      -5.671   0.097   2.769  0.00  0.00    +0.039 C 
ENDROOT
BRANCH   1   9
ATOM      9  N   UNL     1      -4.286   1.039   0.043  0.00  0.00    +0.396 N 
ATOM     10  H   UNL     1      -4.292   0.094   0.445  0.00  0.00    -0.082 HD
ATOM     11  H   UNL     1      -4.638   1.004  -0.920  0.00  0.00    -0.082 HD
BRANCH   9  17
ATOM     12  C   UNL     1      -0.773   3.123  -1.223  0.00  0.00    +0.008 C 
ATOM     13  C   UNL     1      -0.753   1.593  -1.232  0.00  0.00    -0.013 C 
ATOM     14  C   UNL     1      -0.013   1.086   0.008  0.00  0.00    +0.003 C 
ATOM     15  C   UNL     1      -0.729   1.579   1.267  0.00  0.00    -0.001 C 
ATOM     16  C   UNL     1      -2.164   1.050   1.278  0.00  0.00    -0.015 C 
ATOM     17  C   UNL     1      -2.904   1.556   0.038  0.00  0.00    -0.066 C 
ATOM     18  C   UNL     1      -2.188   1.063  -1.221  0.00  0.00    -0.025 C 
ATOM     19  C   UNL     1      -2.167  -0.467  -1.229  0.00  0.00    +0.006 C 
ENDBRANCH   9  17
ENDBRANCH   1   9
BRANCH   6  20
ATOM     20  C   UNL     1      -5.594   3.672  -1.044  0.00  0.00    +0.072 C 
ATOM     21  C   UNL     1      -6.095   3.229  -2.420  0.00  0.00    +0.028 C 
BRANCH  20  22
ATOM     22  C   UNL     1      -6.167   5.051  -0.712  0.00  0.00    +0.027 C 
BRANCH  22  23
ATOM     23  C   UNL     1      -5.569   5.548   0.606  0.00  0.00    +0.037 C 
BRANCH  23  24
ATOM     24  C   UNL     1      -6.134   6.907   0.933  0.00  0.00    -0.047 A 
ATOM     25  C   UNL     1      -5.494   8.047   0.486  0.00  0.00    +0.003 A 
ATOM     26  C   UNL     1      -6.014   9.293   0.782  0.00  0.00    +0.000 A 
ATOM     27  C   UNL     1      -7.170   9.399   1.533  0.00  0.00    +0.000 A 
ATOM     28  C   UNL     1      -7.807   8.258   1.984  0.00  0.00    +0.000 A 
ATOM     29  C   UNL     1      -7.289   7.012   1.685  0.00  0.00    +0.003 A 
ENDBRANCH  23  24
ENDBRANCH  22  23
ENDBRANCH  20  22
ENDBRANCH   6  20
TORSDOF 6
