REMARK  Name = ZINC46817868
REMARK  9 active torsions:
REMARK  status: ('A' for Active; 'I' for Inactive)
REMARK    1  A    between atoms: C_1  and  C_2
REMARK    2  A    between atoms: C_2  and  C_4
REMARK    3  A    between atoms: C_2  and  N_15
REMARK    4  A    between atoms: C_7  and  O_10
REMARK    5  A    between atoms: O_10  and  C_11
REMARK    6  A    between atoms: N_15  and  C_16
REMARK    7  A    between atoms: C_16  and  C_18
REMARK    8  A    between atoms: C_16  and  C_19
REMARK    9  A    between atoms: N_24  and  C_25
REMARK                            x       y       z     vdW  Elec       q    Type
REMARK                         _______ _______ _______ _____ _____    ______ ____
ROOT
ATOM      1  N   UNL     1       0.713  -0.491   1.192  0.00  0.00    +0.391 N 
ATOM      2  H   UNL     1       0.798  -1.495   1.145  0.00  0.00    -0.084 HD
ATOM      3  H   UNL     1       1.632  -0.076   1.228  0.00  0.00    -0.084 HD
ENDROOT
BRANCH   1   5
ATOM      4  C   UNL     1      -0.019   1.526   0.010  0.00  0.00    -0.009 C 
ATOM      5  C   UNL     1       0.002  -0.004   0.002  0.00  0.00    -0.043 C 
BRANCH   5   6
ATOM      6  C   UNL     1       0.707  -0.490  -1.238  0.00  0.00    -0.061 A 
ATOM      7  C   UNL     1       2.089  -0.510  -1.283  0.00  0.00    +0.005 A 
ATOM      8  C   UNL     1       2.738  -0.955  -2.418  0.00  0.00    +0.046 A 
ATOM      9  C   UNL     1       2.002  -1.382  -3.514  0.00  0.00    +0.130 A 
ATOM     10  C   UNL     1       0.616  -1.361  -3.466  0.00  0.00    +0.046 A 
ATOM     11  C   UNL     1      -0.028  -0.920  -2.327  0.00  0.00    +0.005 A 
BRANCH   9  12
ATOM     12  O   UNL     1       2.638  -1.819  -4.633  0.00  0.00    -0.406 OA
BRANCH  12  13
ATOM     13  C   UNL     1       1.817  -2.244  -5.722  0.00  0.00    +0.575 C 
ATOM     14  F   UNL     1       1.011  -1.179  -6.140  0.00  0.00    -0.133 F 
ATOM     15  F   UNL     1       2.628  -2.659  -6.784  0.00  0.00    -0.133 F 
ATOM     16  F   UNL     1       1.008  -3.308  -5.309  0.00  0.00    -0.133 F 
ENDBRANCH  12  13
ENDBRANCH   9  12
ENDBRANCH   5   6
ENDBRANCH   1   5
BRANCH   1  17
ATOM     17  C   UNL     1      -0.040  -0.119   2.398  0.00  0.00    +0.014 C 
ATOM     18  C   UNL     1      -1.385  -0.847   2.404  0.00  0.00    -0.004 C 
BRANCH  17  19
ATOM     19  C   UNL     1       0.748  -0.509   3.622  0.00  0.00    +0.206 C 
ATOM     20  O   UNL     1       1.829  -1.044   3.502  0.00  0.00    -0.277 OA
ATOM     21  N   UNL     1       0.250  -0.263   4.850  0.00  0.00    -0.242 N 
ATOM     22  C   UNL     1       0.955  -0.612   5.945  0.00  0.00    +0.306 C 
ATOM     23  O   UNL     1       2.039  -1.149   5.824  0.00  0.00    -0.252 OA
ATOM     24  N   UNL     1       0.457  -0.367   7.173  0.00  0.00    -0.296 N 
ATOM     25  H   UNL     1      -0.615   0.165   4.946  0.00  0.00    +0.159 HD
ATOM     26  H   UNL     1      -0.408   0.061   7.269  0.00  0.00    +0.151 HD
BRANCH  24  27
ATOM     27  C   UNL     1       1.223  -0.746   8.363  0.00  0.00    +0.075 C 
ATOM     28  C   UNL     1       0.462  -1.414   9.509  0.00  0.00    +0.024 C 
ATOM     29  C   UNL     1       0.951   0.028   9.654  0.00  0.00    +0.024 C 
ENDBRANCH  24  27
ENDBRANCH  17  19
ENDBRANCH   1  17
TORSDOF 7
