REMARK  Name = ZINC23724306
REMARK  4 active torsions:
REMARK  status: ('A' for Active; 'I' for Inactive)
REMARK    1  A    between atoms: C_1  and  N_2
REMARK    2  A    between atoms: C_10  and  C_11
REMARK    3  A    between atoms: C_11  and  C_23
REMARK    4  A    between atoms: C_12  and  C_13
REMARK                            x       y       z     vdW  Elec       q    Type
REMARK                         _______ _______ _______ _____ _____    ______ ____
ROOT
ATOM      1  C   UNL     1      -3.045   1.617   0.274  0.00  0.00    +0.095 C 
ATOM      2  C   UNL     1      -4.349   1.948   0.506  0.00  0.00    +0.031 C 
ENDROOT
BRANCH   1  12
ATOM      3  C   UNL     1      -0.052   0.890   0.050  0.00  0.00    +0.151 C 
ATOM      4  N   UNL     1      -0.771   1.197   1.289  0.00  0.00    -0.326 N 
ATOM      5  C   UNL     1      -0.237   1.221   2.563  0.00  0.00    +0.069 A 
ATOM      6  C   UNL     1       1.030   0.989   3.081  0.00  0.00    +0.028 A 
ATOM      7  C   UNL     1       1.243   1.097   4.439  0.00  0.00    +0.002 A 
ATOM      8  C   UNL     1       0.201   1.433   5.291  0.00  0.00    +0.002 A 
ATOM      9  C   UNL     1      -1.053   1.665   4.801  0.00  0.00    +0.030 A 
ATOM     10  C   UNL     1      -1.294   1.562   3.426  0.00  0.00    +0.090 A 
ATOM     11  N   UNL     1      -2.399   1.728   2.661  0.00  0.00    -0.227 NA
ATOM     12  C   UNL     1      -2.098   1.520   1.400  0.00  0.00    +0.152 A 
ENDBRANCH   1  12
BRANCH   2  13
ATOM     13  C   UNL     1      -5.323   1.899  -0.588  0.00  0.00    -0.006 A 
ATOM     14  C   UNL     1      -5.191   0.944  -1.606  0.00  0.00    +0.058 A 
ATOM     15  C   UNL     1      -6.114   0.898  -2.630  0.00  0.00    +0.167 A 
ATOM     16  C   UNL     1      -7.171   1.810  -2.660  0.00  0.00    +0.167 A 
ATOM     17  C   UNL     1      -7.301   2.761  -1.655  0.00  0.00    +0.065 A 
ATOM     18  C   UNL     1      -6.387   2.811  -0.625  0.00  0.00    +0.029 A 
ATOM     19 BR   UNL     1      -6.569   4.108   0.739  0.00  0.00    -0.050 Br
ATOM     20  O   UNL     1      -7.929   1.561  -3.766  0.00  0.00    -0.453 OA
ATOM     21  C   UNL     1      -7.566   0.234  -4.191  0.00  0.00    +0.466 C 
ATOM     22  O   UNL     1      -6.214   0.081  -3.719  0.00  0.00    -0.453 OA
ENDBRANCH   2  13
BRANCH   1  23
ATOM     23  C   UNL     1      -2.597   1.362  -1.062  0.00  0.00    +0.103 C 
ATOM     24  N   UNL     1      -2.242   1.160  -2.122  0.00  0.00    -0.191 NA
ENDBRANCH   1  23
TORSDOF 3
