REMARK  Name = ZINC67150568
REMARK  8 active torsions:
REMARK  status: ('A' for Active; 'I' for Inactive)
REMARK    1  A    between atoms: C_1  and  C_2
REMARK    2  A    between atoms: C_2  and  C_4
REMARK    3  A    between atoms: C_2  and  N_17
REMARK    4  A    between atoms: C_4  and  C_5
REMARK    5  A    between atoms: N_7  and  C_8
REMARK    6  A    between atoms: C_8  and  C_9
REMARK    7  A    between atoms: C_9  and  N_10
REMARK    8  A    between atoms: C_18  and  C_20
REMARK                            x       y       z     vdW  Elec       q    Type
REMARK                         _______ _______ _______ _____ _____    ______ ____
ROOT
ATOM      1  C   UNL     1       0.484  -2.003  -1.405  0.00  0.00    +0.215 C 
ATOM      2  O   UNL     1      -0.156  -2.619  -0.580  0.00  0.00    -0.276 OA
ATOM      3  N   UNL     1       1.116  -2.662  -2.397  0.00  0.00    -0.317 N 
ATOM      4  H   UNL     1       1.628  -2.169  -3.058  0.00  0.00    +0.149 HD
ENDROOT
BRANCH   1   5
ATOM      5  C   UNL     1       0.574  -0.501  -1.322  0.00  0.00    +0.117 C 
BRANCH   5   7
ATOM      6  C   UNL     1      -0.238   1.522  -0.101  0.00  0.00    +0.028 C 
ATOM      7  C   UNL     1      -0.226  -0.008  -0.114  0.00  0.00    +0.079 C 
BRANCH   7   8
ATOM      8  N   UNL     1       0.396  -0.502   1.117  0.00  0.00    -0.312 N 
ATOM      9  C   UNL     1      -0.344  -0.647   2.234  0.00  0.00    +0.216 C 
ATOM     10  O   UNL     1      -1.524  -0.368   2.220  0.00  0.00    -0.276 OA
ATOM     11  H   UNL     1       1.340  -0.725   1.128  0.00  0.00    +0.149 HD
BRANCH   9  12
ATOM     12  C   UNL     1       0.295  -1.155   3.501  0.00  0.00    +0.075 C 
ATOM     13  C   UNL     1       0.873  -2.551   3.256  0.00  0.00    +0.013 C 
ATOM     14  C   UNL     1       1.522  -3.067   4.542  0.00  0.00    +0.001 C 
ATOM     15  C   UNL     1       0.470  -3.137   5.651  0.00  0.00    +0.000 C 
ATOM     16  C   UNL     1      -0.107  -1.741   5.896  0.00  0.00    +0.001 C 
ATOM     17  C   UNL     1      -0.756  -1.225   4.610  0.00  0.00    +0.013 C 
ENDBRANCH   9  12
ENDBRANCH   7   8
ENDBRANCH   5   7
ENDBRANCH   1   5
BRANCH   3  18
ATOM     18  C   UNL     1       1.029  -4.122  -2.478  0.00  0.00    +0.085 C 
BRANCH  18  19
ATOM     19  C   UNL     1       1.828  -4.614  -3.686  0.00  0.00    -0.060 C 
BRANCH  19  20
ATOM     20  N   UNL     1       1.848  -6.083  -3.694  0.00  0.00    +0.381 N 
ATOM     21  C   UNL     1       2.813  -6.538  -4.714  0.00  0.00    -0.079 C 
ATOM     22  C   UNL     1       3.285  -7.920  -4.337  0.00  0.00    -0.019 C 
ATOM     23  C   UNL     1       2.481  -9.010  -5.071  0.00  0.00    -0.002 C 
ATOM     24  C   UNL     1       0.979  -8.667  -5.135  0.00  0.00    -0.002 C 
ATOM     25  C   UNL     1       0.466  -8.086  -3.842  0.00  0.00    -0.019 C 
ATOM     26  C   UNL     1       0.550  -6.547  -3.914  0.00  0.00    -0.079 C 
ATOM     27  H   UNL     1       2.159  -6.407  -2.790  0.00  0.00    -0.082 HD
ENDBRANCH  19  20
ENDBRANCH  18  19
ENDBRANCH   3  18
TORSDOF 7
