REMARK  Name = ZINC67545299
REMARK  5 active torsions:
REMARK  status: ('A' for Active; 'I' for Inactive)
REMARK    1  A    between atoms: C_3  and  C_12
REMARK    2  A    between atoms: C_4  and  S_7
REMARK    3  A    between atoms: S_7  and  C_8
REMARK    4  A    between atoms: N_14  and  C_15
REMARK    5  A    between atoms: C_15  and  C_16
REMARK                            x       y       z     vdW  Elec       q    Type
REMARK                         _______ _______ _______ _____ _____    ______ ____
ROOT
ATOM      1  C   UNL     1       3.674   2.044  -0.022  0.00  0.00    +0.247 C 
ATOM      2  O   UNL     1       4.706   1.400  -0.036  0.00  0.00    -0.270 OA
ATOM      3  N   UNL     1       3.719   3.391  -0.016  0.00  0.00    -0.311 N 
ATOM      4  H   UNL     1       2.896   3.904  -0.006  0.00  0.00    +0.149 HD
ENDROOT
BRANCH   1   7
ATOM      5  C   UNL     1      -0.017   1.379   0.010  0.00  0.00    +0.020 A 
ATOM      6  C   UNL     1       1.178   2.078   0.002  0.00  0.00    +0.017 A 
ATOM      7  C   UNL     1       2.373   1.350  -0.013  0.00  0.00    +0.069 A 
ATOM      8  C   UNL     1       2.311  -0.055  -0.020  0.00  0.00    +0.117 A 
ATOM      9  N   UNL     1       1.139  -0.672  -0.012  0.00  0.00    -0.248 NA
ATOM     10  C   UNL     1       0.002  -0.004   0.002  0.00  0.00    +0.112 A 
BRANCH   8  11
ATOM     11  S   UNL     1       3.799  -0.999  -0.040  0.00  0.00    +0.005 S 
BRANCH  11  12
ATOM     12  C   UNL     1       3.226  -2.720  -0.044  0.00  0.00    +0.449 C 
ATOM     13  F   UNL     1       2.442  -2.948  -1.179  0.00  0.00    -0.160 F 
ATOM     14  F   UNL     1       4.331  -3.578  -0.059  0.00  0.00    -0.160 F 
ATOM     15  F   UNL     1       2.465  -2.961   1.105  0.00  0.00    -0.160 F 
ENDBRANCH  11  12
ENDBRANCH   8  11
ENDBRANCH   1   7
BRANCH   3  16
ATOM     16  C   UNL     1       5.012   4.080  -0.025  0.00  0.00    +0.109 C 
BRANCH  16  17
ATOM     17  C   UNL     1       4.784   5.593  -0.015  0.00  0.00    +0.029 C 
ATOM     18  C   UNL     1       4.119   6.026  -1.333  0.00  0.00    +0.029 C 
ATOM     19  C   UNL     1       4.176   7.567  -1.470  0.00  0.00    +0.166 C 
ATOM     20  S   UNL     1       5.683   8.003  -0.511  0.00  0.00    -0.031 S 
ATOM     21  O   UNL     1       5.309   8.814   0.595  0.00  0.00    -0.174 OA
ATOM     22  O   UNL     1       6.685   8.462  -1.407  0.00  0.00    -0.174 OA
ATOM     23  C   UNL     1       6.148   6.329   0.104  0.00  0.00    +0.171 C 
ENDBRANCH  16  17
ENDBRANCH   3  16
TORSDOF 5
