REMARK  Name = ZINC08921180
REMARK  3 active torsions:
REMARK  status: ('A' for Active; 'I' for Inactive)
REMARK    1  A    between atoms: C_3  and  C_6
REMARK    2  A    between atoms: C_11  and  C_14
REMARK    3  A    between atoms: C_24  and  C_26
REMARK                            x       y       z     vdW  Elec       q    Type
REMARK                         _______ _______ _______ _____ _____    ______ ____
ROOT
ATOM      1  C   UNL     1      -2.775   5.411  -1.893  0.00  0.00    +0.220 C 
ATOM      2  O   UNL     1      -3.762   4.734  -2.089  0.00  0.00    -0.275 OA
ATOM      3  N   UNL     1      -1.910   5.075  -0.915  0.00  0.00    -0.289 N 
ATOM      4  C   UNL     1      -2.196   3.939  -0.026  0.00  0.00    +0.114 C 
ATOM      5  C   UNL     1      -1.129   2.859  -0.266  0.00  0.00    +0.062 C 
ATOM      6  C   UNL     1       0.207   3.520  -0.366  0.00  0.00    -0.003 A 
ATOM      7  C   UNL     1       0.475   4.838  -0.572  0.00  0.00    -0.012 A 
ATOM      8  C   UNL     1       1.819   5.202  -0.631  0.00  0.00    +0.013 A 
ATOM      9  C   UNL     1       2.782   4.263  -0.483  0.00  0.00    +0.046 A 
ATOM     10  S   UNL     1       1.814   2.779  -0.247  0.00  0.00    -0.101 S 
ATOM     11  C   UNL     1      -0.670   5.838  -0.723  0.00  0.00    +0.144 C 
ENDROOT
BRANCH   1  17
ATOM     12  C   UNL     1      -4.072  10.040  -4.418  0.00  0.00    +0.282 C 
ATOM     13  O   UNL     1      -4.112  11.071  -3.771  0.00  0.00    -0.267 OA
ATOM     14  N   UNL     1      -3.266   9.032  -4.030  0.00  0.00    -0.295 N 
ATOM     15  C   UNL     1      -3.139   7.818  -4.848  0.00  0.00    +0.109 C 
ATOM     16  C   UNL     1      -3.430   6.598  -3.969  0.00  0.00    +0.032 C 
ATOM     17  C   UNL     1      -2.515   6.628  -2.743  0.00  0.00    +0.078 C 
ATOM     18  C   UNL     1      -2.797   7.891  -1.925  0.00  0.00    +0.032 C 
ATOM     19  C   UNL     1      -2.498   9.126  -2.781  0.00  0.00    +0.109 C 
BRANCH  12  22
ATOM     20  C   UNL     1      -6.390  10.245  -7.231  0.00  0.00    +0.042 A 
ATOM     21  C   UNL     1      -5.848  10.779  -6.051  0.00  0.00    +0.054 A 
ATOM     22  C   UNL     1      -4.901   9.896  -5.619  0.00  0.00    +0.189 A 
ATOM     23  O   UNL     1      -4.857   8.870  -6.494  0.00  0.00    -0.458 OA
ATOM     24  C   UNL     1      -5.757   9.075  -7.465  0.00  0.00    +0.196 A 
ENDBRANCH  12  22
ENDBRANCH   1  17
BRANCH  11  25
ATOM     25  C   UNL     1      -0.778   6.682   0.521  0.00  0.00    +0.015 A 
ATOM     26  C   UNL     1      -0.329   7.943   0.739  0.00  0.00    +0.013 A 
ATOM     27  C   UNL     1      -0.539   8.525   1.974  0.00  0.00    +0.008 A 
ATOM     28  C   UNL     1      -1.199   7.823   2.928  0.00  0.00    +0.045 A 
ATOM     29  S   UNL     1      -1.538   6.285   2.087  0.00  0.00    -0.099 S 
ENDBRANCH  11  25
TORSDOF 3
