REMARK  Name = ZINC22853153
REMARK  5 active torsions:
REMARK  status: ('A' for Active; 'I' for Inactive)
REMARK    1  A    between atoms: C_1  and  C_2
REMARK    2  A    between atoms: C_2  and  C_3
REMARK    3  A    between atoms: C_9  and  C_11
REMARK    4  A    between atoms: C_11  and  C_13
REMARK    5  A    between atoms: C_11  and  N_18
REMARK                            x       y       z     vdW  Elec       q    Type
REMARK                         _______ _______ _______ _____ _____    ______ ____
ROOT
ATOM      1  C   UNL     1       5.247   2.833  -0.033  0.00  0.00    +0.012 C 
ENDROOT
BRANCH   1   8
ATOM      2  C   UNL     1       0.002  -0.004   0.002  0.00  0.00    +0.152 A 
ATOM      3  N   UNL     1      -0.016   1.327   0.009  0.00  0.00    -0.205 NA
ATOM      4  C   UNL     1       1.210   1.775   0.000  0.00  0.00    +0.199 A 
ATOM      5  N   UNL     1       2.079   0.728  -0.014  0.00  0.00    -0.170 N 
ATOM      6  N   UNL     1       1.241  -0.418  -0.012  0.00  0.00    -0.146 NA
ATOM      7  C   UNL     1       3.421   1.023  -0.025  0.00  0.00    +0.282 A 
ATOM      8  C   UNL     1       3.839   2.294  -0.022  0.00  0.00    +0.051 A 
ATOM      9  S   UNL     1       2.291   3.185  -0.003  0.00  0.00    -0.050 S 
ATOM     10  O   UNL     1       4.333   0.014  -0.040  0.00  0.00    -0.265 OA
BRANCH   2  12
ATOM     11  C   UNL     1      -1.640  -1.186  -1.432  0.00  0.00    +0.012 C 
ATOM     12  C   UNL     1      -1.215  -0.893   0.008  0.00  0.00    +0.075 C 
ENDBRANCH   2  12
ENDBRANCH   1   8
BRANCH   1  13
ATOM     13  N   UNL     1       5.345   3.928  -1.007  0.00  0.00    +0.388 N 
ATOM     14  C   UNL     1       4.913   3.486  -2.340  0.00  0.00    -0.077 C 
ATOM     15  C   UNL     1       4.890   4.684  -3.292  0.00  0.00    -0.019 C 
ATOM     16  C   UNL     1       6.290   5.299  -3.366  0.00  0.00    -0.004 C 
ATOM     17  C   UNL     1       6.736   5.705  -1.959  0.00  0.00    -0.019 C 
ATOM     18  C   UNL     1       6.705   4.478  -1.045  0.00  0.00    -0.077 C 
ATOM     19  H   UNL     1       4.667   4.731  -0.685  0.00  0.00    -0.080 HD
ENDBRANCH   1  13
BRANCH   1  20
ATOM     20  C   UNL     1       5.598   3.348   1.339  0.00  0.00    -0.019 A 
ATOM     21  C   UNL     1       6.318   2.748   2.318  0.00  0.00    +0.010 A 
ATOM     22  C   UNL     1       6.519   3.420   3.510  0.00  0.00    +0.008 A 
ATOM     23  C   UNL     1       5.980   4.653   3.668  0.00  0.00    +0.045 A 
ATOM     24  S   UNL     1       5.165   4.905   2.100  0.00  0.00    -0.103 S 
ENDBRANCH   1  20
TORSDOF 4
