REMARK  Name = ZINC38768620
REMARK  5 active torsions:
REMARK  status: ('A' for Active; 'I' for Inactive)
REMARK    1  A    between atoms: C_4  and  C_7
REMARK    2  A    between atoms: C_7  and  C_8
REMARK    3  A    between atoms: C_8  and  C_10
REMARK    4  A    between atoms: C_8  and  N_27
REMARK    5  A    between atoms: C_28  and  C_30
REMARK                            x       y       z     vdW  Elec       q    Type
REMARK                         _______ _______ _______ _____ _____    ______ ____
ROOT
ATOM      1  C   UNL     1       4.172  -0.963   1.398  0.00  0.00    +0.164 C 
ENDROOT
BRANCH   1   2
ATOM      2  C   UNL     1       5.351  -1.899   1.346  0.00  0.00    +0.236 C 
ATOM      3  O   UNL     1       6.397  -1.587   1.874  0.00  0.00    -0.274 OA
ATOM      4  N   UNL     1       5.243  -3.085   0.714  0.00  0.00    -0.300 N 
ATOM      5  C   UNL     1       4.022  -3.430  -0.027  0.00  0.00    +0.106 C 
ATOM      6  C   UNL     1       4.408  -3.827  -1.455  0.00  0.00    +0.009 C 
ATOM      7  C   UNL     1       5.452  -4.944  -1.405  0.00  0.00    -0.037 C 
ATOM      8  C   UNL     1       6.706  -4.449  -0.684  0.00  0.00    +0.009 C 
ATOM      9  C   UNL     1       6.347  -4.054   0.747  0.00  0.00    +0.106 C 
ATOM     10  C   UNL     1       5.812  -5.375  -2.828  0.00  0.00    +0.140 C 
ATOM     11  C   UNL     1       4.535  -5.972  -3.413  0.00  0.00    +0.042 C 
ATOM     12  N   UNL     1       4.297  -5.319  -4.483  0.00  0.00    -0.243 NA
ATOM     13  C   UNL     1       5.178  -4.304  -4.657  0.00  0.00    +0.216 C 
ATOM     14  N   UNL     1       6.095  -4.245  -3.714  0.00  0.00    -0.264 NA
ATOM     15  C   UNL     1       3.754  -7.030  -2.677  0.00  0.00    +0.034 C 
ATOM     16  C   UNL     1       3.599  -6.515  -1.233  0.00  0.00    -0.076 C 
ATOM     17  N   UNL     1       4.898  -6.106  -0.695  0.00  0.00    +0.385 N 
ATOM     18  H   UNL     1       5.544  -6.877  -0.775  0.00  0.00    -0.085 HD
ATOM     19  H   UNL     1       4.789  -5.871   0.281  0.00  0.00    -0.085 HD
ENDBRANCH   1   2
BRANCH   1  20
ATOM     20  N   UNL     1       4.276  -0.112   2.586  0.00  0.00    -0.300 N 
ATOM     21  C   UNL     1       3.166   0.426   3.129  0.00  0.00    +0.245 C 
ATOM     22  O   UNL     1       2.078   0.206   2.632  0.00  0.00    -0.270 OA
ATOM     23  H   UNL     1       5.144   0.064   2.982  0.00  0.00    +0.150 HD
BRANCH  21  24
ATOM     24  C   UNL     1       3.271   1.285   4.327  0.00  0.00    +0.039 A 
ATOM     25  C   UNL     1       4.519   1.545   4.896  0.00  0.00    +0.013 A 
ATOM     26  C   UNL     1       4.611   2.348   6.014  0.00  0.00    +0.004 A 
ATOM     27  C   UNL     1       3.470   2.896   6.574  0.00  0.00    +0.038 A 
ATOM     28  C   UNL     1       2.228   2.642   6.015  0.00  0.00    +0.124 A 
ATOM     29  C   UNL     1       2.123   1.844   4.891  0.00  0.00    +0.051 A 
ATOM     30  F   UNL     1       1.118   3.179   6.567  0.00  0.00    -0.205 F 
ENDBRANCH  21  24
ENDBRANCH   1  20
BRANCH   1  31
ATOM     31  C   UNL     1       4.160  -0.088   0.143  0.00  0.00    +0.067 C 
BRANCH  31  35
ATOM     32  C   UNL     1       0.611   2.289   0.095  0.00  0.00    +0.000 A 
ATOM     33  C   UNL     1       1.756   2.769   0.702  0.00  0.00    +0.000 A 
ATOM     34  C   UNL     1       2.905   2.000   0.718  0.00  0.00    +0.004 A 
ATOM     35  C   UNL     1       2.908   0.750   0.127  0.00  0.00    -0.045 A 
ATOM     36  C   UNL     1       1.762   0.270  -0.479  0.00  0.00    +0.004 A 
ATOM     37  C   UNL     1       0.614   1.040  -0.496  0.00  0.00    +0.000 A 
ENDBRANCH  31  35
ENDBRANCH   1  31
TORSDOF 5
