REMARK  Name = ZINC15859890
REMARK  5 active torsions:
REMARK  status: ('A' for Active; 'I' for Inactive)
REMARK    1  A    between atoms: C_3  and  C_6
REMARK    2  A    between atoms: C_6  and  C_8
REMARK    3  A    between atoms: C_6  and  N_49
REMARK    4  A    between atoms: C_8  and  N_9
REMARK    5  A    between atoms: C_10  and  C_12
REMARK                            x       y       z     vdW  Elec       q    Type
REMARK                         _______ _______ _______ _____ _____    ______ ____
ROOT
ATOM      1  N   UNL     1      -5.326  -3.440  -1.337  0.00  0.00    -0.310 N 
ATOM      2  C   UNL     1      -4.727  -4.621  -1.585  0.00  0.00    +0.279 C 
ATOM      3  O   UNL     1      -3.988  -5.113  -0.756  0.00  0.00    -0.267 OA
ATOM      4  H   UNL     1      -5.916  -3.046  -1.999  0.00  0.00    +0.149 HD
ENDROOT
BRANCH   2   5
ATOM      5  C   UNL     1      -4.968  -5.319  -2.870  0.00  0.00    +0.193 A 
ATOM      6  C   UNL     1      -4.352  -6.505  -3.092  0.00  0.00    +0.103 A 
ATOM      7  C   UNL     1      -4.591  -7.198  -4.367  0.00  0.00    +0.193 A 
ATOM      8  O   UNL     1      -4.064  -8.267  -4.620  0.00  0.00    -0.287 OA
ATOM      9  C   UNL     1      -5.500  -6.538  -5.324  0.00  0.00    +0.065 A 
ATOM     10  C   UNL     1      -5.792  -7.113  -6.560  0.00  0.00    +0.035 A 
ATOM     11  C   UNL     1      -6.645  -6.465  -7.427  0.00  0.00    +0.042 A 
ATOM     12  C   UNL     1      -7.212  -5.248  -7.070  0.00  0.00    +0.023 A 
ATOM     13  C   UNL     1      -6.931  -4.670  -5.852  0.00  0.00    +0.048 A 
ATOM     14  C   UNL     1      -6.071  -5.306  -4.962  0.00  0.00    +0.140 A 
ATOM     15  O   UNL     1      -5.788  -4.752  -3.767  0.00  0.00    -0.450 OA
ATOM     16 CL   UNL     1      -7.014  -7.173  -8.968  0.00  0.00    -0.084 Cl
ENDBRANCH   2   5
BRANCH   1  17
ATOM     17  C   UNL     1      -5.087  -2.750  -0.067  0.00  0.00    +0.097 C 
BRANCH  17  18
ATOM     18  C   UNL     1      -5.970  -1.502   0.010  0.00  0.00    +0.016 C 
BRANCH  18  24
ATOM     19  C   UNL     1      -4.336  -0.269  -1.282  0.00  0.00    -0.078 C 
ATOM     20  C   UNL     1      -4.110   0.471  -2.602  0.00  0.00    -0.019 C 
ATOM     21  C   UNL     1      -5.015   1.706  -2.650  0.00  0.00    -0.004 C 
ATOM     22  C   UNL     1      -6.473   1.266  -2.492  0.00  0.00    -0.019 C 
ATOM     23  C   UNL     1      -6.630   0.502  -1.175  0.00  0.00    -0.078 C 
ATOM     24  N   UNL     1      -5.752  -0.686  -1.202  0.00  0.00    +0.387 N 
ATOM     25  H   UNL     1      -5.980  -1.250  -2.029  0.00  0.00    -0.081 HD
ENDBRANCH  18  24
BRANCH  18  28
ATOM     26  C   UNL     1      -9.460  -2.409   0.774  0.00  0.00    +0.041 A 
ATOM     27  C   UNL     1      -8.174  -1.984   1.178  0.00  0.00    +0.043 A 
ATOM     28  C   UNL     1      -7.418  -1.915   0.067  0.00  0.00    +0.093 A 
ATOM     29  O   UNL     1      -8.172  -2.283  -0.982  0.00  0.00    -0.469 OA
ATOM     30  C   UNL     1      -9.411  -2.583  -0.559  0.00  0.00    +0.195 A 
ENDBRANCH  18  28
ENDBRANCH  17  18
ENDBRANCH   1  17
TORSDOF 5
