REMARK  Name = ZINC04151697
REMARK  15 active torsions:
REMARK  status: ('A' for Active; 'I' for Inactive)
REMARK    1  A    between atoms: C_1  and  C_2
REMARK    2  A    between atoms: C_2  and  C_3
REMARK    3  A    between atoms: C_2  and  C_4
REMARK    4  A    between atoms: C_4  and  C_6
REMARK    5  A    between atoms: C_4  and  N_10
REMARK    6  A    between atoms: C_6  and  O_8
REMARK    7  A    between atoms: O_8  and  C_9
REMARK    8  A    between atoms: C_11  and  C_13
REMARK    9  A    between atoms: C_16  and  N_32
REMARK   10  A    between atoms: N_23  and  C_24
REMARK   11  A    between atoms: C_28  and  S_30
REMARK   12  A    between atoms: S_30  and  C_31
REMARK   13  A    between atoms: C_33  and  C_35
REMARK   14  A    between atoms: C_35  and  S_36
REMARK   15  A    between atoms: S_36  and  C_37
REMARK                            x       y       z     vdW  Elec       q    Type
REMARK                         _______ _______ _______ _____ _____    ______ ____
ROOT
ATOM      1  C   UNL     1      -6.058   3.019   0.382  0.00  0.00    +0.165 C 
ATOM      2  C   UNL     1      -6.541   3.632  -0.931  0.00  0.00    +0.054 C 
ATOM      3  C   UNL     1      -6.676   5.147  -0.765  0.00  0.00    +0.077 C 
ATOM      4  C   UNL     1      -5.310   5.748  -0.423  0.00  0.00    +0.041 C 
ATOM      5  C   UNL     1      -4.814   5.159   0.901  0.00  0.00    +0.112 C 
ATOM      6  N   UNL     1      -4.820   3.693   0.798  0.00  0.00    -0.274 N 
ATOM      7  C   UNL     1      -3.710   2.981   1.074  0.00  0.00    +0.307 C 
ATOM      8  O   UNL     1      -2.628   3.534   1.117  0.00  0.00    -0.252 OA
ATOM      9  N   UNL     1      -3.799   1.656   1.302  0.00  0.00    -0.269 N 
ATOM     10  H   UNL     1      -4.668   1.227   1.340  0.00  0.00    +0.156 HD
ENDROOT
BRANCH   9  11
ATOM     11  C   UNL     1      -2.636   0.898   1.486  0.00  0.00    +0.036 A 
ATOM     12  C   UNL     1      -1.471   1.238   0.810  0.00  0.00    +0.023 A 
ATOM     13  C   UNL     1      -0.324   0.487   0.987  0.00  0.00    +0.003 A 
ATOM     14  C   UNL     1      -0.329  -0.597   1.843  0.00  0.00    +0.015 A 
ATOM     15  C   UNL     1      -1.490  -0.939   2.526  0.00  0.00    +0.009 A 
ATOM     16  C   UNL     1      -2.646  -0.190   2.346  0.00  0.00    +0.038 A 
BRANCH  15  17
ATOM     17  S   UNL     1      -1.496  -2.321   3.619  0.00  0.00    -0.129 S 
ATOM     18  C   UNL     1       0.198  -2.963   3.523  0.00  0.00    +0.090 C 
ENDBRANCH  15  17
ENDBRANCH   9  11
BRANCH   1  20
ATOM     19  N   UNL     1      -6.624   0.634   0.714  0.00  0.00    -0.301 N 
ATOM     20  C   UNL     1      -5.790   1.549   0.182  0.00  0.00    +0.234 C 
ATOM     21  O   UNL     1      -4.824   1.190  -0.456  0.00  0.00    -0.274 OA
ATOM     22  H   UNL     1      -7.397   0.921   1.225  0.00  0.00    +0.150 HD
BRANCH  19  23
ATOM     23  C   UNL     1      -6.364  -0.794   0.521  0.00  0.00    +0.184 C 
BRANCH  23  25
ATOM     24  C   UNL     1      -6.314  -0.450  -1.954  0.00  0.00    +0.009 C 
ATOM     25  C   UNL     1      -6.958  -1.245  -0.816  0.00  0.00    +0.014 C 
ATOM     26  C   UNL     1      -6.686  -2.737  -1.018  0.00  0.00    +0.009 C 
ENDBRANCH  23  25
BRANCH  23  27
ATOM     27  C   UNL     1      -6.998  -1.577   1.641  0.00  0.00    +0.328 C 
ATOM     28  O   UNL     1      -7.605  -1.001   2.513  0.00  0.00    -0.249 OA
BRANCH  27  29
ATOM     29  O   UNL     1      -6.889  -2.915   1.672  0.00  0.00    -0.467 OA
ATOM     30  C   UNL     1      -7.525  -3.603   2.781  0.00  0.00    +0.280 C 
ENDBRANCH  27  29
ENDBRANCH  23  27
ENDBRANCH  19  23
ENDBRANCH   1  20
BRANCH   3  31
ATOM     31  N   UNL     1      -7.621   5.437   0.316  0.00  0.00    -0.312 N 
ATOM     32  C   UNL     1      -8.285   6.610   0.334  0.00  0.00    +0.223 C 
ATOM     33  O   UNL     1      -8.101   7.425  -0.545  0.00  0.00    -0.275 OA
ATOM     34  H   UNL     1      -7.769   4.785   1.019  0.00  0.00    +0.149 HD
BRANCH  32  35
ATOM     35  C   UNL     1      -9.258   6.908   1.446  0.00  0.00    +0.164 C 
BRANCH  35  36
ATOM     36  S   UNL     1      -9.984   8.550   1.189  0.00  0.00    -0.155 S 
ATOM     37  C   UNL     1     -11.115   8.754   2.593  0.00  0.00    +0.085 C 
ENDBRANCH  35  36
ENDBRANCH  32  35
ENDBRANCH   3  31
TORSDOF 10
