REMARK  Name = ZINC24598199
REMARK  10 active torsions:
REMARK  status: ('A' for Active; 'I' for Inactive)
REMARK    1  A    between atoms: C_1  and  C_2
REMARK    2  A    between atoms: C_2  and  C_3
REMARK    3  A    between atoms: C_3  and  C_4
REMARK    4  A    between atoms: C_4  and  N_5
REMARK    5  A    between atoms: C_9  and  C_11
REMARK    6  A    between atoms: C_11  and  C_13
REMARK    7  A    between atoms: C_11  and  N_14
REMARK    8  A    between atoms: N_14  and  C_15
REMARK    9  A    between atoms: N_14  and  C_16
REMARK   10  A    between atoms: C_16  and  C_17
REMARK                            x       y       z     vdW  Elec       q    Type
REMARK                         _______ _______ _______ _____ _____    ______ ____
ROOT
ATOM      1  N   UNL     1       8.950   3.660   4.742  0.00  0.00    -0.299 N 
ATOM      2  C   UNL     1       7.698   3.264   4.438  0.00  0.00    +0.306 C 
ATOM      3  O   UNL     1       6.868   3.144   5.318  0.00  0.00    -0.252 OA
ATOM      4  N   UNL     1       7.367   3.001   3.159  0.00  0.00    -0.242 N 
ATOM      5  C   UNL     1       6.115   2.604   2.854  0.00  0.00    +0.207 C 
ATOM      6  O   UNL     1       5.287   2.485   3.732  0.00  0.00    -0.277 OA
ATOM      7  H   UNL     1       9.701   3.768   3.946  0.00  0.00    +0.150 HD
ATOM      8  H   UNL     1       8.118   3.109   2.362  0.00  0.00    +0.159 HD
ENDROOT
BRANCH   5   9
ATOM      9  C   UNL     1       5.744   2.310   1.424  0.00  0.00    +0.017 C 
ATOM     10  C   UNL     1       6.366   0.978   1.000  0.00  0.00    -0.004 C 
BRANCH   9  11
ATOM     11  N   UNL     1       4.283   2.229   1.303  0.00  0.00    +0.388 N 
ATOM     12  C   UNL     1       3.864   2.319  -0.102  0.00  0.00    -0.095 C 
ATOM     13  H   UNL     1       3.851   3.087   1.840  0.00  0.00    -0.081 HD
BRANCH  11  14
ATOM     14  C   UNL     1       3.770   1.002   1.927  0.00  0.00    -0.035 C 
BRANCH  14  15
ATOM     15  C   UNL     1       2.266   1.068   2.004  0.00  0.00    -0.026 A 
ATOM     16  C   UNL     1       1.347   0.652   1.100  0.00  0.00    +0.010 A 
ATOM     17  C   UNL     1       0.004   0.815   1.385  0.00  0.00    +0.023 A 
ATOM     18  C   UNL     1      -0.353   1.387   2.562  0.00  0.00    +0.055 A 
ATOM     19  S   UNL     1       1.235   1.715   3.310  0.00  0.00    -0.088 S 
ATOM     20 BR   UNL     1      -2.083   1.745   3.236  0.00  0.00    -0.043 Br
ENDBRANCH  14  15
ENDBRANCH  11  14
ENDBRANCH   9  11
ENDBRANCH   5   9
BRANCH   1  21
ATOM     21  C   UNL     1       9.310   3.946   6.133  0.00  0.00    +0.106 C 
BRANCH  21  22
ATOM     22  C   UNL     1      10.778   4.372   6.203  0.00  0.00    +0.018 C 
BRANCH  22  24
ATOM     23  C   UNL     1      12.622   5.097   7.725  0.00  0.00    +0.004 C 
ATOM     24  C   UNL     1      11.154   4.671   7.655  0.00  0.00    -0.002 C 
ENDBRANCH  22  24
ENDBRANCH  21  22
ENDBRANCH   1  21
TORSDOF 7
