REMARK  Name = ZINC39421914
REMARK  9 active torsions:
REMARK  status: ('A' for Active; 'I' for Inactive)
REMARK    1  A    between atoms: C_1  and  C_2
REMARK    2  A    between atoms: C_2  and  C_3
REMARK    3  A    between atoms: C_8  and  C_12
REMARK    4  A    between atoms: C_12  and  C_14
REMARK    5  A    between atoms: C_14  and  C_16
REMARK    6  A    between atoms: C_14  and  S_22
REMARK    7  A    between atoms: S_22  and  C_23
REMARK    8  A    between atoms: C_27  and  C_31
REMARK    9  A    between atoms: N_29  and  C_30
REMARK                            x       y       z     vdW  Elec       q    Type
REMARK                         _______ _______ _______ _____ _____    ______ ____
ROOT
ATOM      1  C   UNL     1       6.635  -1.712  -2.891  0.00  0.00    +0.147 C 
ENDROOT
BRANCH   1   2
ATOM      2  C   UNL     1       7.083  -3.007  -2.265  0.00  0.00    -0.027 A 
ATOM      3  C   UNL     1       7.005  -4.185  -2.984  0.00  0.00    +0.005 A 
ATOM      4  C   UNL     1       7.416  -5.374  -2.410  0.00  0.00    +0.000 A 
ATOM      5  C   UNL     1       7.905  -5.384  -1.117  0.00  0.00    +0.000 A 
ATOM      6  C   UNL     1       7.984  -4.206  -0.399  0.00  0.00    +0.000 A 
ATOM      7  C   UNL     1       7.577  -3.017  -0.974  0.00  0.00    +0.005 A 
ENDBRANCH   1   2
BRANCH   1   8
ATOM      8  C   UNL     1       5.177  -1.810  -3.261  0.00  0.00    +0.179 C 
ATOM      9  O   UNL     1       4.858  -2.129  -4.389  0.00  0.00    -0.291 OA
BRANCH   8  15
ATOM     10  C   UNL     1       0.690  -1.193  -1.155  0.00  0.00    -0.024 A 
ATOM     11  C   UNL     1       0.002  -1.508  -2.274  0.00  0.00    +0.005 A 
ATOM     12  C   UNL     1       0.648  -1.851  -3.473  0.00  0.00    +0.001 A 
ATOM     13  C   UNL     1       1.995  -1.888  -3.586  0.00  0.00    +0.010 A 
ATOM     14  C   UNL     1       2.813  -1.576  -2.474  0.00  0.00    +0.006 A 
ATOM     15  C   UNL     1       4.184  -1.532  -2.299  0.00  0.00    +0.025 C 
ATOM     16  C   UNL     1       4.396  -1.124  -0.857  0.00  0.00    +0.152 C 
ATOM     17  N   UNL     1       3.058  -0.955  -0.282  0.00  0.00    -0.380 N 
ATOM     18  C   UNL     1       2.162  -1.204  -1.194  0.00  0.00    +0.046 A 
ATOM     19  H   UNL     1       2.869  -0.695   0.633  0.00  0.00    +0.160 HD
BRANCH  10  21
ATOM     20  C   UNL     1      -0.176   0.691   0.205  0.00  0.00    +0.009 C 
ATOM     21  C   UNL     1      -0.038  -0.830   0.113  0.00  0.00    +0.034 C 
ENDBRANCH  10  21
ENDBRANCH   8  15
ENDBRANCH   1   8
BRANCH   1  22
ATOM     22  S   UNL     1       7.617  -1.388  -4.381  0.00  0.00    -0.144 S 
BRANCH  22  23
ATOM     23  C   UNL     1       9.290  -1.091  -3.748  0.00  0.00    +0.078 C 
ATOM     24  N   UNL     1       9.431   0.309  -3.267  0.00  0.00    -0.262 NA
ATOM     25  N   UNL     1      10.868   0.583  -3.352  0.00  0.00    -0.267 NA
ATOM     26  C   UNL     1      11.423  -0.346  -4.356  0.00  0.00    +0.050 C 
ATOM     27  N   UNL     1      10.291  -1.169  -4.845  0.00  0.00    +0.409 N 
ATOM     28  C   UNL     1      10.714  -2.560  -5.057  0.00  0.00    -0.090 C 
ATOM     29  H   UNL     1       8.906   0.945  -3.849  0.00  0.00    +0.140 HD
ATOM     30  H   UNL     1      11.038   1.543  -3.614  0.00  0.00    +0.139 HD
ATOM     31  H   UNL     1       9.913  -0.779  -5.696  0.00  0.00    -0.076 HD
BRANCH  26  32
ATOM     32  C   UNL     1      12.033   0.429  -5.495  0.00  0.00    -0.028 A 
ATOM     33  C   UNL     1      12.612   1.669  -5.271  0.00  0.00    +0.006 A 
ATOM     34  C   UNL     1      13.160   2.346  -6.349  0.00  0.00    +0.020 A 
ATOM     35  C   UNL     1      13.112   1.767  -7.603  0.00  0.00    +0.111 A 
ATOM     36  N   UNL     1      12.552   0.586  -7.780  0.00  0.00    -0.263 NA
ATOM     37  C   UNL     1      12.026  -0.089  -6.777  0.00  0.00    +0.114 A 
ENDBRANCH  26  32
ENDBRANCH  22  23
ENDBRANCH   1  22
TORSDOF 7
