REMARK  Name = ZINC06643714
REMARK  8 active torsions:
REMARK  status: ('A' for Active; 'I' for Inactive)
REMARK    1  A    between atoms: C_1  and  C_2
REMARK    2  A    between atoms: C_8  and  N_10
REMARK    3  A    between atoms: C_11  and  C_13
REMARK    4  A    between atoms: C_13  and  C_15
REMARK    5  A    between atoms: C_13  and  O_16
REMARK    6  A    between atoms: O_16  and  C_17
REMARK    7  A    between atoms: C_17  and  C_19
REMARK    8  A    between atoms: C_24  and  O_25
REMARK                            x       y       z     vdW  Elec       q    Type
REMARK                         _______ _______ _______ _____ _____    ______ ____
ROOT
ATOM      1  C   UNL     1       4.934  -1.063   1.125  0.00  0.00    +0.259 C 
ATOM      2  C   UNL     1       4.544  -2.518   1.393  0.00  0.00    +0.062 C 
ENDROOT
BRANCH   1   4
ATOM      3  N   UNL     1       2.862  -0.453  -0.081  0.00  0.00    -0.309 N 
ATOM      4  C   UNL     1       4.205  -0.564  -0.096  0.00  0.00    +0.254 C 
ATOM      5  O   UNL     1       4.827  -0.261  -1.092  0.00  0.00    -0.272 OA
ATOM      6  H   UNL     1       2.365  -0.695   0.716  0.00  0.00    +0.149 HD
BRANCH   3  13
ATOM      7  C   UNL     1       0.739  -2.027  -1.265  0.00  0.00    +0.009 C 
ATOM      8  C   UNL     1       0.718  -0.497  -1.257  0.00  0.00    +0.006 C 
ATOM      9  C   UNL     1       0.002  -0.004   0.002  0.00  0.00    +0.005 C 
ATOM     10  C   UNL     1      -0.019   1.526   0.010  0.00  0.00    +0.000 C 
ATOM     11  C   UNL     1       1.417   2.055  -0.000  0.00  0.00    +0.002 C 
ATOM     12  C   UNL     1       2.133   1.562  -1.259  0.00  0.00    +0.022 C 
ATOM     13  C   UNL     1       2.154   0.032  -1.268  0.00  0.00    +0.076 C 
ENDBRANCH   3  13
ENDBRANCH   1   4
BRANCH   1  14
ATOM     14  O   UNL     1       6.366  -0.979   0.901  0.00  0.00    -0.449 OA
BRANCH  14  15
ATOM     15  C   UNL     1       7.144  -0.774   1.983  0.00  0.00    +0.343 C 
ATOM     16  O   UNL     1       6.638  -0.668   3.083  0.00  0.00    -0.245 OA
BRANCH  15  17
ATOM     17  C   UNL     1       8.607  -0.679   1.832  0.00  0.00    +0.101 A 
ATOM     18  C   UNL     1       9.193  -0.806   0.570  0.00  0.00    +0.034 A 
ATOM     19  C   UNL     1      10.561  -0.710   0.435  0.00  0.00    +0.019 A 
ATOM     20  C   UNL     1      11.360  -0.499   1.548  0.00  0.00    +0.019 A 
ATOM     21  C   UNL     1      10.794  -0.378   2.801  0.00  0.00    +0.047 A 
ATOM     22  C   UNL     1       9.419  -0.466   2.955  0.00  0.00    +0.131 A 
ATOM     23 BR   UNL     1      11.352  -0.875  -1.275  0.00  0.00    -0.050 Br
BRANCH  22  24
ATOM     24  O   UNL     1       8.862  -0.347   4.186  0.00  0.00    -0.506 OA
ATOM     25  H   UNL     1       8.770  -1.185   4.658  0.00  0.00    +0.292 HD
ENDBRANCH  22  24
ENDBRANCH  15  17
ENDBRANCH  14  15
ENDBRANCH   1  14
TORSDOF 6
