REMARK  Name = ZINC63827706
REMARK  8 active torsions:
REMARK  status: ('A' for Active; 'I' for Inactive)
REMARK    1  A    between atoms: C_1  and  N_2
REMARK    2  A    between atoms: C_3  and  C_5
REMARK    3  A    between atoms: C_16  and  C_18
REMARK    4  A    between atoms: C_18  and  C_19
REMARK    5  A    between atoms: C_19  and  C_20
REMARK    6  A    between atoms: C_28  and  C_30
REMARK    7  A    between atoms: C_33  and  O_36
REMARK    8  A    between atoms: O_36  and  C_37
REMARK                            x       y       z     vdW  Elec       q    Type
REMARK                         _______ _______ _______ _____ _____    ______ ____
ROOT
ATOM      1  C   UNL     1       1.033  -7.022   2.430  0.00  0.00    +0.043 C 
ENDROOT
BRANCH   1   2
ATOM      2  C   UNL     1       1.077  -8.525   2.330  0.00  0.00    -0.034 C 
ATOM      3  C   UNL     1       1.216  -9.261   1.205  0.00  0.00    -0.000 A 
ATOM      4  C   UNL     1       1.362  -8.898  -0.210  0.00  0.00    +0.010 A 
ATOM      5  C   UNL     1       1.484  -9.881  -1.131  0.00  0.00    +0.001 A 
ATOM      6  C   UNL     1       1.474 -11.235  -0.769  0.00  0.00    +0.002 A 
ATOM      7  C   UNL     1       1.343 -11.647   0.509  0.00  0.00    +0.026 A 
ATOM      8  C   UNL     1       1.208 -10.698   1.560  0.00  0.00    +0.043 A 
ATOM      9  N   UNL     1       1.070 -10.845   2.856  0.00  0.00    -0.374 N 
ATOM     10  C   UNL     1       0.980  -9.515   3.470  0.00  0.00    +0.137 C 
ATOM     11  H   UNL     1       1.036 -11.690   3.330  0.00  0.00    +0.161 HD
BRANCH  10  12
ATOM     12  C   UNL     1      -0.341  -9.362   4.179  0.00  0.00    -0.021 A 
ATOM     13  C   UNL     1      -1.481  -9.936   3.647  0.00  0.00    +0.009 A 
ATOM     14  C   UNL     1      -2.693  -9.797   4.296  0.00  0.00    +0.046 A 
ATOM     15  C   UNL     1      -2.765  -9.081   5.482  0.00  0.00    +0.120 A 
ATOM     16  C   UNL     1      -1.620  -8.507   6.014  0.00  0.00    +0.046 A 
ATOM     17  C   UNL     1      -0.409  -8.653   5.365  0.00  0.00    +0.009 A 
BRANCH  15  18
ATOM     18  O   UNL     1      -3.956  -8.943   6.122  0.00  0.00    -0.495 OA
ATOM     19  C   UNL     1      -3.956  -8.193   7.339  0.00  0.00    +0.277 C 
ENDBRANCH  15  18
ENDBRANCH  10  12
ENDBRANCH   1   2
BRANCH   1  20
ATOM     20  C   UNL     1       1.292  -6.412   1.051  0.00  0.00    +0.101 C 
BRANCH  20  31
ATOM     21  C   UNL     1       2.739  -3.939  -2.007  0.00  0.00    +0.276 C 
ATOM     22  C   UNL     1       1.678  -4.762  -1.261  0.00  0.00    +0.168 C 
ATOM     23  N   UNL     1       1.493  -4.151   0.066  0.00  0.00    -0.264 N 
ATOM     24  C   UNL     1       1.448  -2.748   0.139  0.00  0.00    +0.078 A 
ATOM     25  C   UNL     1       0.997  -2.127   1.293  0.00  0.00    +0.027 A 
ATOM     26  C   UNL     1       0.957  -0.747   1.361  0.00  0.00    +0.002 A 
ATOM     27  C   UNL     1       1.367   0.012   0.280  0.00  0.00    +0.004 A 
ATOM     28  C   UNL     1       1.817  -0.603  -0.873  0.00  0.00    +0.047 A 
ATOM     29  C   UNL     1       1.858  -1.987  -0.951  0.00  0.00    +0.143 A 
ATOM     30  O   UNL     1       2.297  -2.582  -2.092  0.00  0.00    -0.476 OA
ATOM     31  C   UNL     1       1.372  -4.912   1.173  0.00  0.00    +0.220 C 
ATOM     32  O   UNL     1       1.326  -4.388   2.266  0.00  0.00    -0.275 OA
BRANCH  21  35
ATOM     33  C   UNL     1       3.617  -6.277  -4.908  0.00  0.00    +0.128 C 
ATOM     34  N   UNL     1       3.433  -5.735  -3.559  0.00  0.00    -0.315 N 
ATOM     35  C   UNL     1       2.928  -4.497  -3.394  0.00  0.00    +0.255 C 
ATOM     36  O   UNL     1       2.625  -3.831  -4.362  0.00  0.00    -0.272 OA
ATOM     37  H   UNL     1       3.676  -6.267  -2.785  0.00  0.00    +0.148 HD
ENDBRANCH  21  35
ENDBRANCH  20  31
ENDBRANCH   1  20
TORSDOF 6
