REMARK  Name = ZINC66187928
REMARK  9 active torsions:
REMARK  status: ('A' for Active; 'I' for Inactive)
REMARK    1  A    between atoms: C_1  and  C_2
REMARK    2  A    between atoms: C_2  and  C_3
REMARK    3  A    between atoms: C_3  and  N_4
REMARK    4  A    between atoms: C_7  and  C_10
REMARK    5  A    between atoms: C_10  and  N_11
REMARK    6  A    between atoms: N_14  and  C_15
REMARK    7  A    between atoms: N_14  and  C_16
REMARK    8  A    between atoms: N_19  and  C_22
REMARK    9  A    between atoms: C_25  and  C_28
REMARK                            x       y       z     vdW  Elec       q    Type
REMARK                         _______ _______ _______ _____ _____    ______ ____
ROOT
ATOM      1  N   UNL     1      -4.135  -5.420  -1.944  0.00  0.00    -0.299 N 
ATOM      2  C   UNL     1      -4.831  -6.571  -1.858  0.00  0.00    +0.302 C 
ATOM      3  O   UNL     1      -5.245  -6.952  -0.780  0.00  0.00    -0.253 OA
ATOM      4  N   UNL     1      -5.068  -7.300  -2.966  0.00  0.00    -0.286 N 
ATOM      5  C   UNL     1      -4.569  -6.842  -4.265  0.00  0.00    +0.134 C 
ATOM      6  H   UNL     1      -3.805  -5.116  -2.804  0.00  0.00    +0.150 HD
ENDROOT
BRANCH   4   7
ATOM      7  C   UNL     1      -5.824  -8.551  -2.873  0.00  0.00    +0.074 C 
ATOM      8  C   UNL     1      -4.960  -9.711  -3.374  0.00  0.00    +0.004 C 
ATOM      9  C   UNL     1      -5.782 -11.002  -3.348  0.00  0.00    -0.077 C 
ATOM     10  N   UNL     1      -6.957 -10.855  -4.215  0.00  0.00    +0.382 N 
ATOM     11  C   UNL     1      -7.827  -9.791  -3.699  0.00  0.00    -0.077 C 
ATOM     12  C   UNL     1      -7.084  -8.455  -3.739  0.00  0.00    +0.004 C 
ATOM     13  H   UNL     1      -6.657 -10.619  -5.149  0.00  0.00    -0.081 HD
BRANCH  10  14
ATOM     14  C   UNL     1      -7.701 -12.121  -4.248  0.00  0.00    -0.069 C 
ATOM     15  C   UNL     1      -6.798 -13.229  -4.795  0.00  0.00    -0.015 C 
ATOM     16  C   UNL     1      -7.572 -14.548  -4.830  0.00  0.00    +0.002 C 
ATOM     17  C   UNL     1      -8.798 -14.396  -5.733  0.00  0.00    -0.014 C 
ATOM     18  C   UNL     1      -9.701 -13.289  -5.186  0.00  0.00    +0.002 C 
ATOM     19  C   UNL     1      -8.926 -11.970  -5.152  0.00  0.00    -0.015 C 
ATOM     20  C   UNL     1      -8.346 -14.033  -7.149  0.00  0.00    +0.007 C 
ENDBRANCH  10  14
ENDBRANCH   4   7
BRANCH   1  21
ATOM     21  C   UNL     1      -3.878  -4.628  -0.739  0.00  0.00    +0.107 C 
BRANCH  21  25
ATOM     22  N   UNL     1      -1.413  -2.002   0.005  0.00  0.00    +0.380 N 
ATOM     23  C   UNL     1      -0.850  -2.485  -1.274  0.00  0.00    -0.079 C 
ATOM     24  C   UNL     1      -1.655  -3.767  -1.602  0.00  0.00    -0.016 C 
ATOM     25  C   UNL     1      -3.075  -3.380  -1.112  0.00  0.00    -0.012 C 
ATOM     26  C   UNL     1      -2.788  -2.518   0.136  0.00  0.00    -0.074 C 
ATOM     27  H   UNL     1      -0.850  -2.339   0.771  0.00  0.00    -0.082 HD
BRANCH  22  28
ATOM     28  C   UNL     1      -1.433  -0.534   0.013  0.00  0.00    -0.079 C 
BRANCH  28  30
ATOM     29  C   UNL     1      -0.019   1.526   0.010  0.00  0.00    +0.002 C 
ATOM     30  C   UNL     1       0.002  -0.004   0.002  0.00  0.00    -0.022 C 
ENDBRANCH  28  30
ENDBRANCH  22  28
ENDBRANCH  21  25
ENDBRANCH   1  21
TORSDOF 6
