REMARK  Name = ZINC49372619
REMARK  4 active torsions:
REMARK  status: ('A' for Active; 'I' for Inactive)
REMARK    1  A    between atoms: C_4  and  N_7
REMARK    2  A    between atoms: C_10  and  S_12
REMARK    3  A    between atoms: S_12  and  C_13
REMARK    4  A    between atoms: C_13  and  C_14
REMARK                            x       y       z     vdW  Elec       q    Type
REMARK                         _______ _______ _______ _____ _____    ______ ____
ROOT
ATOM      1  N   UNL     1       3.623  -0.652  -0.037  0.00  0.00    -0.219 N 
ATOM      2  C   UNL     1       3.802  -1.986  -0.052  0.00  0.00    +0.226 A 
ATOM      3  N   UNL     1       5.088  -2.226  -0.065  0.00  0.00    -0.209 NA
ATOM      4  C   UNL     1       5.764  -1.072  -0.059  0.00  0.00    +0.209 A 
ATOM      5  N   UNL     1       4.905  -0.079  -0.048  0.00  0.00    -0.138 NA
ENDROOT
BRANCH   1   9
ATOM      6  C   UNL     1      -0.017   1.379   0.010  0.00  0.00    +0.000 A 
ATOM      7  C   UNL     1       1.170   2.089   0.002  0.00  0.00    +0.002 A 
ATOM      8  C   UNL     1       2.377   1.419  -0.013  0.00  0.00    +0.028 A 
ATOM      9  C   UNL     1       2.400   0.031  -0.021  0.00  0.00    +0.067 A 
ATOM     10  C   UNL     1       1.207  -0.680  -0.013  0.00  0.00    +0.028 A 
ATOM     11  C   UNL     1       0.002  -0.004   0.002  0.00  0.00    +0.002 A 
ENDBRANCH   1   9
BRANCH   4  12
ATOM     12  S   UNL     1       7.518  -0.911  -0.071  0.00  0.00    -0.079 S 
BRANCH  12  13
ATOM     13  C   UNL     1       8.116  -2.624  -0.093  0.00  0.00    +0.119 C 
BRANCH  13  14
ATOM     14  C   UNL     1       9.623  -2.630  -0.104  0.00  0.00    +0.001 A 
ATOM     15  C   UNL     1      10.485  -2.649   0.942  0.00  0.00    +0.013 A 
ATOM     16  C   UNL     1      11.844  -2.650   0.691  0.00  0.00    +0.023 A 
ATOM     17  C   UNL     1      12.275  -2.633  -0.595  0.00  0.00    +0.055 A 
ATOM     18  S   UNL     1      10.736  -2.621  -1.500  0.00  0.00    -0.086 S 
ATOM     19 BR   UNL     1      14.046  -2.629  -1.257  0.00  0.00    -0.043 Br
ENDBRANCH  13  14
ENDBRANCH  12  13
ENDBRANCH   4  12
TORSDOF 4
