REMARK  Name = ZINC03437230
REMARK  8 active torsions:
REMARK  status: ('A' for Active; 'I' for Inactive)
REMARK    1  A    between atoms: C_1  and  C_2
REMARK    2  A    between atoms: C_2  and  C_3
REMARK    3  A    between atoms: C_2  and  C_4
REMARK    4  A    between atoms: C_2  and  C_5
REMARK    5  A    between atoms: C_8  and  C_11
REMARK    6  A    between atoms: C_14  and  C_16
REMARK    7  A    between atoms: C_16  and  S_17
REMARK    8  A    between atoms: S_17  and  C_18
REMARK                            x       y       z     vdW  Elec       q    Type
REMARK                         _______ _______ _______ _____ _____    ______ ____
ROOT
ATOM      1  C   UNL     1       1.250  -2.160  -0.021  0.00  0.00    +0.250 C 
ATOM      2  O   UNL     1       0.209  -2.787  -0.014  0.00  0.00    -0.270 OA
ATOM      3  N   UNL     1       2.430  -2.811  -0.036  0.00  0.00    -0.252 N 
ATOM      4  C   UNL     1       2.455  -4.159  -0.043  0.00  0.00    +0.230 C 
ATOM      5  O   UNL     1       1.417  -4.785  -0.036  0.00  0.00    -0.274 OA
ATOM      6  H   UNL     1       3.260  -2.311  -0.041  0.00  0.00    +0.158 HD
ENDROOT
BRANCH   1  10
ATOM      7  C   UNL     1       1.170   2.086   0.002  0.00  0.00    -0.042 A 
ATOM      8  C   UNL     1      -0.017   1.375   0.010  0.00  0.00    +0.005 A 
ATOM      9  C   UNL     1       0.002  -0.004   0.002  0.00  0.00    +0.013 A 
ATOM     10  C   UNL     1       1.222  -0.682  -0.013  0.00  0.00    +0.037 A 
ATOM     11  C   UNL     1       2.416   0.042  -0.021  0.00  0.00    +0.013 A 
ATOM     12  C   UNL     1       2.383   1.421  -0.013  0.00  0.00    +0.005 A 
BRANCH   7  14
ATOM     13  C   UNL     1       0.423   4.083   1.268  0.00  0.00    +0.015 C 
ATOM     14  C   UNL     1       1.142   3.593   0.010  0.00  0.00    -0.013 C 
ATOM     15  C   UNL     1       2.575   4.130  -0.001  0.00  0.00    +0.015 C 
ATOM     16  C   UNL     1       0.400   4.096  -1.230  0.00  0.00    +0.015 C 
ENDBRANCH   7  14
ENDBRANCH   1  10
BRANCH   4  17
ATOM     17  C   UNL     1       3.774  -4.888  -0.059  0.00  0.00    +0.172 C 
BRANCH  17  18
ATOM     18  S   UNL     1       3.477  -6.673  -0.065  0.00  0.00    -0.089 S 
BRANCH  18  19
ATOM     19  C   UNL     1       5.138  -7.260  -0.084  0.00  0.00    +0.136 A 
ATOM     20  N   UNL     1       5.575  -8.500  -0.095  0.00  0.00    -0.233 NA
ATOM     21  C   UNL     1       6.891  -8.805  -0.110  0.00  0.00    +0.079 A 
ATOM     22  C   UNL     1       7.489 -10.086  -0.123  0.00  0.00    +0.029 A 
ATOM     23  C   UNL     1       8.853 -10.221  -0.138  0.00  0.00    +0.002 A 
ATOM     24  C   UNL     1       9.691  -9.116  -0.141  0.00  0.00    +0.001 A 
ATOM     25  C   UNL     1       9.140  -7.848  -0.129  0.00  0.00    +0.017 A 
ATOM     26  C   UNL     1       7.775  -7.702  -0.114  0.00  0.00    +0.040 A 
ATOM     27  S   UNL     1       6.659  -6.320  -0.102  0.00  0.00    -0.061 S 
ENDBRANCH  18  19
ENDBRANCH  17  18
ENDBRANCH   4  17
TORSDOF 5
