REMARK  Name = ZINC15223453
REMARK  7 active torsions:
REMARK  status: ('A' for Active; 'I' for Inactive)
REMARK    1  A    between atoms: C_1  and  C_2
REMARK    2  A    between atoms: C_2  and  C_3
REMARK    3  A    between atoms: C_6  and  N_9
REMARK    4  A    between atoms: C_10  and  C_12
REMARK    5  A    between atoms: C_12  and  C_25
REMARK    6  A    between atoms: C_13  and  C_14
REMARK    7  A    between atoms: C_23  and  O_24
REMARK                            x       y       z     vdW  Elec       q    Type
REMARK                         _______ _______ _______ _____ _____    ______ ____
ROOT
ATOM      1  C   UNL     1      -3.443  -0.446  -0.938  0.00  0.00    +0.114 C 
ATOM      2  C   UNL     1      -2.470  -0.087  -0.023  0.00  0.00    +0.036 C 
ENDROOT
BRANCH   2   3
ATOM      3  C   UNL     1      -1.171  -0.635  -0.122  0.00  0.00    +0.025 A 
ATOM      4  C   UNL     1      -0.624  -1.466   0.954  0.00  0.00    -0.007 A 
ATOM      5  C   UNL     1      -1.362  -1.745   2.108  0.00  0.00    +0.009 A 
ATOM      6  C   UNL     1      -0.817  -2.523   3.087  0.00  0.00    +0.001 A 
ATOM      7  C   UNL     1       0.467  -3.044   2.953  0.00  0.00    +0.001 A 
ATOM      8  C   UNL     1       1.213  -2.792   1.840  0.00  0.00    +0.008 A 
ATOM      9  C   UNL     1       0.681  -1.994   0.813  0.00  0.00    -0.017 A 
ATOM     10  C   UNL     1       1.424  -1.712  -0.349  0.00  0.00    +0.012 A 
ATOM     11  C   UNL     1       0.904  -0.941  -1.339  0.00  0.00    +0.046 A 
ATOM     12  C   UNL     1      -0.376  -0.396  -1.252  0.00  0.00    +0.125 A 
BRANCH  12  13
ATOM     13  O   UNL     1      -0.854   0.369  -2.263  0.00  0.00    -0.506 OA
ATOM     14  H   UNL     1      -0.595   1.299  -2.210  0.00  0.00    +0.292 HD
ENDBRANCH  12  13
ENDBRANCH   2   3
BRANCH   1  16
ATOM     15  N   UNL     1      -4.118  -1.846  -2.819  0.00  0.00    -0.281 N 
ATOM     16  C   UNL     1      -3.174  -1.504  -1.920  0.00  0.00    +0.259 C 
ATOM     17  O   UNL     1      -2.098  -2.073  -1.922  0.00  0.00    -0.269 OA
ATOM     18  H   UNL     1      -4.949  -1.346  -2.864  0.00  0.00    +0.155 HD
BRANCH  15  22
ATOM     19  C   UNL     1      -3.472  -5.048  -5.404  0.00  0.00    -0.048 A 
ATOM     20  C   UNL     1      -2.961  -5.084  -4.119  0.00  0.00    +0.005 A 
ATOM     21  C   UNL     1      -3.174  -4.024  -3.260  0.00  0.00    +0.023 A 
ATOM     22  C   UNL     1      -3.901  -2.921  -3.687  0.00  0.00    +0.034 A 
ATOM     23  C   UNL     1      -4.418  -2.890  -4.976  0.00  0.00    +0.023 A 
ATOM     24  C   UNL     1      -4.197  -3.950  -5.832  0.00  0.00    +0.005 A 
BRANCH  19  26
ATOM     25  C   UNL     1      -4.373  -7.220  -6.190  0.00  0.00    +0.009 C 
ATOM     26  C   UNL     1      -3.237  -6.205  -6.339  0.00  0.00    +0.032 C 
ENDBRANCH  19  26
ENDBRANCH  15  22
ENDBRANCH   1  16
BRANCH   1  27
ATOM     27  C   UNL     1      -4.714   0.215  -0.928  0.00  0.00    +0.104 C 
ATOM     28  N   UNL     1      -5.721   0.740  -0.920  0.00  0.00    -0.191 NA
ENDBRANCH   1  27
TORSDOF 6
