REMARK  Name = ZINC10040994
REMARK  12 active torsions:
REMARK  status: ('A' for Active; 'I' for Inactive)
REMARK    1  A    between atoms: C_1  and  C_2
REMARK    2  A    between atoms: C_2  and  O_3
REMARK    3  A    between atoms: O_3  and  C_4
REMARK    4  A    between atoms: C_6  and  C_12
REMARK    5  A    between atoms: C_9  and  O_10
REMARK    6  A    between atoms: N_13  and  N_14
REMARK    7  A    between atoms: C_15  and  C_17
REMARK    8  A    between atoms: C_17  and  C_19
REMARK    9  A    between atoms: C_17  and  N_22
REMARK   10  A    between atoms: C_19  and  C_20
REMARK   11  A    between atoms: C_19  and  C_21
REMARK   12  A    between atoms: C_23  and  C_25
REMARK                            x       y       z     vdW  Elec       q    Type
REMARK                         _______ _______ _______ _____ _____    ______ ____
ROOT
ATOM      1  N   UNL     1       5.111   1.448  -0.333  0.00  0.00    -0.205 N 
ATOM      2  C   UNL     1       3.834   1.879  -0.299  0.00  0.00    +0.253 C 
ATOM      3  O   UNL     1       3.549   2.966  -0.756  0.00  0.00    -0.272 OA
ATOM      4  H   UNL     1       5.352   0.612   0.097  0.00  0.00    +0.177 HD
ENDROOT
BRANCH   1   6
ATOM      5  C   UNL     1       7.319   1.791  -1.021  0.00  0.00    +0.138 C 
ATOM      6  N   UNL     1       6.089   2.206  -0.988  0.00  0.00    -0.188 NA
BRANCH   5   9
ATOM      7  C   UNL     1      10.634   2.897  -2.394  0.00  0.00    +0.164 A 
ATOM      8  C   UNL     1       9.673   2.147  -1.742  0.00  0.00    +0.059 A 
ATOM      9  C   UNL     1       8.348   2.590  -1.710  0.00  0.00    -0.000 A 
ATOM     10  C   UNL     1       8.003   3.794  -2.329  0.00  0.00    +0.033 A 
ATOM     11  C   UNL     1       8.968   4.539  -2.974  0.00  0.00    +0.087 A 
ATOM     12  C   UNL     1      10.283   4.096  -3.010  0.00  0.00    +0.177 A 
ATOM     13 CL   UNL     1       8.537   6.035  -3.744  0.00  0.00    -0.080 Cl
BRANCH  12  14
ATOM     14  O   UNL     1      11.231   4.834  -3.647  0.00  0.00    -0.502 OA
ATOM     15  H   UNL     1      11.672   5.482  -3.080  0.00  0.00    +0.292 HD
ENDBRANCH  12  14
BRANCH   7  16
ATOM     16  O   UNL     1      11.924   2.466  -2.431  0.00  0.00    -0.489 OA
BRANCH  16  18
ATOM     17  C   UNL     1      13.702   0.909  -1.925  0.00  0.00    +0.048 C 
ATOM     18  C   UNL     1      12.212   1.227  -1.779  0.00  0.00    +0.226 C 
ENDBRANCH  16  18
ENDBRANCH   7  16
ENDBRANCH   5   9
ENDBRANCH   1   6
BRANCH   2  19
ATOM     19  C   UNL     1       2.762   1.010   0.306  0.00  0.00    +0.163 C 
BRANCH  19  20
ATOM     20  N   UNL     1       1.447   1.468  -0.151  0.00  0.00    -0.300 N 
ATOM     21  C   UNL     1       0.408   0.610  -0.181  0.00  0.00    +0.246 C 
ATOM     22  O   UNL     1       0.561  -0.543   0.171  0.00  0.00    -0.270 OA
ATOM     23  H   UNL     1       1.325   2.388  -0.433  0.00  0.00    +0.150 HD
BRANCH  21  24
ATOM     24  C   UNL     1      -0.916   1.070  -0.648  0.00  0.00    +0.055 A 
ATOM     25  C   UNL     1      -1.097   2.396  -1.049  0.00  0.00    +0.014 A 
ATOM     26  C   UNL     1      -2.334   2.817  -1.489  0.00  0.00    +0.001 A 
ATOM     27  C   UNL     1      -3.399   1.933  -1.524  0.00  0.00    +0.001 A 
ATOM     28  C   UNL     1      -3.229   0.620  -1.124  0.00  0.00    +0.021 A 
ATOM     29  C   UNL     1      -1.994   0.182  -0.686  0.00  0.00    +0.053 A 
ATOM     30 CL   UNL     1      -1.783  -1.466  -0.183  0.00  0.00    -0.083 Cl
ENDBRANCH  21  24
ENDBRANCH  19  20
BRANCH  19  31
ATOM     31  C   UNL     1       2.831   1.103   1.832  0.00  0.00    +0.012 C 
ATOM     32  C   UNL     1       2.505   2.531   2.272  0.00  0.00    +0.009 C 
ATOM     33  C   UNL     1       1.819   0.135   2.448  0.00  0.00    +0.009 C 
ENDBRANCH  19  31
ENDBRANCH   2  19
TORSDOF 9
