REMARK  Name = ZINC02551800
REMARK  10 active torsions:
REMARK  status: ('A' for Active; 'I' for Inactive)
REMARK    1  A    between atoms: C_1  and  C_2
REMARK    2  A    between atoms: C_2  and  C_3
REMARK    3  A    between atoms: C_2  and  C_4
REMARK    4  A    between atoms: C_7  and  O_11
REMARK    5  A    between atoms: O_11  and  C_12
REMARK    6  A    between atoms: C_12  and  C_13
REMARK    7  A    between atoms: N_15  and  N_16
REMARK    8  A    between atoms: N_16  and  C_17
REMARK    9  A    between atoms: C_17  and  N_19
REMARK   10  A    between atoms: C_20  and  C_22
REMARK                            x       y       z     vdW  Elec       q    Type
REMARK                         _______ _______ _______ _____ _____    ______ ____
ROOT
ATOM      1  C   UNL     1       3.714  -0.859  -0.038  0.00  0.00    +0.267 C 
ATOM      2  O   UNL     1       4.664  -0.105  -0.043  0.00  0.00    -0.271 OA
ATOM      3  N   UNL     1       3.910  -2.192  -0.047  0.00  0.00    -0.232 N 
ATOM      4  H   UNL     1       3.150  -2.794  -0.043  0.00  0.00    +0.173 HD
ENDROOT
BRANCH   3   5
ATOM      5  N   UNL     1       5.213  -2.708  -0.062  0.00  0.00    -0.245 N 
ATOM      6  H   UNL     1       5.973  -2.106  -0.066  0.00  0.00    +0.172 HD
BRANCH   5   7
ATOM      7  C   UNL     1       5.409  -4.041  -0.071  0.00  0.00    +0.153 C 
ATOM      8  S   UNL     1       7.001  -4.672  -0.090  0.00  0.00    -0.017 S 
BRANCH   7   9
ATOM      9  N   UNL     1       4.353  -4.878  -0.066  0.00  0.00    -0.266 N 
ATOM     10  C   UNL     1       4.549  -6.212  -0.075  0.00  0.00    +0.222 C 
ATOM     11  O   UNL     1       5.677  -6.658  -0.088  0.00  0.00    -0.275 OA
ATOM     12  H   UNL     1       3.451  -4.521  -0.055  0.00  0.00    +0.157 HD
BRANCH  10  13
ATOM     13  C   UNL     1       3.368  -7.147  -0.068  0.00  0.00    +0.075 C 
ATOM     14  C   UNL     1       2.533  -6.905   1.190  0.00  0.00    +0.013 C 
ATOM     15  C   UNL     1       1.333  -7.856   1.197  0.00  0.00    +0.001 C 
ATOM     16  C   UNL     1       1.829  -9.303   1.184  0.00  0.00    +0.000 C 
ATOM     17  C   UNL     1       2.665  -9.545  -0.074  0.00  0.00    +0.001 C 
ATOM     18  C   UNL     1       3.864  -8.595  -0.081  0.00  0.00    +0.013 C 
ENDBRANCH  10  13
ENDBRANCH   7   9
ENDBRANCH   5   7
ENDBRANCH   3   5
BRANCH   1  19
ATOM     19  C   UNL     1       2.313  -0.304  -0.022  0.00  0.00    +0.326 C 
BRANCH  19  20
ATOM     20  O   UNL     1       2.366   1.124  -0.015  0.00  0.00    -0.482 OA
BRANCH  20  24
ATOM     21  C   UNL     1      -1.238   3.133   0.030  0.00  0.00    -0.044 A 
ATOM     22  C   UNL     1      -1.218   1.751   0.017  0.00  0.00    +0.007 A 
ATOM     23  C   UNL     1      -0.013   1.076   0.008  0.00  0.00    +0.047 A 
ATOM     24  C   UNL     1       1.179   1.786   0.000  0.00  0.00    +0.135 A 
ATOM     25  C   UNL     1       1.157   3.174   0.008  0.00  0.00    +0.060 A 
ATOM     26  C   UNL     1      -0.052   3.844   0.022  0.00  0.00    +0.022 A 
ATOM     27 BR   UNL     1       2.778   4.147  -0.002  0.00  0.00    -0.047 Br
BRANCH  21  29
ATOM     28  C   UNL     1      -3.363   3.491  -1.197  0.00  0.00    +0.012 C 
ATOM     29  C   UNL     1      -2.554   3.866   0.046  0.00  0.00    +0.013 C 
ATOM     30  C   UNL     1      -3.339   3.478   1.301  0.00  0.00    +0.012 C 
ENDBRANCH  21  29
ENDBRANCH  20  24
ENDBRANCH  19  20
ENDBRANCH   1  19
TORSDOF 8
