REMARK  Name = ZINC21253066
REMARK  9 active torsions:
REMARK  status: ('A' for Active; 'I' for Inactive)
REMARK    1  A    between atoms: C_1  and  C_2
REMARK    2  A    between atoms: C_2  and  C_3
REMARK    3  A    between atoms: C_2  and  O_4
REMARK    4  A    between atoms: O_4  and  C_5
REMARK    5  A    between atoms: C_8  and  C_11
REMARK    6  A    between atoms: C_16  and  C_26
REMARK    7  A    between atoms: C_28  and  O_34
REMARK    8  A    between atoms: C_29  and  O_33
REMARK    9  A    between atoms: O_34  and  C_35
REMARK                            x       y       z     vdW  Elec       q    Type
REMARK                         _______ _______ _______ _____ _____    ______ ____
ROOT
ATOM      1  C   UNL     1      -3.497   2.129   1.312  0.00  0.00    +0.032 C 
ATOM      2  C   UNL     1      -2.543   1.012   0.894  0.00  0.00    +0.059 C 
ATOM      3  C   UNL     1      -1.451   1.568  -0.011  0.00  0.00    +0.017 C 
ATOM      4  C   UNL     1      -1.703   2.607  -0.820  0.00  0.00    +0.036 C 
ATOM      5  C   UNL     1      -0.716   3.252  -1.763  0.00  0.00    +0.136 C 
ATOM      6  N   UNL     1       0.512   2.509  -1.945  0.00  0.00    -0.331 N 
ATOM      7  C   UNL     1       1.393   2.313  -0.884  0.00  0.00    +0.049 A 
ATOM      8  C   UNL     1       2.650   2.898  -0.873  0.00  0.00    +0.025 A 
ATOM      9  C   UNL     1       3.462   2.745   0.237  0.00  0.00    +0.002 A 
ATOM     10  C   UNL     1       3.028   2.014   1.328  0.00  0.00    +0.002 A 
ATOM     11  C   UNL     1       1.783   1.409   1.311  0.00  0.00    +0.025 A 
ATOM     12  C   UNL     1       0.979   1.545   0.194  0.00  0.00    +0.052 A 
ATOM     13  N   UNL     1      -0.261   0.922   0.085  0.00  0.00    -0.316 N 
ATOM     14  C   UNL     1      -2.988   3.199  -0.844  0.00  0.00    +0.163 C 
ATOM     15  O   UNL     1      -3.194   4.123  -1.606  0.00  0.00    -0.292 OA
ATOM     16  C   UNL     1      -4.105   2.725   0.037  0.00  0.00    +0.088 C 
ATOM     17  H   UNL     1       0.761   2.091  -2.931  0.00  0.00    +0.147 HD
ATOM     18  H   UNL     1      -0.230  -0.178   0.081  0.00  0.00    +0.152 HD
ENDROOT
BRANCH   5  19
ATOM     19  C   UNL     1      -0.373   4.621  -1.233  0.00  0.00    -0.018 A 
ATOM     20  C   UNL     1      -0.733   5.748  -1.949  0.00  0.00    +0.055 A 
ATOM     21  C   UNL     1      -0.418   7.007  -1.463  0.00  0.00    +0.163 A 
ATOM     22  C   UNL     1       0.260   7.134  -0.255  0.00  0.00    +0.177 A 
ATOM     23  C   UNL     1       0.617   6.001   0.459  0.00  0.00    +0.086 A 
ATOM     24  C   UNL     1       0.295   4.746  -0.029  0.00  0.00    +0.029 A 
ATOM     25 CL   UNL     1       1.463   6.154   1.967  0.00  0.00    -0.080 Cl
BRANCH  22  26
ATOM     26  O   UNL     1       0.571   8.368   0.226  0.00  0.00    -0.502 OA
ATOM     27  H   UNL     1       1.107   8.467   1.181  0.00  0.00    +0.292 HD
ENDBRANCH  22  26
BRANCH  21  28
ATOM     28  O   UNL     1      -0.771   8.116  -2.167  0.00  0.00    -0.491 OA
ATOM     29  C   UNL     1      -1.464   7.909  -3.399  0.00  0.00    +0.277 C 
ENDBRANCH  21  28
ENDBRANCH   5  19
BRANCH   1  33
ATOM     30  C   UNL     1      -6.597   0.535   3.786  0.00  0.00    +0.121 A 
ATOM     31  C   UNL     1      -5.777   1.547   4.264  0.00  0.00    +0.046 A 
ATOM     32  C   UNL     1      -4.776   2.061   3.463  0.00  0.00    +0.007 A 
ATOM     33  C   UNL     1      -4.590   1.567   2.185  0.00  0.00    -0.043 A 
ATOM     34  C   UNL     1      -5.409   0.562   1.703  0.00  0.00    +0.007 A 
ATOM     35  C   UNL     1      -6.408   0.042   2.503  0.00  0.00    +0.046 A 
BRANCH  30  36
ATOM     36  O   UNL     1      -7.582   0.028   4.572  0.00  0.00    -0.489 OA
BRANCH  36  38
ATOM     37  C   UNL     1      -9.237   0.423   6.288  0.00  0.00    +0.051 C 
ATOM     38  C   UNL     1      -7.796   0.664   5.834  0.00  0.00    +0.167 C 
ATOM     39  C   UNL     1      -6.831   0.081   6.869  0.00  0.00    +0.051 C 
ENDBRANCH  36  38
ENDBRANCH  30  36
ENDBRANCH   1  33
TORSDOF 6
