REMARK  Name = ZINC59039485
REMARK  14 active torsions:
REMARK  status: ('A' for Active; 'I' for Inactive)
REMARK    1  A    between atoms: C_1  and  C_2
REMARK    2  A    between atoms: C_2  and  C_3
REMARK    3  A    between atoms: C_3  and  C_4
REMARK    4  A    between atoms: C_4  and  S_5
REMARK    5  A    between atoms: S_5  and  C_6
REMARK    6  A    between atoms: C_11  and  N_12
REMARK    7  A    between atoms: C_13  and  C_15
REMARK    8  A    between atoms: C_15  and  S_16
REMARK    9  A    between atoms: S_16  and  C_17
REMARK   10  A    between atoms: N_22  and  N_23
REMARK   11  A    between atoms: C_24  and  C_25
REMARK   12  A    between atoms: C_24  and  C_26
REMARK   13  A    between atoms: C_29  and  O_32
REMARK   14  A    between atoms: O_32  and  C_33
REMARK                            x       y       z     vdW  Elec       q    Type
REMARK                         _______ _______ _______ _____ _____    ______ ____
ROOT
ATOM      1  C   UNL     1       5.748  -5.089  -9.024  0.00  0.00    +0.211 A 
ATOM      2  N   UNL     1       6.431  -5.628 -10.039  0.00  0.00    -0.186 NA
ATOM      3  C   UNL     1       6.928  -4.672 -10.796  0.00  0.00    +0.232 A 
ATOM      4  N   UNL     1       6.561  -3.487 -10.264  0.00  0.00    -0.245 N 
ATOM      5  N   UNL     1       5.796  -3.781  -9.125  0.00  0.00    -0.144 NA
ATOM      6  N   UNL     1       7.691  -4.851 -11.935  0.00  0.00    -0.205 N 
ATOM      7  H   UNL     1       8.014  -4.081 -12.429  0.00  0.00    +0.177 HD
ATOM      8  H   UNL     1       6.780  -2.605 -10.605  0.00  0.00    +0.192 HD
ENDROOT
BRANCH   6   9
ATOM      9  N   UNL     1       7.998  -6.145 -12.376  0.00  0.00    -0.184 NA
ATOM     10  C   UNL     1       8.795  -6.314 -13.387  0.00  0.00    +0.063 C 
ATOM     11  C   UNL     1       9.213  -7.704 -13.793  0.00  0.00    +0.068 C 
BRANCH  10  12
ATOM     12  C   UNL     1       9.291  -5.146 -14.138  0.00  0.00    -0.002 A 
ATOM     13  C   UNL     1      10.122  -4.213 -13.513  0.00  0.00    +0.013 A 
ATOM     14  C   UNL     1      10.584  -3.123 -14.219  0.00  0.00    +0.046 A 
ATOM     15  C   UNL     1      10.224  -2.951 -15.549  0.00  0.00    +0.120 A 
ATOM     16  C   UNL     1       9.397  -3.876 -16.174  0.00  0.00    +0.046 A 
ATOM     17  C   UNL     1       8.936  -4.972 -15.478  0.00  0.00    +0.013 A 
BRANCH  15  18
ATOM     18  O   UNL     1      10.681  -1.875 -16.241  0.00  0.00    -0.495 OA
ATOM     19  C   UNL     1      10.272  -1.759 -17.605  0.00  0.00    +0.277 C 
ENDBRANCH  15  18
ENDBRANCH  10  12
ENDBRANCH   6   9
BRANCH   1  20
ATOM     20  S   UNL     1       4.913  -5.988  -7.760  0.00  0.00    -0.075 S 
BRANCH  20  21
ATOM     21  C   UNL     1       4.189  -4.698  -6.709  0.00  0.00    +0.173 C 
BRANCH  21  23
ATOM     22  N   UNL     1       2.810  -4.572  -4.659  0.00  0.00    -0.284 N 
ATOM     23  C   UNL     1       3.435  -5.340  -5.573  0.00  0.00    +0.228 C 
ATOM     24  O   UNL     1       3.391  -6.549  -5.481  0.00  0.00    -0.275 OA
ATOM     25  H   UNL     1       2.775  -3.610  -4.778  0.00  0.00    +0.155 HD
BRANCH  22  31
ATOM     26  C   UNL     1       1.168  -4.513  -2.878  0.00  0.00    +0.029 A 
ATOM     27  C   UNL     1       0.577  -5.106  -1.772  0.00  0.00    +0.016 A 
ATOM     28  C   UNL     1       1.027  -6.333  -1.323  0.00  0.00    +0.001 A 
ATOM     29  C   UNL     1       2.066  -6.974  -1.973  0.00  0.00    +0.002 A 
ATOM     30  C   UNL     1       2.661  -6.390  -3.076  0.00  0.00    +0.024 A 
ATOM     31  C   UNL     1       2.212  -5.162  -3.538  0.00  0.00    +0.047 A 
BRANCH  26  32
ATOM     32  S   UNL     1       0.596  -2.949  -3.454  0.00  0.00    -0.123 S 
BRANCH  32  33
ATOM     33  C   UNL     1      -0.738  -2.519  -2.302  0.00  0.00    +0.074 C 
BRANCH  33  34
ATOM     34  C   UNL     1      -1.331  -1.164  -2.692  0.00  0.00    +0.011 C 
BRANCH  34  36
ATOM     35  C   UNL     1      -3.049   0.554  -2.111  0.00  0.00    +0.004 C 
ATOM     36  C   UNL     1      -2.456  -0.801  -1.721  0.00  0.00    -0.003 C 
ENDBRANCH  34  36
ENDBRANCH  33  34
ENDBRANCH  32  33
ENDBRANCH  26  32
ENDBRANCH  22  31
ENDBRANCH  21  23
ENDBRANCH  20  21
ENDBRANCH   1  20
TORSDOF 11
