REMARK  Name = ZINC01442276
REMARK  5 active torsions:
REMARK  status: ('A' for Active; 'I' for Inactive)
REMARK    1  A    between atoms: C_4  and  N_7
REMARK    2  A    between atoms: N_10  and  C_11
REMARK    3  A    between atoms: N_10  and  C_17
REMARK    4  A    between atoms: C_11  and  C_12
REMARK    5  A    between atoms: N_22  and  C_25
REMARK                            x       y       z     vdW  Elec       q    Type
REMARK                         _______ _______ _______ _____ _____    ______ ____
ROOT
ATOM      1  N   UNL     1       3.519  -0.651   0.071  0.00  0.00    -0.269 N 
ATOM      2  C   UNL     1       3.575  -1.996   0.132  0.00  0.00    +0.307 C 
ATOM      3  O   UNL     1       2.548  -2.647   0.144  0.00  0.00    -0.252 OA
ATOM      4  N   UNL     1       4.769  -2.619   0.179  0.00  0.00    -0.269 N 
ATOM      5  H   UNL     1       4.335  -0.135  -0.014  0.00  0.00    +0.156 HD
ENDROOT
BRANCH   4   6
ATOM      6  C   UNL     1       4.830  -4.081   0.245  0.00  0.00    +0.173 C 
ATOM      7  C   UNL     1       4.065  -4.601   1.479  0.00  0.00    +0.128 C 
ATOM      8  C   UNL     1       2.969  -5.458   0.882  0.00  0.00    +0.228 C 
ATOM      9  O   UNL     1       2.129  -6.063   1.513  0.00  0.00    -0.275 OA
ATOM     10  N   UNL     1       3.075  -5.441  -0.452  0.00  0.00    -0.209 N 
ATOM     11  C   UNL     1       4.090  -4.698  -0.921  0.00  0.00    +0.247 C 
ATOM     12  O   UNL     1       4.369  -4.544  -2.091  0.00  0.00    -0.273 OA
BRANCH  10  13
ATOM     13  C   UNL     1       2.198  -6.143  -1.292  0.00  0.00    +0.044 A 
ATOM     14  C   UNL     1       2.661  -7.221  -2.034  0.00  0.00    +0.025 A 
ATOM     15  C   UNL     1       1.796  -7.912  -2.860  0.00  0.00    +0.022 A 
ATOM     16  C   UNL     1       0.469  -7.529  -2.948  0.00  0.00    +0.041 A 
ATOM     17  C   UNL     1       0.005  -6.454  -2.210  0.00  0.00    +0.022 A 
ATOM     18  C   UNL     1       0.865  -5.765  -1.378  0.00  0.00    +0.025 A 
ATOM     19 CL   UNL     1      -0.617  -8.398  -3.988  0.00  0.00    -0.084 Cl
ENDBRANCH  10  13
ENDBRANCH   4   6
BRANCH   1  23
ATOM     20  C   UNL     1      -0.163   1.291   0.251  0.00  0.00    +0.000 A 
ATOM     21  C   UNL     1       0.031   0.114   0.950  0.00  0.00    +0.002 A 
ATOM     22  C   UNL     1       1.250  -0.532   0.892  0.00  0.00    +0.023 A 
ATOM     23  C   UNL     1       2.282   0.002   0.131  0.00  0.00    +0.035 A 
ATOM     24  C   UNL     1       2.084   1.184  -0.570  0.00  0.00    +0.023 A 
ATOM     25  C   UNL     1       0.863   1.825  -0.508  0.00  0.00    +0.002 A 
ENDBRANCH   1  23
BRANCH   4  26
ATOM     26  C   UNL     1       6.006  -1.834   0.165  0.00  0.00    +0.152 C 
BRANCH  26  27
ATOM     27  C   UNL     1       6.406  -1.502   1.579  0.00  0.00    +0.007 A 
ATOM     28  C   UNL     1       7.202  -2.199   2.428  0.00  0.00    +0.013 A 
ATOM     29  C   UNL     1       7.434  -1.696   3.694  0.00  0.00    +0.008 A 
ATOM     30  C   UNL     1       6.860  -0.521   4.051  0.00  0.00    +0.045 A 
ATOM     31  S   UNL     1       5.963  -0.085   2.570  0.00  0.00    -0.100 S 
ENDBRANCH  26  27
ENDBRANCH   4  26
TORSDOF 5
