REMARK  Name = ZINC36233265
REMARK  3 active torsions:
REMARK  status: ('A' for Active; 'I' for Inactive)
REMARK    1  A    between atoms: C_1  and  C_2
REMARK    2  A    between atoms: C_7  and  S_8
REMARK    3  A    between atoms: S_8  and  N_11
REMARK                            x       y       z     vdW  Elec       q    Type
REMARK                         _______ _______ _______ _____ _____    ______ ____
ROOT
ATOM      1  N   UNL     1       1.449   1.015   2.806  0.00  0.00    -0.103 NA
ATOM      2  C   UNL     1       1.712   1.758   3.853  0.00  0.00    +0.192 A 
ATOM      3  N   UNL     1       2.816   2.534   4.116  0.00  0.00    -0.336 N 
ATOM      4  C   UNL     1       2.885   3.241   5.294  0.00  0.00    +0.024 A 
ATOM      5  C   UNL     1       1.852   3.136   6.143  0.00  0.00    -0.005 A 
ATOM      6  S   UNL     1       0.728   2.042   5.318  0.00  0.00    -0.055 S 
ATOM      7  C   UNL     1       1.705   3.801   7.472  0.00  0.00    -0.038 C 
ATOM      8  N   UNL     1       3.026   4.307   7.890  0.00  0.00    +0.382 N 
ATOM      9  C   UNL     1       3.621   5.074   6.788  0.00  0.00    -0.076 C 
ATOM     10  C   UNL     1       4.069   4.130   5.670  0.00  0.00    +0.035 C 
ATOM     11  H   UNL     1       2.918   4.904   8.697  0.00  0.00    -0.085 HD
ATOM     12  H   UNL     1       3.543   2.582   3.475  0.00  0.00    +0.168 HD
ATOM     13  H   UNL     1       3.626   3.530   8.123  0.00  0.00    -0.085 HD
ENDROOT
BRANCH   1  14
ATOM     14  S   UNL     1       0.025   0.172   2.726  0.00  0.00    +0.101 S 
ATOM     15  O   UNL     1      -1.014   1.137   2.644  0.00  0.00    -0.146 OA
ATOM     16  O   UNL     1       0.076  -0.809   3.753  0.00  0.00    -0.146 OA
BRANCH  14  23
ATOM     17  C   UNL     1      -0.018   1.503   0.010  0.00  0.00    +0.046 C 
ATOM     18  C   UNL     1       0.002  -0.004   0.002  0.00  0.00    -0.024 A 
ATOM     19  C   UNL     1       0.006  -0.689  -1.199  0.00  0.00    +0.006 A 
ATOM     20  C   UNL     1       0.025  -2.070  -1.207  0.00  0.00    +0.015 A 
ATOM     21  C   UNL     1       0.041  -2.769  -0.013  0.00  0.00    +0.020 A 
ATOM     22  C   UNL     1       0.037  -2.084   1.188  0.00  0.00    +0.044 A 
ATOM     23  C   UNL     1       0.023  -0.701   1.195  0.00  0.00    +0.116 A 
ATOM     24 BR   UNL     1       0.066  -4.660  -0.024  0.00  0.00    -0.050 Br
ENDBRANCH  14  23
ENDBRANCH   1  14
TORSDOF 2
