REMARK  Name = ZINC36005479
REMARK  13 active torsions:
REMARK  status: ('A' for Active; 'I' for Inactive)
REMARK    1  A    between atoms: C_1  and  C_2
REMARK    2  A    between atoms: C_2  and  N_3
REMARK    3  A    between atoms: C_4  and  C_23
REMARK    4  A    between atoms: C_5  and  C_18
REMARK    5  A    between atoms: C_6  and  C_11
REMARK    6  A    between atoms: C_18  and  O_20
REMARK    7  A    between atoms: O_20  and  C_21
REMARK    8  A    between atoms: C_21  and  C_22
REMARK    9  A    between atoms: C_23  and  N_24
REMARK   10  A    between atoms: C_28  and  C_31
REMARK   11  A    between atoms: N_34  and  C_35
REMARK   12  A    between atoms: C_35  and  C_36
REMARK   13  A    between atoms: C_35  and  C_37
REMARK                            x       y       z     vdW  Elec       q    Type
REMARK                         _______ _______ _______ _____ _____    ______ ____
ROOT
ATOM      1  N   UNL     1       0.791  -0.808  -1.337  0.00  0.00    -0.258 N 
ATOM      2  C   UNL     1       0.169  -0.859  -2.551  0.00  0.00    +0.041 C 
ATOM      3  C   UNL     1       0.847  -1.205  -3.667  0.00  0.00    +0.080 C 
ATOM      4  C   UNL     1       2.320  -1.532  -3.525  0.00  0.00    +0.145 C 
ATOM      5  N   UNL     1       2.895  -1.447  -2.172  0.00  0.00    -0.288 N 
ATOM      6  C   UNL     1       2.089  -1.082  -1.155  0.00  0.00    +0.307 C 
ATOM      7  O   UNL     1       2.555  -1.004  -0.035  0.00  0.00    -0.252 OA
ATOM      8  H   UNL     1       3.832  -1.645  -2.017  0.00  0.00    +0.151 HD
ENDROOT
BRANCH   4   9
ATOM      9  C   UNL     1       2.534  -2.935  -4.032  0.00  0.00    -0.004 A 
ATOM     10  C   UNL     1       2.468  -4.004  -3.158  0.00  0.00    +0.007 A 
ATOM     11  C   UNL     1       2.665  -5.291  -3.623  0.00  0.00    +0.000 A 
ATOM     12  C   UNL     1       2.929  -5.510  -4.962  0.00  0.00    +0.001 A 
ATOM     13  C   UNL     1       2.995  -4.442  -5.837  0.00  0.00    +0.020 A 
ATOM     14  C   UNL     1       2.792  -3.154  -5.373  0.00  0.00    +0.046 A 
ATOM     15 CL   UNL     1       2.869  -1.813  -6.473  0.00  0.00    -0.083 Cl
ENDBRANCH   4   9
BRANCH   1  17
ATOM     16  C   UNL     1       0.043   1.094   0.007  0.00  0.00    +0.025 C 
ATOM     17  C   UNL     1      -0.005  -0.425  -0.168  0.00  0.00    +0.111 C 
ENDBRANCH   1  17
BRANCH   3  18
ATOM     18  C   UNL     1       0.204  -1.259  -4.926  0.00  0.00    +0.339 C 
ATOM     19  O   UNL     1      -0.210  -2.321  -5.352  0.00  0.00    -0.245 OA
BRANCH  18  20
ATOM     20  O   UNL     1       0.049  -0.134  -5.654  0.00  0.00    -0.462 OA
BRANCH  20  21
ATOM     21  C   UNL     1      -0.609  -0.263  -6.916  0.00  0.00    +0.229 C 
ATOM     22  C   UNL     1      -0.691   1.108  -7.591  0.00  0.00    +0.048 C 
ENDBRANCH  20  21
ENDBRANCH  18  20
ENDBRANCH   3  18
BRANCH   2  23
ATOM     23  C   UNL     1      -1.297  -0.525  -2.648  0.00  0.00    +0.136 C 
BRANCH  23  24
ATOM     24  N   UNL     1      -2.079  -1.540  -1.928  0.00  0.00    -0.294 NA
ATOM     25  C   UNL     1      -1.967  -2.851  -2.581  0.00  0.00    +0.104 C 
ATOM     26  C   UNL     1      -2.643  -3.912  -1.705  0.00  0.00    +0.125 C 
ATOM     27  N   UNL     1      -4.017  -3.475  -1.418  0.00  0.00    -0.280 N 
ATOM     28  C   UNL     1      -4.220  -2.118  -0.889  0.00  0.00    +0.088 C 
ATOM     29  C   UNL     1      -3.482  -1.127  -1.796  0.00  0.00    +0.107 C 
ATOM     30  C   UNL     1      -5.714  -1.791  -0.871  0.00  0.00    +0.029 C 
ATOM     31  C   UNL     1      -5.064  -4.297  -1.632  0.00  0.00    +0.303 C 
ATOM     32  O   UNL     1      -6.182  -3.958  -1.296  0.00  0.00    -0.253 OA
ATOM     33  N   UNL     1      -4.870  -5.495  -2.220  0.00  0.00    -0.297 N 
ATOM     34  H   UNL     1      -3.971  -5.797  -2.421  0.00  0.00    +0.150 HD
BRANCH  33  35
ATOM     35  C   UNL     1      -6.019  -6.340  -2.555  0.00  0.00    +0.068 C 
ATOM     36  C   UNL     1      -6.577  -5.926  -3.918  0.00  0.00    +0.027 C 
ATOM     37  C   UNL     1      -5.577  -7.804  -2.608  0.00  0.00    +0.027 C 
ENDBRANCH  33  35
ENDBRANCH  23  24
ENDBRANCH   2  23
TORSDOF 8
