REMARK  Name = ZINC35616553
REMARK  4 active torsions:
REMARK  status: ('A' for Active; 'I' for Inactive)
REMARK    1  A    between atoms: C_4  and  O_24
REMARK    2  A    between atoms: C_5  and  C_7
REMARK    3  A    between atoms: C_8  and  N_16
REMARK    4  A    between atoms: N_16  and  C_17
REMARK                            x       y       z     vdW  Elec       q    Type
REMARK                         _______ _______ _______ _____ _____    ______ ____
ROOT
ATOM      1  C   UNL     1       1.248  -2.431   0.649  0.00  0.00    +0.117 A 
ATOM      2  C   UNL     1       0.144  -3.006   0.057  0.00  0.00    +0.137 A 
ATOM      3  N   UNL     1       0.602  -4.051  -0.698  0.00  0.00    -0.271 N 
ATOM      4  C   UNL     1      -0.033  -4.964  -1.494  0.00  0.00    +0.097 A 
ATOM      5  C   UNL     1       0.702  -5.905  -2.133  0.00  0.00    +0.038 A 
ATOM      6  C   UNL     1       2.095  -5.921  -1.964  0.00  0.00    +0.116 A 
ATOM      7  N   UNL     1       2.683  -5.036  -1.196  0.00  0.00    -0.220 NA
ATOM      8  C   UNL     1       1.970  -4.096  -0.555  0.00  0.00    +0.237 A 
ATOM      9  N   UNL     1       2.338  -3.113   0.251  0.00  0.00    -0.208 NA
ENDROOT
BRANCH   1  14
ATOM     10  C   UNL     1       0.023   0.374   2.831  0.00  0.00    +0.001 A 
ATOM     11  C   UNL     1       1.216   0.926   3.261  0.00  0.00    +0.004 A 
ATOM     12  C   UNL     1       2.423   0.393   2.846  0.00  0.00    +0.046 A 
ATOM     13  C   UNL     1       2.442  -0.700   1.996  0.00  0.00    +0.126 A 
ATOM     14  C   UNL     1       1.238  -1.262   1.559  0.00  0.00    +0.045 A 
ATOM     15  C   UNL     1       0.027  -0.716   1.984  0.00  0.00    +0.014 A 
BRANCH  13  16
ATOM     16  O   UNL     1       3.627  -1.225   1.587  0.00  0.00    -0.506 OA
ATOM     17  H   UNL     1       3.970  -1.919   2.166  0.00  0.00    +0.292 HD
ENDBRANCH  13  16
ENDBRANCH   1  14
BRANCH   2  18
ATOM     18  N   UNL     1      -1.184  -2.602   0.201  0.00  0.00    -0.299 N 
ATOM     19  H   UNL     1      -1.495  -1.794  -0.238  0.00  0.00    +0.154 HD
BRANCH  18  20
ATOM     20  C   UNL     1      -2.065  -3.359   0.975  0.00  0.00    +0.032 A 
ATOM     21  C   UNL     1      -1.593  -4.441   1.709  0.00  0.00    +0.024 A 
ATOM     22  C   UNL     1      -2.466  -5.188   2.475  0.00  0.00    +0.017 A 
ATOM     23  C   UNL     1      -3.810  -4.861   2.511  0.00  0.00    +0.018 A 
ATOM     24  C   UNL     1      -4.284  -3.785   1.781  0.00  0.00    +0.017 A 
ATOM     25  C   UNL     1      -3.414  -3.030   1.018  0.00  0.00    +0.024 A 
ATOM     26 BR   UNL     1      -5.003  -5.887   3.560  0.00  0.00    -0.050 Br
ENDBRANCH  18  20
ENDBRANCH   2  18
TORSDOF 4
