REMARK  Name = ZINC34847417
REMARK  8 active torsions:
REMARK  status: ('A' for Active; 'I' for Inactive)
REMARK    1  A    between atoms: C_1  and  C_2
REMARK    2  A    between atoms: C_2  and  C_3
REMARK    3  A    between atoms: C_3  and  C_5
REMARK    4  A    between atoms: C_3  and  N_6
REMARK    5  A    between atoms: C_7  and  C_31
REMARK    6  A    between atoms: C_15  and  C_21
REMARK    7  A    between atoms: N_23  and  C_24
REMARK    8  A    between atoms: N_33  and  C_34
REMARK                            x       y       z     vdW  Elec       q    Type
REMARK                         _______ _______ _______ _____ _____    ______ ____
ROOT
ATOM      1  N   UNL     1       0.470  -0.363   2.885  0.00  0.00    -0.284 N 
ATOM      2  C   UNL     1       0.849   0.546   4.011  0.00  0.00    +0.199 C 
ATOM      3  C   UNL     1      -0.155   0.175   5.059  0.00  0.00    +0.127 C 
ATOM      4  C   UNL     1       0.102  -1.193   5.663  0.00  0.00    +0.009 C 
ATOM      5  C   UNL     1      -0.850  -1.371   6.567  0.00  0.00    +0.004 C 
ATOM      6  C   UNL     1      -1.733  -0.121   6.465  0.00  0.00    +0.155 C 
ATOM      7  O   UNL     1      -0.727   0.917   6.110  0.00  0.00    -0.358 OA
ATOM      8  C   UNL     1      -2.490  -0.359   5.101  0.00  0.00    +0.123 C 
ATOM      9  C   UNL     1      -1.414   0.079   4.107  0.00  0.00    +0.128 C 
ATOM     10  C   UNL     1      -0.852  -0.718   3.002  0.00  0.00    +0.224 C 
ATOM     11  O   UNL     1      -1.444  -1.533   2.327  0.00  0.00    -0.275 OA
ENDROOT
BRANCH   8  12
ATOM     12  C   UNL     1      -2.854  -1.811   4.930  0.00  0.00    +0.224 C 
ATOM     13  O   UNL     1      -2.405  -2.443   3.997  0.00  0.00    -0.275 OA
ATOM     14  N   UNL     1      -3.678  -2.408   5.814  0.00  0.00    -0.285 N 
ATOM     15  H   UNL     1      -3.976  -1.926   6.601  0.00  0.00    +0.155 HD
BRANCH  14  16
ATOM     16  C   UNL     1      -4.104  -3.723   5.596  0.00  0.00    +0.035 A 
ATOM     17  C   UNL     1      -4.331  -4.569   6.673  0.00  0.00    +0.023 A 
ATOM     18  C   UNL     1      -4.752  -5.866   6.455  0.00  0.00    +0.003 A 
ATOM     19  C   UNL     1      -4.946  -6.324   5.165  0.00  0.00    +0.020 A 
ATOM     20  C   UNL     1      -4.720  -5.484   4.089  0.00  0.00    +0.043 A 
ATOM     21  C   UNL     1      -4.304  -4.183   4.301  0.00  0.00    +0.043 A 
ATOM     22 CL   UNL     1      -4.965  -6.064   2.470  0.00  0.00    -0.083 Cl
ENDBRANCH  14  16
ENDBRANCH   8  12
BRANCH   2  23
ATOM     23  C   UNL     1       2.252   0.262   4.484  0.00  0.00    +0.237 C 
ATOM     24  O   UNL     1       2.782  -0.794   4.211  0.00  0.00    -0.274 OA
ATOM     25  N   UNL     1       2.917   1.182   5.211  0.00  0.00    -0.311 N 
ATOM     26  H   UNL     1       2.493   2.026   5.430  0.00  0.00    +0.149 HD
BRANCH  25  27
ATOM     27  C   UNL     1       4.280   0.906   5.670  0.00  0.00    +0.073 C 
ATOM     28  C   UNL     1       4.227   0.121   6.983  0.00  0.00    +0.022 C 
ATOM     29  C   UNL     1       5.651  -0.167   7.463  0.00  0.00    +0.002 C 
ATOM     30  C   UNL     1       6.391   1.154   7.688  0.00  0.00    +0.000 C 
ATOM     31  C   UNL     1       6.444   1.938   6.375  0.00  0.00    +0.002 C 
ATOM     32  C   UNL     1       5.020   2.226   5.895  0.00  0.00    +0.022 C 
ENDBRANCH  25  27
ENDBRANCH   2  23
BRANCH   1  33
ATOM     33  C   UNL     1       1.370  -0.803   1.816  0.00  0.00    +0.074 C 
ATOM     34  C   UNL     1       1.474  -2.330   1.833  0.00  0.00    +0.028 C 
BRANCH  33  36
ATOM     35  C   UNL     1       0.832   1.184   0.400  0.00  0.00    +0.005 C 
ATOM     36  C   UNL     1       0.819  -0.345   0.464  0.00  0.00    +0.019 C 
ENDBRANCH  33  36
ENDBRANCH   1  33
TORSDOF 6
