REMARK  Name = ZINC23144684
REMARK  7 active torsions:
REMARK  status: ('A' for Active; 'I' for Inactive)
REMARK    1  A    between atoms: C_4  and  O_30
REMARK    2  A    between atoms: C_5  and  C_7
REMARK    3  A    between atoms: C_7  and  C_9
REMARK    4  A    between atoms: C_7  and  C_23
REMARK    5  A    between atoms: C_9  and  C_10
REMARK    6  A    between atoms: N_15  and  C_18
REMARK    7  A    between atoms: C_27  and  O_29
REMARK                            x       y       z     vdW  Elec       q    Type
REMARK                         _______ _______ _______ _____ _____    ______ ____
ROOT
ATOM      1  C   UNL     1      -0.894  -5.342  -3.360  0.00  0.00    +0.061 C 
ENDROOT
BRANCH   1   6
ATOM      2  C   UNL     1      -0.761  -8.586  -1.433  0.00  0.00    +0.001 A 
ATOM      3  C   UNL     1      -2.095  -8.782  -1.123  0.00  0.00    +0.004 A 
ATOM      4  C   UNL     1      -3.042  -7.866  -1.536  0.00  0.00    +0.046 A 
ATOM      5  C   UNL     1      -2.656  -6.748  -2.262  0.00  0.00    +0.121 A 
ATOM      6  C   UNL     1      -1.317  -6.554  -2.571  0.00  0.00    +0.002 A 
ATOM      7  C   UNL     1      -0.374  -7.476  -2.160  0.00  0.00    +0.008 A 
BRANCH   5   8
ATOM      8  O   UNL     1      -3.586  -5.845  -2.668  0.00  0.00    -0.506 OA
ATOM      9  H   UNL     1      -3.278  -4.960  -3.244  0.00  0.00    +0.292 HD
ENDBRANCH   5   8
ENDBRANCH   1   6
BRANCH   1  10
ATOM     10  C   UNL     1      -0.371  -5.775  -4.705  0.00  0.00    -0.036 A 
ATOM     11  C   UNL     1       0.808  -6.492  -4.790  0.00  0.00    +0.004 A 
ATOM     12  C   UNL     1       1.290  -6.891  -6.022  0.00  0.00    +0.004 A 
ATOM     13  C   UNL     1       0.594  -6.575  -7.173  0.00  0.00    +0.045 A 
ATOM     14  C   UNL     1      -0.589  -5.856  -7.091  0.00  0.00    +0.117 A 
ATOM     15  C   UNL     1      -1.073  -5.460  -5.852  0.00  0.00    +0.049 A 
BRANCH  14  16
ATOM     16  O   UNL     1      -1.276  -5.544  -8.221  0.00  0.00    -0.507 OA
ATOM     17  H   UNL     1      -2.215  -4.973  -8.155  0.00  0.00    +0.292 HD
ENDBRANCH  14  16
ENDBRANCH   1  10
BRANCH   1  18
ATOM     18  C   UNL     1       0.207  -4.598  -2.600  0.00  0.00    +0.109 C 
BRANCH  18  19
ATOM     19  C   UNL     1      -0.351  -4.059  -1.308  0.00  0.00    +0.217 C 
ATOM     20  O   UNL     1      -1.514  -4.250  -1.023  0.00  0.00    -0.276 OA
ATOM     21  N   UNL     1       0.443  -3.364  -0.469  0.00  0.00    -0.299 N 
ATOM     22  C   UNL     1      -0.081  -2.829   0.796  0.00  0.00    +0.123 C 
ATOM     23  C   UNL     1       0.279  -1.342   0.882  0.00  0.00    +0.103 C 
ATOM     24  N   UNL     1       1.726  -1.179   0.691  0.00  0.00    -0.296 NA
ATOM     25  C   UNL     1       2.140  -1.623  -0.647  0.00  0.00    +0.103 C 
ATOM     26  C   UNL     1       1.857  -3.121  -0.796  0.00  0.00    +0.123 C 
BRANCH  24  27
ATOM     27  C   UNL     1       2.137   0.210   0.935  0.00  0.00    +0.057 C 
ATOM     28  C   UNL     1       1.563   1.131  -0.160  0.00  0.00    +0.019 C 
ATOM     29  C   UNL     1       2.684   2.171  -0.408  0.00  0.00    +0.002 C 
ATOM     30  C   UNL     1       3.972   1.319  -0.292  0.00  0.00    +0.002 C 
ATOM     31  C   UNL     1       3.669   0.329   0.852  0.00  0.00    +0.019 C 
ENDBRANCH  24  27
ENDBRANCH  18  19
ENDBRANCH   1  18
TORSDOF 7
