REMARK  Name = ZINC03326032
REMARK  5 active torsions:
REMARK  status: ('A' for Active; 'I' for Inactive)
REMARK    1  A    between atoms: C_1  and  C_2
REMARK    2  A    between atoms: C_7  and  C_27
REMARK    3  A    between atoms: C_10  and  C_12
REMARK    4  A    between atoms: C_12  and  O_13
REMARK    5  A    between atoms: O_13  and  C_14
REMARK                            x       y       z     vdW  Elec       q    Type
REMARK                         _______ _______ _______ _____ _____    ______ ____
ROOT
ATOM      1  C   UNL     1      -1.222  -0.489  -1.268  0.00  0.00    +0.227 A 
ATOM      2  C   UNL     1      -1.305  -1.896  -1.446  0.00  0.00    +0.073 A 
ATOM      3  C   UNL     1      -0.236  -2.894  -1.373  0.00  0.00    -0.023 A 
ATOM      4  C   UNL     1      -0.584  -4.180  -1.583  0.00  0.00    -0.004 A 
ATOM      5  S   UNL     1      -2.330  -4.143  -1.888  0.00  0.00    -0.073 S 
ATOM      6  C   UNL     1      -2.592  -2.396  -1.732  0.00  0.00    +0.116 A 
ATOM      7  N   UNL     1      -3.636  -1.596  -1.825  0.00  0.00    -0.228 NA
ATOM      8  C   UNL     1      -3.496  -0.297  -1.649  0.00  0.00    +0.226 A 
ATOM      9  N   UNL     1      -2.320   0.238  -1.373  0.00  0.00    -0.201 NA
ATOM     10  C   UNL     1       0.315  -5.378  -1.564  0.00  0.00    +0.043 C 
ATOM     11  C   UNL     1       1.770  -4.894  -1.635  0.00  0.00    +0.005 C 
ATOM     12  C   UNL     1       1.963  -3.768  -0.614  0.00  0.00    +0.005 C 
ATOM     13  C   UNL     1       1.212  -2.518  -1.072  0.00  0.00    +0.037 C 
ENDROOT
BRANCH   1  14
ATOM     14  O   UNL     1      -0.034   0.098  -0.988  0.00  0.00    -0.466 OA
BRANCH  14  15
ATOM     15  C   UNL     1      -0.034   1.517  -0.823  0.00  0.00    +0.326 C 
BRANCH  15  23
ATOM     16  C   UNL     1       3.973   2.620  -0.366  0.00  0.00    +0.028 C 
ATOM     17  C   UNL     1       2.996   3.788  -0.213  0.00  0.00    +0.073 C 
ATOM     18  C   UNL     1       3.287   4.849  -1.285  0.00  0.00    +0.022 C 
ATOM     19  C   UNL     1       2.222   5.945  -1.211  0.00  0.00    +0.004 C 
ATOM     20  C   UNL     1       0.844   5.341  -1.492  0.00  0.00    +0.022 C 
ATOM     21  C   UNL     1       0.526   4.286  -0.428  0.00  0.00    +0.073 C 
ATOM     22  N   UNL     1       1.620   3.305  -0.394  0.00  0.00    -0.293 N 
ATOM     23  C   UNL     1       1.365   1.988  -0.520  0.00  0.00    +0.254 C 
ATOM     24  O   UNL     1       2.261   1.181  -0.389  0.00  0.00    -0.272 OA
ATOM     25  C   UNL     1       0.396   4.957   0.941  0.00  0.00    +0.028 C 
ENDBRANCH  15  23
ENDBRANCH  14  15
ENDBRANCH   1  14
TORSDOF 3
