REMARK  Name = ZINC36309251
REMARK  14 active torsions:
REMARK  status: ('A' for Active; 'I' for Inactive)
REMARK    1  A    between atoms: C_1  and  C_2
REMARK    2  A    between atoms: C_2  and  C_4
REMARK    3  A    between atoms: C_2  and  O_34
REMARK    4  A    between atoms: C_4  and  N_5
REMARK    5  A    between atoms: N_5  and  C_6
REMARK    6  A    between atoms: N_5  and  C_10
REMARK    7  A    between atoms: C_6  and  C_7
REMARK    8  A    between atoms: C_10  and  C_11
REMARK    9  A    between atoms: C_21  and  C_23
REMARK   10  A    between atoms: C_23  and  O_24
REMARK   11  A    between atoms: O_24  and  C_25
REMARK   12  A    between atoms: C_28  and  C_31
REMARK   13  A    between atoms: C_31  and  C_32
REMARK   14  A    between atoms: C_31  and  C_33
REMARK                            x       y       z     vdW  Elec       q    Type
REMARK                         _______ _______ _______ _____ _____    ______ ____
ROOT
ATOM      1  C   UNL     1       1.246  -4.040   2.339  0.00  0.00    +0.200 C 
ATOM      2  O   UNL     1       0.752  -4.618   1.394  0.00  0.00    -0.278 OA
ATOM      3  N   UNL     1       1.730  -4.743   3.382  0.00  0.00    -0.292 N 
ATOM      4  C   UNL     1       2.324  -4.052   4.536  0.00  0.00    +0.113 C 
ATOM      5  C   UNL     1       3.814  -4.422   4.604  0.00  0.00    +0.061 C 
ATOM      6  C   UNL     1       3.956  -5.887   4.351  0.00  0.00    -0.004 A 
ATOM      7  C   UNL     1       3.041  -6.734   3.805  0.00  0.00    -0.014 A 
ATOM      8  C   UNL     1       3.426  -8.067   3.668  0.00  0.00    +0.013 A 
ATOM      9  C   UNL     1       4.654  -8.462   4.075  0.00  0.00    +0.046 A 
ATOM     10  S   UNL     1       5.348  -6.934   4.687  0.00  0.00    -0.101 S 
ATOM     11  C   UNL     1       1.665  -6.211   3.384  0.00  0.00    +0.144 C 
ENDROOT
BRANCH   1  12
ATOM     12  C   UNL     1       1.318  -2.534   2.347  0.00  0.00    +0.019 C 
BRANCH  12  13
ATOM     13  N   UNL     1       0.729  -2.009   1.108  0.00  0.00    +0.387 N 
ATOM     14  H   UNL     1       1.180  -2.436   0.314  0.00  0.00    -0.081 HD
BRANCH  13  15
ATOM     15  C   UNL     1       0.918  -0.553   1.055  0.00  0.00    -0.047 C 
BRANCH  15  17
ATOM     16  C   UNL     1       2.582   1.257   0.613  0.00  0.00    +0.035 C 
ATOM     17  C   UNL     1       2.405  -0.238   0.885  0.00  0.00    +0.095 C 
BRANCH  17  18
ATOM     18  O   UNL     1       3.106  -0.591   2.079  0.00  0.00    -0.394 OA
ATOM     19  H   UNL     1       2.803  -0.120   2.868  0.00  0.00    +0.210 HD
ENDBRANCH  17  18
ENDBRANCH  15  17
ENDBRANCH  13  15
BRANCH  13  20
ATOM     20  C   UNL     1      -0.707  -2.318   1.080  0.00  0.00    -0.075 C 
BRANCH  20  21
ATOM     21  C   UNL     1      -1.294  -1.892  -0.268  0.00  0.00    -0.028 C 
ATOM     22  C   UNL     1      -2.294  -0.735  -0.270  0.00  0.00    +0.002 C 
ATOM     23  C   UNL     1      -2.779  -2.165  -0.510  0.00  0.00    +0.002 C 
ENDBRANCH  20  21
ENDBRANCH  13  20
ENDBRANCH  12  13
ENDBRANCH   1  12
BRANCH  11  24
ATOM     24  C   UNL     1       0.601  -6.681   4.378  0.00  0.00    +0.256 C 
BRANCH  24  25
ATOM     25  O   UNL     1       0.996  -6.321   5.704  0.00  0.00    -0.490 OA
BRANCH  25  26
ATOM     26  C   UNL     1       0.155  -6.668   6.714  0.00  0.00    +0.121 A 
ATOM     27  C   UNL     1      -1.023  -7.346   6.435  0.00  0.00    +0.046 A 
ATOM     28  C   UNL     1      -1.875  -7.698   7.463  0.00  0.00    +0.007 A 
ATOM     29  C   UNL     1      -1.556  -7.375   8.769  0.00  0.00    -0.045 A 
ATOM     30  C   UNL     1      -0.383  -6.699   9.050  0.00  0.00    +0.007 A 
ATOM     31  C   UNL     1       0.476  -6.350   8.025  0.00  0.00    +0.046 A 
BRANCH  29  32
ATOM     32  C   UNL     1      -2.488  -7.760   9.889  0.00  0.00    +0.013 C 
ATOM     33  C   UNL     1      -1.756  -8.679  10.869  0.00  0.00    +0.012 C 
ATOM     34  C   UNL     1      -2.952  -6.499  10.622  0.00  0.00    +0.012 C 
ENDBRANCH  29  32
ENDBRANCH  25  26
ENDBRANCH  24  25
ENDBRANCH  11  24
TORSDOF 11
