REMARK  Name = ZINC16502850
REMARK  8 active torsions:
REMARK  status: ('A' for Active; 'I' for Inactive)
REMARK    1  A    between atoms: C_1  and  C_2
REMARK    2  A    between atoms: C_5  and  N_9
REMARK    3  A    between atoms: C_10  and  C_31
REMARK    4  A    between atoms: C_11  and  C_26
REMARK    5  A    between atoms: C_12  and  C_17
REMARK    6  A    between atoms: C_20  and  N_23
REMARK    7  A    between atoms: N_28  and  C_29
REMARK    8  A    between atoms: N_28  and  C_30
REMARK                            x       y       z     vdW  Elec       q    Type
REMARK                         _______ _______ _______ _____ _____    ______ ____
ROOT
ATOM      1  N   UNL     1      -0.409  -4.218   0.079  0.00  0.00    -0.255 N 
ATOM      2  C   UNL     1      -0.151  -4.888   1.242  0.00  0.00    +0.025 C 
ATOM      3  C   UNL     1       0.271  -6.170   1.228  0.00  0.00    +0.056 C 
ATOM      4  C   UNL     1       0.448  -6.840  -0.119  0.00  0.00    +0.139 C 
ATOM      5  N   UNL     1       0.143  -6.032  -1.312  0.00  0.00    -0.315 N 
ATOM      6  C   UNL     1      -0.274  -4.762  -1.137  0.00  0.00    +0.142 C 
ATOM      7  S   UNL     1      -0.637  -3.812  -2.514  0.00  0.00    -0.018 S 
ATOM      8  C   UNL     1      -0.340  -4.185   2.562  0.00  0.00    +0.062 C 
ATOM      9  H   UNL     1       0.238  -6.405  -2.202  0.00  0.00    +0.149 HD
ENDROOT
BRANCH   1  14
ATOM     10  C   UNL     1      -2.166   1.168   0.424  0.00  0.00    +0.047 C 
ATOM     11  C   UNL     1      -1.700  -0.262   0.333  0.00  0.00    -0.015 A 
ATOM     12  C   UNL     1      -0.366  -0.567   0.530  0.00  0.00    +0.008 A 
ATOM     13  C   UNL     1       0.065  -1.877   0.447  0.00  0.00    +0.024 A 
ATOM     14  C   UNL     1      -0.843  -2.889   0.165  0.00  0.00    +0.043 A 
ATOM     15  C   UNL     1      -2.183  -2.582  -0.033  0.00  0.00    +0.062 A 
ATOM     16  C   UNL     1      -2.610  -1.269   0.057  0.00  0.00    +0.128 A 
ATOM     17  F   UNL     1      -3.913  -0.969  -0.129  0.00  0.00    -0.205 F 
ENDBRANCH   1  14
BRANCH   4  18
ATOM     18  C   UNL     1      -0.433  -8.062  -0.150  0.00  0.00    -0.023 A 
ATOM     19  C   UNL     1      -1.800  -7.925  -0.300  0.00  0.00    +0.008 A 
ATOM     20  C   UNL     1      -2.609  -9.046  -0.328  0.00  0.00    +0.033 A 
ATOM     21  C   UNL     1      -2.050 -10.304  -0.207  0.00  0.00    +0.126 A 
ATOM     22  C   UNL     1      -0.682 -10.442  -0.059  0.00  0.00    +0.033 A 
ATOM     23  C   UNL     1       0.126  -9.321  -0.035  0.00  0.00    +0.008 A 
BRANCH  21  24
ATOM     24  N   UNL     1      -2.916 -11.505  -0.237  0.00  0.00    +0.056 N 
ATOM     25  O   UNL     1      -4.112 -11.384  -0.366  0.00  0.00    -0.126 OA
ATOM     26  O   UNL     1      -2.427 -12.605  -0.131  0.00  0.00    -0.126 OA
ENDBRANCH  21  24
ENDBRANCH   4  18
BRANCH   3  27
ATOM     27  C   UNL     1       0.539  -6.867   2.433  0.00  0.00    +0.246 C 
ATOM     28  O   UNL     1      -0.334  -7.533   2.958  0.00  0.00    -0.270 OA
ATOM     29  N   UNL     1       1.761  -6.791   2.997  0.00  0.00    -0.304 N 
ATOM     30  C   UNL     1       2.075  -7.603   4.175  0.00  0.00    +0.132 C 
ATOM     31  C   UNL     1       2.774  -5.896   2.432  0.00  0.00    +0.132 C 
ENDBRANCH   3  27
TORSDOF 4
