REMARK  Name = ZINC11539989
REMARK  7 active torsions:
REMARK  status: ('A' for Active; 'I' for Inactive)
REMARK    1  A    between atoms: C_3  and  S_16
REMARK    2  A    between atoms: C_6  and  S_7
REMARK    3  A    between atoms: S_7  and  N_10
REMARK    4  A    between atoms: S_16  and  C_17
REMARK    5  A    between atoms: C_17  and  C_18
REMARK    6  A    between atoms: N_20  and  C_21
REMARK    7  A    between atoms: C_22  and  C_30
REMARK                            x       y       z     vdW  Elec       q    Type
REMARK                         _______ _______ _______ _____ _____    ______ ____
ROOT
ATOM      1  C   UNL     1       5.947  -1.307   6.531  0.00  0.00    +0.228 C 
ATOM      2  O   UNL     1       6.132  -0.600   7.499  0.00  0.00    -0.275 OA
ATOM      3  N   UNL     1       6.839  -2.267   6.217  0.00  0.00    -0.279 N 
ATOM      4  H   UNL     1       6.691  -2.832   5.443  0.00  0.00    +0.155 HD
ENDROOT
BRANCH   3   5
ATOM      5  C   UNL     1       7.969  -2.447   7.001  0.00  0.00    +0.084 A 
ATOM      6  C   UNL     1       8.988  -3.375   6.844  0.00  0.00    +0.068 A 
ATOM      7  C   UNL     1      10.072  -3.351   7.811  0.00  0.00    -0.023 A 
ATOM      8  C   UNL     1       9.959  -2.416   8.780  0.00  0.00    -0.004 A 
ATOM      9  S   UNL     1       8.446  -1.571   8.418  0.00  0.00    -0.077 S 
ATOM     10  C   UNL     1      10.913  -2.163   9.906  0.00  0.00    +0.043 C 
ATOM     11  C   UNL     1      11.857  -3.368  10.021  0.00  0.00    +0.005 C 
ATOM     12  C   UNL     1      12.389  -3.713   8.627  0.00  0.00    +0.005 C 
ATOM     13  C   UNL     1      11.264  -4.300   7.772  0.00  0.00    +0.037 C 
BRANCH   6  14
ATOM     14  C   UNL     1       8.974  -4.341   5.741  0.00  0.00    +0.244 C 
ATOM     15  O   UNL     1       9.497  -4.059   4.679  0.00  0.00    -0.270 OA
ATOM     16  N   UNL     1       8.382  -5.541   5.904  0.00  0.00    -0.325 N 
ATOM     17  H   UNL     1       7.965  -5.765   6.750  0.00  0.00    +0.145 HD
ATOM     18  H   UNL     1       8.372  -6.180   5.174  0.00  0.00    +0.145 HD
ENDBRANCH   6  14
ENDBRANCH   3   5
BRANCH   1  19
ATOM     19  C   UNL     1       4.719  -1.112   5.679  0.00  0.00    +0.171 C 
BRANCH  19  20
ATOM     20  S   UNL     1       3.723   0.245   6.355  0.00  0.00    -0.097 S 
BRANCH  20  23
ATOM     21  C   UNL     1       0.279   1.369   4.623  0.00  0.00    +0.032 A 
ATOM     22  C   UNL     1       1.356   1.301   5.487  0.00  0.00    +0.037 A 
ATOM     23  C   UNL     1       2.344   0.347   5.264  0.00  0.00    +0.097 A 
ATOM     24  N   UNL     1       2.256  -0.486   4.237  0.00  0.00    -0.247 NA
ATOM     25  C   UNL     1       1.237  -0.447   3.400  0.00  0.00    +0.140 A 
ATOM     26  C   UNL     1       0.225   0.478   3.559  0.00  0.00    +0.124 A 
BRANCH  26  27
ATOM     27  S   UNL     1      -1.126   0.522   2.429  0.00  0.00    +0.062 S 
ATOM     28  O   UNL     1      -2.215   1.118   3.120  0.00  0.00    -0.153 OA
ATOM     29  O   UNL     1      -1.210  -0.770   1.845  0.00  0.00    -0.153 OA
BRANCH  27  30
ATOM     30  N   UNL     1      -0.712   1.565   1.211  0.00  0.00    -0.172 NA
ATOM     31  C   UNL     1      -0.013   1.086   0.008  0.00  0.00    +0.137 C 
ATOM     32  C   UNL     1      -0.764   1.599  -1.226  0.00  0.00    +0.177 C 
ATOM     33  O   UNL     1      -0.940   3.013  -1.115  0.00  0.00    -0.377 OA
ATOM     34  C   UNL     1      -1.734   3.419   0.003  0.00  0.00    +0.177 C 
ATOM     35  C   UNL     1      -1.032   2.999   1.299  0.00  0.00    +0.137 C 
ENDBRANCH  27  30
ENDBRANCH  26  27
ENDBRANCH  20  23
ENDBRANCH  19  20
ENDBRANCH   1  19
TORSDOF 7
