REMARK  Name = ZINC36615652
REMARK  11 active torsions:
REMARK  status: ('A' for Active; 'I' for Inactive)
REMARK    1  A    between atoms: C_1  and  C_2
REMARK    2  A    between atoms: C_5  and  O_11
REMARK    3  A    between atoms: C_6  and  C_8
REMARK    4  A    between atoms: C_8  and  C_9
REMARK    5  A    between atoms: C_8  and  C_10
REMARK    6  A    between atoms: O_11  and  C_12
REMARK    7  A    between atoms: C_12  and  C_13
REMARK    8  A    between atoms: N_15  and  N_16
REMARK    9  A    between atoms: C_17  and  C_27
REMARK   10  A    between atoms: C_27  and  O_28
REMARK   11  A    between atoms: O_28  and  C_29
REMARK                            x       y       z     vdW  Elec       q    Type
REMARK                         _______ _______ _______ _____ _____    ______ ____
ROOT
ATOM      1  N   UNL     1       0.103  -8.471  -2.006  0.00  0.00    -0.206 N 
ATOM      2  C   UNL     1       1.252  -9.161  -2.224  0.00  0.00    +0.168 A 
ATOM      3  N   UNL     1       1.350 -10.448  -2.083  0.00  0.00    -0.228 NA
ATOM      4  C   UNL     1       0.291 -11.204  -1.699  0.00  0.00    +0.078 A 
ATOM      5  C   UNL     1       0.395 -12.588  -1.546  0.00  0.00    +0.028 A 
ATOM      6  C   UNL     1      -0.706 -13.316  -1.154  0.00  0.00    +0.002 A 
ATOM      7  C   UNL     1      -1.922 -12.691  -0.910  0.00  0.00    +0.001 A 
ATOM      8  C   UNL     1      -2.050 -11.327  -1.054  0.00  0.00    +0.015 A 
ATOM      9  C   UNL     1      -0.947 -10.572  -1.449  0.00  0.00    +0.066 A 
ATOM     10  C   UNL     1      -1.023  -9.112  -1.614  0.00  0.00    +0.279 A 
ATOM     11  O   UNL     1      -2.058  -8.505  -1.409  0.00  0.00    -0.265 OA
ENDROOT
BRANCH   1  14
ATOM     12  C   UNL     1       0.079  -6.266  -1.108  0.00  0.00    +0.269 C 
ATOM     13  O   UNL     1       0.090  -6.735   0.010  0.00  0.00    -0.270 OA
ATOM     14  N   UNL     1       0.084  -7.081  -2.182  0.00  0.00    -0.216 N 
ATOM     15  H   UNL     1       0.074  -6.705  -3.076  0.00  0.00    +0.176 HD
BRANCH  12  16
ATOM     16  C   UNL     1       0.058  -4.771  -1.298  0.00  0.00    +0.326 C 
BRANCH  16  17
ATOM     17  O   UNL     1       0.057  -4.129  -0.021  0.00  0.00    -0.482 OA
BRANCH  17  22
ATOM     18  C   UNL     1      -0.018   1.503   0.010  0.00  0.00    +0.044 C 
ATOM     19  C   UNL     1       0.002  -0.004   0.002  0.00  0.00    -0.050 A 
ATOM     20  C   UNL     1       0.006  -0.688  -1.200  0.00  0.00    +0.007 A 
ATOM     21  C   UNL     1       0.024  -2.069  -1.210  0.00  0.00    +0.046 A 
ATOM     22  C   UNL     1       0.039  -2.770  -0.013  0.00  0.00    +0.125 A 
ATOM     23  C   UNL     1       0.036  -2.082   1.191  0.00  0.00    -0.003 A 
ATOM     24  C   UNL     1       0.023  -0.701   1.196  0.00  0.00    +0.010 A 
BRANCH  23  25
ATOM     25  C   UNL     1       0.052  -2.841   2.493  0.00  0.00    +0.016 C 
ATOM     26  C   UNL     1       1.300  -2.458   3.291  0.00  0.00    +0.012 C 
ATOM     27  C   UNL     1      -1.198  -2.491   3.303  0.00  0.00    +0.012 C 
ENDBRANCH  23  25
ENDBRANCH  17  22
ENDBRANCH  16  17
ENDBRANCH  12  16
ENDBRANCH   1  14
BRANCH   2  28
ATOM     28  C   UNL     1       2.476  -8.394  -2.654  0.00  0.00    +0.305 C 
BRANCH  28  29
ATOM     29  O   UNL     1       3.568  -9.299  -2.830  0.00  0.00    -0.484 OA
BRANCH  29  30
ATOM     30  C   UNL     1       4.754  -8.766  -3.219  0.00  0.00    +0.129 A 
ATOM     31  C   UNL     1       4.870  -7.419  -3.421  0.00  0.00    +0.046 A 
ATOM     32  C   UNL     1       6.079  -6.857  -3.820  0.00  0.00    +0.004 A 
ATOM     33  C   UNL     1       7.182  -7.631  -4.020  0.00  0.00    +0.009 A 
ATOM     34  C   UNL     1       7.104  -9.020  -3.823  0.00  0.00    -0.014 A 
ATOM     35  C   UNL     1       5.877  -9.596  -3.412  0.00  0.00    +0.024 A 
ATOM     36  C   UNL     1       5.801 -10.984  -3.211  0.00  0.00    +0.012 A 
ATOM     37  C   UNL     1       6.905 -11.755  -3.408  0.00  0.00    +0.001 A 
ATOM     38  C   UNL     1       8.114 -11.188  -3.807  0.00  0.00    +0.001 A 
ATOM     39  C   UNL     1       8.222  -9.848  -4.022  0.00  0.00    +0.008 A 
ENDBRANCH  29  30
ENDBRANCH  28  29
ENDBRANCH   2  28
TORSDOF 8
