REMARK  Name = ZINC18049685
REMARK  7 active torsions:
REMARK  status: ('A' for Active; 'I' for Inactive)
REMARK    1  A    between atoms: C_4  and  C_7
REMARK    2  A    between atoms: C_7  and  C_9
REMARK    3  A    between atoms: C_7  and  S_25
REMARK    4  A    between atoms: N_11  and  C_12
REMARK    5  A    between atoms: C_12  and  C_13
REMARK    6  A    between atoms: N_15  and  C_16
REMARK    7  A    between atoms: S_25  and  C_26
REMARK                            x       y       z     vdW  Elec       q    Type
REMARK                         _______ _______ _______ _____ _____    ______ ____
ROOT
ATOM      1  C   UNL     1      -5.382   1.520   0.126  0.00  0.00    +0.231 C 
ATOM      2  O   UNL     1      -5.533   0.352  -0.164  0.00  0.00    -0.274 OA
ATOM      3  N   UNL     1      -6.429   2.246   0.567  0.00  0.00    -0.306 N 
ATOM      4  H   UNL     1      -6.309   3.180   0.798  0.00  0.00    +0.149 HD
ENDROOT
BRANCH   1   5
ATOM      5  C   UNL     1      -4.025   2.161  -0.007  0.00  0.00    +0.167 C 
BRANCH   5   9
ATOM      6  C   UNL     1      -3.859   4.407  -3.637  0.00  0.00    +0.000 A 
ATOM      7  C   UNL     1      -3.668   5.040  -2.423  0.00  0.00    +0.000 A 
ATOM      8  C   UNL     1      -3.722   4.313  -1.248  0.00  0.00    +0.005 A 
ATOM      9  C   UNL     1      -3.966   2.953  -1.288  0.00  0.00    -0.025 A 
ATOM     10  C   UNL     1      -4.152   2.319  -2.502  0.00  0.00    +0.005 A 
ATOM     11  C   UNL     1      -4.102   3.047  -3.676  0.00  0.00    +0.000 A 
ENDBRANCH   5   9
BRANCH   5  12
ATOM     12  S   UNL     1      -2.748   0.872  -0.035  0.00  0.00    -0.108 S 
BRANCH  12  13
ATOM     13  C   UNL     1      -1.234   1.772  -0.043  0.00  0.00    +0.009 A 
ATOM     14  C   UNL     1      -0.021   1.094  -0.064  0.00  0.00    +0.015 A 
ATOM     15  C   UNL     1       1.164   1.803  -0.076  0.00  0.00    +0.001 A 
ATOM     16  C   UNL     1       1.145   3.186  -0.062  0.00  0.00    +0.000 A 
ATOM     17  C   UNL     1      -0.060   3.864  -0.036  0.00  0.00    +0.001 A 
ATOM     18  C   UNL     1      -1.249   3.162  -0.024  0.00  0.00    +0.015 A 
ENDBRANCH  12  13
ENDBRANCH   5  12
ENDBRANCH   1   5
BRANCH   3  19
ATOM     19  C   UNL     1      -7.749   1.623   0.696  0.00  0.00    +0.200 C 
BRANCH  19  20
ATOM     20  C   UNL     1      -8.737   2.641   1.204  0.00  0.00    +0.234 C 
ATOM     21  O   UNL     1      -8.374   3.775   1.436  0.00  0.00    -0.274 OA
ATOM     22  N   UNL     1     -10.024   2.292   1.401  0.00  0.00    -0.282 N 
ATOM     23  H   UNL     1     -10.328   1.404   1.156  0.00  0.00    +0.155 HD
BRANCH  22  24
ATOM     24  C   UNL     1     -10.921   3.211   1.962  0.00  0.00    +0.072 A 
ATOM     25  C   UNL     1     -10.800   4.564   1.676  0.00  0.00    +0.029 A 
ATOM     26  C   UNL     1     -11.688   5.468   2.225  0.00  0.00    +0.043 A 
ATOM     27  C   UNL     1     -12.694   5.029   3.069  0.00  0.00    +0.161 A 
ATOM     28  C   UNL     1     -12.816   3.679   3.361  0.00  0.00    +0.195 A 
ATOM     29  C   UNL     1     -11.931   2.769   2.809  0.00  0.00    +0.182 A 
ATOM     30  F   UNL     1     -12.049   1.453   3.093  0.00  0.00    -0.200 F 
ATOM     31  F   UNL     1     -13.798   3.253   4.185  0.00  0.00    -0.199 F 
ATOM     32  F   UNL     1     -13.558   5.917   3.608  0.00  0.00    -0.202 F 
ENDBRANCH  22  24
ENDBRANCH  19  20
ENDBRANCH   3  19
TORSDOF 7
