REMARK  Name = ZINC40404958
REMARK  14 active torsions:
REMARK  status: ('A' for Active; 'I' for Inactive)
REMARK    1  A    between atoms: C_1  and  C_2
REMARK    2  A    between atoms: C_2  and  C_3
REMARK    3  A    between atoms: C_3  and  N_4
REMARK    4  A    between atoms: N_4  and  C_5
REMARK    5  A    between atoms: N_4  and  C_25
REMARK    6  A    between atoms: C_5  and  C_6
REMARK    7  A    between atoms: C_12  and  C_17
REMARK    8  A    between atoms: C_20  and  O_23
REMARK    9  A    between atoms: O_23  and  C_24
REMARK   10  A    between atoms: C_25  and  C_26
REMARK   11  A    between atoms: C_26  and  C_28
REMARK   12  A    between atoms: C_26  and  O_37
REMARK   13  A    between atoms: C_28  and  O_29
REMARK   14  A    between atoms: O_29  and  C_30
REMARK                            x       y       z     vdW  Elec       q    Type
REMARK                         _______ _______ _______ _____ _____    ______ ____
ROOT
ATOM      1  C   UNL     1      -0.580  -2.692  -1.133  0.00  0.00    -0.003 C 
ENDROOT
BRANCH   1   2
ATOM      2  C   UNL     1      -1.421  -2.378   0.078  0.00  0.00    +0.094 A 
ATOM      3  N   UNL     1      -2.664  -2.915   0.183  0.00  0.00    -0.312 N 
ATOM      4  H   UNL     1      -2.995  -3.492  -0.523  0.00  0.00    +0.170 HD
ATOM      5  C   UNL     1      -3.447  -2.661   1.248  0.00  0.00    +0.260 A 
ATOM      6  O   UNL     1      -4.561  -3.151   1.328  0.00  0.00    -0.267 OA
ATOM      7  C   UNL     1      -2.952  -1.808   2.285  0.00  0.00    +0.080 A 
ATOM      8  C   UNL     1      -3.600  -1.388   3.522  0.00  0.00    +0.004 A 
ATOM      9  C   UNL     1      -2.928  -0.566   4.363  0.00  0.00    +0.056 A 
ATOM     10  S   UNL     1      -1.372  -0.308   3.532  0.00  0.00    -0.076 S 
ATOM     11  C   UNL     1      -1.658  -1.300   2.089  0.00  0.00    +0.116 A 
ATOM     12  N   UNL     1      -0.940  -1.601   1.010  0.00  0.00    -0.229 NA
BRANCH   8  13
ATOM     13  C   UNL     1      -4.969  -1.851   3.853  0.00  0.00    -0.016 A 
ATOM     14  C   UNL     1      -5.990  -1.743   2.910  0.00  0.00    +0.012 A 
ATOM     15  C   UNL     1      -7.263  -2.176   3.220  0.00  0.00    +0.046 A 
ATOM     16  C   UNL     1      -7.527  -2.718   4.471  0.00  0.00    +0.120 A 
ATOM     17  C   UNL     1      -6.513  -2.827   5.412  0.00  0.00    +0.046 A 
ATOM     18  C   UNL     1      -5.237  -2.401   5.106  0.00  0.00    +0.012 A 
BRANCH  16  19
ATOM     19  O   UNL     1      -8.782  -3.143   4.774  0.00  0.00    -0.495 OA
ATOM     20  C   UNL     1      -8.984  -3.691   6.078  0.00  0.00    +0.277 C 
ENDBRANCH  16  19
ENDBRANCH   8  13
ENDBRANCH   1   2
BRANCH   1  21
ATOM     21  N   UNL     1       0.652  -1.893  -1.093  0.00  0.00    +0.386 N 
ATOM     22  H   UNL     1       1.119  -2.039  -0.210  0.00  0.00    -0.081 HD
BRANCH  21  23
ATOM     23  C   UNL     1       0.318  -0.470  -1.239  0.00  0.00    -0.078 C 
BRANCH  23  25
ATOM     24  C   UNL     1      -0.740   1.226  -2.738  0.00  0.00    +0.002 C 
ATOM     25  C   UNL     1      -0.264  -0.224  -2.633  0.00  0.00    -0.022 C 
ENDBRANCH  23  25
ENDBRANCH  21  23
BRANCH  21  26
ATOM     26  C   UNL     1       1.538  -2.304  -2.190  0.00  0.00    -0.043 C 
BRANCH  26  27
ATOM     27  C   UNL     1       2.889  -1.600  -2.045  0.00  0.00    +0.135 C 
BRANCH  27  28
ATOM     28  O   UNL     1       2.719  -0.196  -2.250  0.00  0.00    -0.390 OA
ATOM     29  H   UNL     1       2.369   0.035  -3.121  0.00  0.00    +0.210 HD
ENDBRANCH  27  28
BRANCH  27  30
ATOM     30  C   UNL     1       3.865  -2.152  -3.086  0.00  0.00    +0.258 C 
BRANCH  30  31
ATOM     31  O   UNL     1       5.158  -1.581  -2.876  0.00  0.00    -0.489 OA
BRANCH  31  32
ATOM     32  C   UNL     1       6.149  -1.969  -3.722  0.00  0.00    +0.121 A 
ATOM     33  C   UNL     1       5.881  -2.877  -4.736  0.00  0.00    +0.047 A 
ATOM     34  C   UNL     1       6.889  -3.270  -5.595  0.00  0.00    +0.023 A 
ATOM     35  C   UNL     1       8.166  -2.759  -5.444  0.00  0.00    +0.041 A 
ATOM     36  C   UNL     1       8.436  -1.854  -4.433  0.00  0.00    +0.023 A 
ATOM     37  C   UNL     1       7.428  -1.453  -3.576  0.00  0.00    +0.047 A 
ATOM     38 CL   UNL     1       9.431  -3.255  -6.524  0.00  0.00    -0.084 Cl
ENDBRANCH  31  32
ENDBRANCH  30  31
ENDBRANCH  27  30
ENDBRANCH  26  27
ENDBRANCH  21  26
ENDBRANCH   1  21
TORSDOF 12
