REMARK  Name = ZINC63061905
REMARK  7 active torsions:
REMARK  status: ('A' for Active; 'I' for Inactive)
REMARK    1  A    between atoms: C_1  and  C_2
REMARK    2  A    between atoms: C_2  and  C_3
REMARK    3  A    between atoms: C_3  and  O_4
REMARK    4  A    between atoms: O_4  and  C_5
REMARK    5  A    between atoms: C_7  and  O_12
REMARK    6  A    between atoms: O_12  and  C_13
REMARK    7  A    between atoms: C_18  and  C_19
REMARK                            x       y       z     vdW  Elec       q    Type
REMARK                         _______ _______ _______ _____ _____    ______ ____
ROOT
ATOM      1  C   UNL     1      -2.643  -2.613  -0.444  0.00  0.00    +0.325 A 
ATOM      2  N   UNL     1      -2.683  -3.922  -0.227  0.00  0.00    -0.141 NA
ATOM      3  C   UNL     1      -3.851  -4.553  -0.202  0.00  0.00    +0.330 A 
ATOM      4  N   UNL     1      -4.976  -3.873  -0.394  0.00  0.00    -0.164 NA
ATOM      5  C   UNL     1      -4.934  -2.569  -0.611  0.00  0.00    +0.231 A 
ATOM      6  N   UNL     1      -3.771  -1.937  -0.631  0.00  0.00    -0.164 NA
ATOM      7 CL   UNL     1      -6.406  -1.684  -0.862  0.00  0.00    -0.041 Cl
ENDROOT
BRANCH   1   8
ATOM      8  O   UNL     1      -1.454  -1.967  -0.469  0.00  0.00    -0.462 OA
BRANCH   8   9
ATOM      9  C   UNL     1      -1.487  -0.558  -0.702  0.00  0.00    +0.232 C 
BRANCH   9  11
ATOM     10  C   UNL     1      -0.094   1.502  -0.945  0.00  0.00    +0.007 C 
ATOM     11  C   UNL     1      -0.060  -0.007  -0.696  0.00  0.00    +0.038 C 
ENDBRANCH   9  11
ENDBRANCH   8   9
ENDBRANCH   1   8
BRANCH   3  12
ATOM     12  O   UNL     1      -3.895  -5.887   0.019  0.00  0.00    -0.423 OA
BRANCH  12  13
ATOM     13  C   UNL     1      -5.115  -6.476   0.132  0.00  0.00    +0.135 A 
ATOM     14  C   UNL     1      -5.715  -7.051  -0.979  0.00  0.00    +0.048 A 
ATOM     15  C   UNL     1      -6.954  -7.648  -0.862  0.00  0.00    +0.019 A 
ATOM     16  C   UNL     1      -7.598  -7.673   0.363  0.00  0.00    +0.018 A 
ATOM     17  C   UNL     1      -7.002  -7.101   1.472  0.00  0.00    +0.022 A 
ATOM     18  C   UNL     1      -5.759  -6.507   1.360  0.00  0.00    -0.007 A 
ATOM     19  C   UNL     1      -5.107  -5.889   2.570  0.00  0.00    +0.047 C 
ATOM     20 BR   UNL     1      -9.296  -8.491   0.521  0.00  0.00    -0.050 Br
ENDBRANCH  12  13
ENDBRANCH   3  12
TORSDOF 5
