REMARK  Name = ZINC14271469
REMARK  7 active torsions:
REMARK  status: ('A' for Active; 'I' for Inactive)
REMARK    1  A    between atoms: C_1  and  C_2
REMARK    2  A    between atoms: C_3  and  C_26
REMARK    3  A    between atoms: C_5  and  N_9
REMARK    4  A    between atoms: C_6  and  C_7
REMARK    5  A    between atoms: N_9  and  C_10
REMARK    6  A    between atoms: C_10  and  N_12
REMARK    7  A    between atoms: C_13  and  C_15
REMARK                            x       y       z     vdW  Elec       q    Type
REMARK                         _______ _______ _______ _____ _____    ______ ____
ROOT
ATOM      1  N   UNL     1      -1.903  -3.062   0.003  0.00  0.00    -0.263 N 
ATOM      2  C   UNL     1      -1.688  -4.393  -0.006  0.00  0.00    +0.258 C 
ATOM      3  O   UNL     1      -0.551  -4.825  -0.019  0.00  0.00    -0.269 OA
ATOM      4  H   UNL     1      -2.810  -2.717   0.013  0.00  0.00    +0.157 HD
ENDROOT
BRANCH   2   5
ATOM      5  C   UNL     1      -2.825  -5.319  -0.001  0.00  0.00    +0.094 A 
ATOM      6  C   UNL     1      -2.810  -6.681  -0.014  0.00  0.00    +0.068 A 
ATOM      7  C   UNL     1      -4.023  -7.395  -0.002  0.00  0.00    +0.008 A 
ATOM      8  C   UNL     1      -4.213  -8.801  -0.008  0.00  0.00    +0.012 A 
ATOM      9  C   UNL     1      -5.462  -9.333  -0.000  0.00  0.00    +0.021 A 
ATOM     10  C   UNL     1      -6.597  -8.529   0.014  0.00  0.00    +0.042 A 
ATOM     11  C   UNL     1      -6.457  -7.155   0.021  0.00  0.00    +0.035 A 
ATOM     12  C   UNL     1      -5.194  -6.601   0.013  0.00  0.00    +0.023 A 
ATOM     13  S   UNL     1      -4.569  -4.940   0.017  0.00  0.00    -0.082 S 
ATOM     14 CL   UNL     1      -8.178  -9.247   0.025  0.00  0.00    -0.084 Cl
ATOM     15 CL   UNL     1      -1.298  -7.534  -0.040  0.00  0.00    -0.082 Cl
ENDBRANCH   2   5
BRANCH   1  16
ATOM     16  C   UNL     1      -0.858  -2.211  -0.002  0.00  0.00    +0.141 C 
ATOM     17  S   UNL     1       0.742  -2.819  -0.020  0.00  0.00    -0.018 S 
BRANCH  16  18
ATOM     18  N   UNL     1      -1.073  -0.880   0.007  0.00  0.00    -0.290 N 
ATOM     19  H   UNL     1      -1.980  -0.536   0.017  0.00  0.00    +0.154 HD
BRANCH  18  24
ATOM     20  C   UNL     1       1.365   3.556   0.008  0.00  0.00    +0.046 C 
ATOM     21  C   UNL     1       1.263   2.052   0.001  0.00  0.00    -0.021 A 
ATOM     22  C   UNL     1       2.361   1.274  -0.014  0.00  0.00    -0.007 A 
ATOM     23  S   UNL     1       1.693  -0.377  -0.016  0.00  0.00    -0.077 S 
ATOM     24  C   UNL     1       0.002  -0.004   0.002  0.00  0.00    +0.089 A 
ATOM     25  C   UNL     1      -0.017   1.385   0.010  0.00  0.00    +0.083 A 
ATOM     26  C   UNL     1       3.807   1.698  -0.025  0.00  0.00    +0.052 C 
BRANCH  25  27
ATOM     27  C   UNL     1      -1.246   2.119   0.019  0.00  0.00    +0.102 C 
ATOM     28  N   UNL     1      -2.221   2.702   0.027  0.00  0.00    -0.191 NA
ENDBRANCH  25  27
ENDBRANCH  18  24
ENDBRANCH  16  18
ENDBRANCH   1  16
TORSDOF 5
