REMARK  Name = ZINC04292961
REMARK  7 active torsions:
REMARK  status: ('A' for Active; 'I' for Inactive)
REMARK    1  A    between atoms: C_1  and  C_2
REMARK    2  A    between atoms: C_2  and  C_3
REMARK    3  A    between atoms: C_6  and  N_9
REMARK    4  A    between atoms: C_10  and  C_12
REMARK    5  A    between atoms: N_14  and  N_15
REMARK    6  A    between atoms: C_16  and  C_17
REMARK    7  A    between atoms: C_26  and  O_27
REMARK                            x       y       z     vdW  Elec       q    Type
REMARK                         _______ _______ _______ _____ _____    ______ ____
ROOT
ATOM      1  C   UNL     1      -7.429  -2.512  -1.097  0.00  0.00    +0.318 C 
ATOM      2  O   UNL     1      -7.987  -2.722  -0.039  0.00  0.00    -0.263 OA
ATOM      3  N   UNL     1      -8.105  -2.648  -2.254  0.00  0.00    -0.199 N 
ATOM      4  H   UNL     1      -7.660  -2.480  -3.099  0.00  0.00    +0.178 HD
ENDROOT
BRANCH   1   6
ATOM      5  N   UNL     1      -5.319  -1.966   0.042  0.00  0.00    -0.278 N 
ATOM      6  C   UNL     1      -5.996  -2.103  -1.115  0.00  0.00    +0.305 C 
ATOM      7  O   UNL     1      -5.438  -1.892  -2.173  0.00  0.00    -0.265 OA
ATOM      8  H   UNL     1      -5.740  -2.208   0.882  0.00  0.00    +0.155 HD
BRANCH   5  12
ATOM      9  C   UNL     1      -1.418  -0.509   0.014  0.00  0.00    -0.048 A 
ATOM     10  C   UNL     1      -1.796  -1.450   0.954  0.00  0.00    +0.005 A 
ATOM     11  C   UNL     1      -3.089  -1.935   0.966  0.00  0.00    +0.023 A 
ATOM     12  C   UNL     1      -4.010  -1.477   0.033  0.00  0.00    +0.034 A 
ATOM     13  C   UNL     1      -3.627  -0.532  -0.910  0.00  0.00    +0.023 A 
ATOM     14  C   UNL     1      -2.334  -0.047  -0.913  0.00  0.00    +0.005 A 
BRANCH   9  16
ATOM     15  C   UNL     1       0.085   1.250   0.907  0.00  0.00    +0.009 C 
ATOM     16  C   UNL     1      -0.006   0.018   0.004  0.00  0.00    +0.032 C 
ENDBRANCH   9  16
ENDBRANCH   5  12
ENDBRANCH   1   6
BRANCH   3  17
ATOM     17  N   UNL     1      -9.453  -3.033  -2.237  0.00  0.00    -0.187 NA
ATOM     18  C   UNL     1     -10.106  -3.164  -3.355  0.00  0.00    +0.142 C 
BRANCH  18  19
ATOM     19  C   UNL     1     -11.518  -3.567  -3.337  0.00  0.00    +0.044 A 
ATOM     20  C   UNL     1     -12.265  -3.726  -4.583  0.00  0.00    -0.006 A 
ATOM     21  C   UNL     1     -11.666  -3.502  -5.828  0.00  0.00    +0.009 A 
ATOM     22  C   UNL     1     -12.398  -3.661  -6.967  0.00  0.00    +0.001 A 
ATOM     23  C   UNL     1     -13.736  -4.044  -6.910  0.00  0.00    +0.001 A 
ATOM     24  C   UNL     1     -14.350  -4.270  -5.715  0.00  0.00    +0.008 A 
ATOM     25  C   UNL     1     -13.625  -4.116  -4.521  0.00  0.00    -0.017 A 
ATOM     26  C   UNL     1     -14.225  -4.342  -3.269  0.00  0.00    +0.012 A 
ATOM     27  C   UNL     1     -13.516  -4.190  -2.120  0.00  0.00    +0.046 A 
ATOM     28  C   UNL     1     -12.174  -3.813  -2.130  0.00  0.00    +0.126 A 
BRANCH  28  29
ATOM     29  O   UNL     1     -11.503  -3.679  -0.958  0.00  0.00    -0.506 OA
ATOM     30  H   UNL     1     -11.550  -2.791  -0.577  0.00  0.00    +0.292 HD
ENDBRANCH  28  29
ENDBRANCH  18  19
ENDBRANCH   3  17
TORSDOF 6
