REMARK  Name = ZINC02389004
REMARK  7 active torsions:
REMARK  status: ('A' for Active; 'I' for Inactive)
REMARK    1  A    between atoms: C_1  and  C_2
REMARK    2  A    between atoms: C_7  and  N_8
REMARK    3  A    between atoms: C_9  and  C_11
REMARK    4  A    between atoms: C_11  and  S_12
REMARK    5  A    between atoms: S_12  and  C_13
REMARK    6  A    between atoms: C_16  and  C_19
REMARK    7  A    between atoms: N_17  and  N_18
REMARK                            x       y       z     vdW  Elec       q    Type
REMARK                         _______ _______ _______ _____ _____    ______ ____
ROOT
ATOM      1  S   UNL     1      -5.062   0.932  -0.533  0.00  0.00    -0.075 S 
ENDROOT
BRANCH   1   2
ATOM      2  C   UNL     1      -6.428   2.044  -0.500  0.00  0.00    +0.209 A 
ATOM      3  N   UNL     1      -6.370   3.346  -0.317  0.00  0.00    -0.121 NA
ATOM      4  N   UNL     1      -7.552   3.849  -0.354  0.00  0.00    -0.127 NA
ATOM      5  C   UNL     1      -8.437   2.900  -0.554  0.00  0.00    +0.182 A 
ATOM      6  N   UNL     1      -7.744   1.716  -0.654  0.00  0.00    -0.224 N 
BRANCH   5   7
ATOM      7  C   UNL     1      -9.901   3.072  -0.654  0.00  0.00    +0.024 A 
ATOM      8  C   UNL     1     -10.464   4.334  -0.882  0.00  0.00    +0.031 A 
ATOM      9  C   UNL     1     -11.835   4.447  -0.974  0.00  0.00    +0.111 A 
ATOM     10  N   UNL     1     -12.614   3.390  -0.840  0.00  0.00    -0.263 NA
ATOM     11  C   UNL     1     -12.125   2.184  -0.618  0.00  0.00    +0.111 A 
ATOM     12  C   UNL     1     -10.765   1.978  -0.518  0.00  0.00    +0.031 A 
ENDBRANCH   5   7
BRANCH   6  13
ATOM     13  N   UNL     1      -8.264   0.470  -0.863  0.00  0.00    -0.295 N 
ATOM     14  H   UNL     1      -8.565   0.053   0.005  0.00  0.00    +0.163 HD
ATOM     15  H   UNL     1      -9.020   0.501  -1.530  0.00  0.00    +0.163 HD
ENDBRANCH   6  13
ENDBRANCH   1   2
BRANCH   1  16
ATOM     16  C   UNL     1      -3.702   2.096  -0.265  0.00  0.00    +0.173 C 
BRANCH  16  18
ATOM     17  N   UNL     1      -1.238   2.013  -0.070  0.00  0.00    -0.285 N 
ATOM     18  C   UNL     1      -2.394   1.347  -0.255  0.00  0.00    +0.227 C 
ATOM     19  O   UNL     1      -2.383   0.144  -0.413  0.00  0.00    -0.275 OA
ATOM     20  H   UNL     1      -1.251   2.963   0.129  0.00  0.00    +0.155 HD
BRANCH  17  27
ATOM     21  C   UNL     1       1.002   3.419  -1.119  0.00  0.00    +0.046 C 
ATOM     22  C   UNL     1       1.101   1.983  -0.673  0.00  0.00    -0.028 A 
ATOM     23  C   UNL     1       2.303   1.310  -0.770  0.00  0.00    +0.025 A 
ATOM     24  C   UNL     1       2.394  -0.009  -0.362  0.00  0.00    +0.041 A 
ATOM     25  C   UNL     1       1.282  -0.656   0.146  0.00  0.00    +0.022 A 
ATOM     26  C   UNL     1       0.077   0.012   0.246  0.00  0.00    +0.025 A 
ATOM     27  C   UNL     1      -0.017   1.335  -0.164  0.00  0.00    +0.036 A 
ATOM     28 CL   UNL     1       3.907  -0.852  -0.486  0.00  0.00    -0.084 Cl
ENDBRANCH  17  27
ENDBRANCH  16  18
ENDBRANCH   1  16
TORSDOF 6
