REMARK  Name = ZINC40010139
REMARK  6 active torsions:
REMARK  status: ('A' for Active; 'I' for Inactive)
REMARK    1  A    between atoms: C_1  and  C_2
REMARK    2  A    between atoms: C_9  and  C_14
REMARK    3  A    between atoms: C_18  and  O_27
REMARK    4  A    between atoms: C_19  and  O_25
REMARK    5  A    between atoms: O_25  and  C_26
REMARK    6  A    between atoms: O_27  and  C_28
REMARK                            x       y       z     vdW  Elec       q    Type
REMARK                         _______ _______ _______ _____ _____    ______ ____
ROOT
ATOM      1  C   UNL     1      -1.152  -4.909   2.945  0.00  0.00    -0.025 C 
ATOM      2  C   UNL     1      -1.125  -4.427   4.372  0.00  0.00    -0.054 A 
ATOM      3  C   UNL     1      -0.744  -3.116   4.620  0.00  0.00    +0.051 A 
ATOM      4  C   UNL     1      -0.709  -2.631   5.915  0.00  0.00    +0.162 A 
ATOM      5  C   UNL     1      -1.058  -3.463   6.974  0.00  0.00    +0.162 A 
ATOM      6  C   UNL     1      -1.437  -4.770   6.722  0.00  0.00    +0.053 A 
ATOM      7  C   UNL     1      -1.470  -5.251   5.422  0.00  0.00    -0.044 A 
ATOM      8  C   UNL     1      -1.881  -6.684   5.194  0.00  0.00    +0.016 C 
ATOM      9  C   UNL     1      -2.236  -6.892   3.721  0.00  0.00    -0.077 C 
ATOM     10  N   UNL     1      -1.135  -6.373   2.896  0.00  0.00    +0.385 N 
ATOM     11  H   UNL     1      -1.255  -6.681   1.942  0.00  0.00    -0.085 HD
ATOM     12  H   UNL     1      -0.255  -6.713   3.254  0.00  0.00    -0.085 HD
ENDROOT
BRANCH   1  21
ATOM     13  C   UNL     1       1.416  -6.529  -3.519  0.00  0.00    +0.044 C 
ATOM     14  C   UNL     1       1.555  -6.280  -2.039  0.00  0.00    -0.050 A 
ATOM     15  C   UNL     1       2.645  -6.818  -1.355  0.00  0.00    +0.005 A 
ATOM     16  C   UNL     1       2.837  -6.635  -0.022  0.00  0.00    +0.024 A 
ATOM     17  C   UNL     1       1.922  -5.879   0.734  0.00  0.00    +0.040 A 
ATOM     18  N   UNL     1       2.121  -5.706   2.040  0.00  0.00    -0.285 N 
ATOM     19  C   UNL     1       1.302  -5.009   2.809  0.00  0.00    +0.223 C 
ATOM     20  O   UNL     1       1.535  -4.886   3.997  0.00  0.00    -0.275 OA
ATOM     21  C   UNL     1       0.073  -4.365   2.207  0.00  0.00    +0.089 C 
ATOM     22  C   UNL     1      -0.157  -4.559   0.721  0.00  0.00    -0.006 C 
ATOM     23  C   UNL     1       0.761  -5.299   0.037  0.00  0.00    -0.007 A 
ATOM     24  C   UNL     1       0.619  -5.531  -1.401  0.00  0.00    +0.012 A 
ATOM     25  H   UNL     1       2.904  -6.111   2.446  0.00  0.00    +0.155 HD
ENDBRANCH   1  21
BRANCH   5  26
ATOM     26  O   UNL     1      -1.028  -2.994   8.250  0.00  0.00    -0.491 OA
ATOM     27  C   UNL     1      -1.401  -3.907   9.285  0.00  0.00    +0.277 C 
ENDBRANCH   5  26
BRANCH   4  28
ATOM     28  O   UNL     1      -0.334  -1.345   6.152  0.00  0.00    -0.491 OA
ATOM     29  C   UNL     1       0.011  -0.549   5.016  0.00  0.00    +0.277 C 
ENDBRANCH   4  28
TORSDOF 3
