REMARK  Name = ZINC13597410
REMARK  4 active torsions:
REMARK  status: ('A' for Active; 'I' for Inactive)
REMARK    1  A    between atoms: C_5  and  O_8
REMARK    2  A    between atoms: C_6  and  O_7
REMARK    3  A    between atoms: C_12  and  O_25
REMARK    4  A    between atoms: C_13  and  O_24
REMARK                            x       y       z     vdW  Elec       q    Type
REMARK                         _______ _______ _______ _____ _____    ______ ____
ROOT
ATOM      1  C   UNL     1      -0.139   1.524   0.622  0.00  0.00    +0.061 A 
ATOM      2  C   UNL     1       1.094   2.100   0.306  0.00  0.00    +0.029 A 
ATOM      3  C   UNL     1       2.263   1.311   0.247  0.00  0.00    +0.140 A 
ATOM      4  C   UNL     1       2.175  -0.045   0.526  0.00  0.00    +0.096 A 
ATOM      5  C   UNL     1       0.949  -0.604   0.845  0.00  0.00    +0.162 A 
ATOM      6  C   UNL     1      -0.207   0.183   0.890  0.00  0.00    +0.159 A 
ATOM      7  O   UNL     1       3.444   1.873  -0.090  0.00  0.00    -0.455 OA
ATOM      8  C   UNL     1       3.663   3.180   0.174  0.00  0.00    +0.140 A 
ATOM      9  C   UNL     1       4.948   3.656   0.391  0.00  0.00    +0.096 A 
ATOM     10  C   UNL     1       5.151   5.002   0.646  0.00  0.00    +0.162 A 
ATOM     11  C   UNL     1       4.071   5.893   0.686  0.00  0.00    +0.159 A 
ATOM     12  C   UNL     1       2.796   5.440   0.479  0.00  0.00    +0.061 A 
ATOM     13  C   UNL     1       2.579   4.083   0.232  0.00  0.00    +0.029 A 
ATOM     14  C   UNL     1       1.226   3.540   0.030  0.00  0.00    +0.007 C 
ATOM     15  C   UNL     1       0.102   4.366  -0.409  0.00  0.00    +0.030 C 
ATOM     16  C   UNL     1      -1.171   4.189   0.153  0.00  0.00    +0.012 C 
ATOM     17  C   UNL     1      -2.213   4.965  -0.262  0.00  0.00    +0.001 C 
ATOM     18  C   UNL     1      -2.033   5.934  -1.243  0.00  0.00    +0.004 C 
ATOM     19  C   UNL     1      -0.809   6.134  -1.812  0.00  0.00    +0.051 C 
ATOM     20  C   UNL     1       0.287   5.359  -1.405  0.00  0.00    +0.187 C 
ATOM     21  O   UNL     1       1.391   5.535  -1.907  0.00  0.00    -0.287 OA
ENDROOT
BRANCH   6  22
ATOM     22  O   UNL     1      -1.403  -0.386   1.200  0.00  0.00    -0.503 OA
ATOM     23  H   UNL     1      -1.893  -0.714   0.433  0.00  0.00    +0.292 HD
ENDBRANCH   6  22
BRANCH   5  24
ATOM     24  O   UNL     1       0.868  -1.931   1.118  0.00  0.00    -0.503 OA
ATOM     25  H   UNL     1       0.991  -2.149   2.052  0.00  0.00    +0.292 HD
ENDBRANCH   5  24
BRANCH  11  26
ATOM     26  O   UNL     1       4.291   7.212   0.932  0.00  0.00    -0.503 OA
ATOM     27  H   UNL     1       4.443   7.740   0.137  0.00  0.00    +0.292 HD
ENDBRANCH  11  26
BRANCH  10  28
ATOM     28  O   UNL     1       6.409   5.462   0.859  0.00  0.00    -0.503 OA
ATOM     29  H   UNL     1       6.865   5.746   0.055  0.00  0.00    +0.292 HD
ENDBRANCH  10  28
TORSDOF 4
