REMARK  Name = ZINC00985862
REMARK  10 active torsions:
REMARK  status: ('A' for Active; 'I' for Inactive)
REMARK    1  A    between atoms: C_1  and  C_2
REMARK    2  A    between atoms: C_2  and  C_3
REMARK    3  A    between atoms: C_2  and  C_4
REMARK    4  A    between atoms: C_4  and  C_5
REMARK    5  A    between atoms: C_8  and  C_11
REMARK    6  A    between atoms: C_18  and  N_39
REMARK    7  A    between atoms: C_19  and  C_37
REMARK    8  A    between atoms: C_20  and  C_22
REMARK    9  A    between atoms: C_25  and  O_28
REMARK   10  A    between atoms: O_28  and  C_29
REMARK                            x       y       z     vdW  Elec       q    Type
REMARK                         _______ _______ _______ _____ _____    ______ ____
ROOT
ATOM      1  C   UNL     1      -1.398  -6.339  -0.486  0.00  0.00    +0.100 A 
ATOM      2  C   UNL     1      -0.613  -7.198   0.288  0.00  0.00    +0.054 A 
ATOM      3  C   UNL     1      -0.857  -8.477  -0.120  0.00  0.00    +0.223 A 
ATOM      4  N   UNL     1      -1.766  -8.424  -1.116  0.00  0.00    -0.246 N 
ATOM      5  H   UNL     1      -2.130  -9.183  -1.597  0.00  0.00    +0.192 HD
ATOM      6  N   UNL     1      -2.097  -7.076  -1.329  0.00  0.00    -0.171 NA
ATOM      7  O   UNL     1      -0.245  -9.553   0.436  0.00  0.00    -0.423 OA
ATOM      8  C   UNL     1       0.825  -9.324   1.225  0.00  0.00    +0.200 C 
ATOM      9  C   UNL     1       1.161  -8.105   1.701  0.00  0.00    +0.098 C 
ATOM     10  C   UNL     1       0.355  -6.867   1.395  0.00  0.00    +0.102 C 
ENDROOT
BRANCH   1  14
ATOM     11  C   UNL     1      -1.527  -2.100  -0.173  0.00  0.00    -0.047 A 
ATOM     12  C   UNL     1      -0.314  -2.760  -0.099  0.00  0.00    +0.004 A 
ATOM     13  C   UNL     1      -0.266  -4.135  -0.200  0.00  0.00    +0.010 A 
ATOM     14  C   UNL     1      -1.443  -4.859  -0.377  0.00  0.00    +0.003 A 
ATOM     15  C   UNL     1      -2.663  -4.190  -0.450  0.00  0.00    +0.010 A 
ATOM     16  C   UNL     1      -2.699  -2.814  -0.342  0.00  0.00    +0.004 A 
BRANCH  11  17
ATOM     17  C   UNL     1      -1.573  -0.598  -0.061  0.00  0.00    +0.038 C 
BRANCH  17  19
ATOM     18  C   UNL     1      -1.649   1.323   1.535  0.00  0.00    +0.007 C 
ATOM     19  C   UNL     1      -1.728  -0.200   1.408  0.00  0.00    -0.013 C 
ATOM     20  C   UNL     1      -3.082  -0.686   1.928  0.00  0.00    +0.007 C 
ENDBRANCH  17  19
ENDBRANCH  11  17
ENDBRANCH   1  14
BRANCH  10  21
ATOM     21  C   UNL     1      -0.405  -6.437   2.623  0.00  0.00    -0.034 A 
ATOM     22  C   UNL     1      -1.294  -7.309   3.225  0.00  0.00    +0.008 A 
ATOM     23  C   UNL     1      -1.991  -6.917   4.351  0.00  0.00    +0.047 A 
ATOM     24  C   UNL     1      -1.799  -5.648   4.879  0.00  0.00    +0.133 A 
ATOM     25  C   UNL     1      -0.906  -4.776   4.274  0.00  0.00    +0.047 A 
ATOM     26  C   UNL     1      -0.207  -5.174   3.150  0.00  0.00    +0.008 A 
BRANCH  24  27
ATOM     27  O   UNL     1      -2.484  -5.261   5.987  0.00  0.00    -0.411 OA
BRANCH  27  28
ATOM     28  C   UNL     1      -2.057  -5.707   7.183  0.00  0.00    +0.408 C 
ATOM     29  O   UNL     1      -1.142  -6.504   7.243  0.00  0.00    -0.226 OA
ATOM     30  N   UNL     1      -2.645  -5.271   8.315  0.00  0.00    -0.263 N 
ATOM     31  C   UNL     1      -3.759  -4.310   8.268  0.00  0.00    +0.139 C 
ATOM     32  C   UNL     1      -4.906  -4.859   9.124  0.00  0.00    +0.179 C 
ATOM     33  O   UNL     1      -4.408  -5.190  10.422  0.00  0.00    -0.377 OA
ATOM     34  C   UNL     1      -3.415  -6.219  10.423  0.00  0.00    +0.179 C 
ATOM     35  C   UNL     1      -2.195  -5.745   9.633  0.00  0.00    +0.139 C 
ENDBRANCH  27  28
ENDBRANCH  24  27
ENDBRANCH  10  21
BRANCH   8  36
ATOM     36  N   UNL     1       1.619 -10.392   1.563  0.00  0.00    -0.328 N 
ATOM     37  H   UNL     1       1.403 -11.279   1.236  0.00  0.00    +0.145 HD
ATOM     38  H   UNL     1       2.395 -10.259   2.129  0.00  0.00    +0.145 HD
ENDBRANCH   8  36
BRANCH   9  39
ATOM     39  C   UNL     1       2.324  -7.984   2.528  0.00  0.00    +0.101 C 
ATOM     40  N   UNL     1       3.246  -7.888   3.183  0.00  0.00    -0.191 NA
ENDBRANCH   9  39
TORSDOF 8
