REMARK  Name = ZINC27695983
REMARK  12 active torsions:
REMARK  status: ('A' for Active; 'I' for Inactive)
REMARK    1  A    between atoms: C_1  and  C_2
REMARK    2  A    between atoms: C_2  and  C_4
REMARK    3  A    between atoms: C_2  and  C_16
REMARK    4  A    between atoms: C_9  and  O_14
REMARK    5  A    between atoms: O_14  and  C_15
REMARK    6  A    between atoms: N_24  and  C_25
REMARK    7  A    between atoms: C_25  and  C_26
REMARK    8  A    between atoms: C_26  and  C_28
REMARK    9  A    between atoms: C_26  and  O_37
REMARK   10  A    between atoms: C_28  and  N_29
REMARK   11  A    between atoms: N_29  and  C_30
REMARK   12  A    between atoms: N_29  and  C_31
REMARK                            x       y       z     vdW  Elec       q    Type
REMARK                         _______ _______ _______ _____ _____    ______ ____
ROOT
ATOM      1  C   UNL     1      -0.578  -4.804   1.210  0.00  0.00    +0.118 A 
ATOM      2  N   UNL     1      -1.818  -4.566   1.527  0.00  0.00    -0.232 NA
ATOM      3  C   UNL     1      -2.117  -5.187   2.696  0.00  0.00    +0.089 A 
ATOM      4  C   UNL     1      -3.274  -5.267   3.476  0.00  0.00    +0.030 A 
ATOM      5  C   UNL     1      -3.263  -5.985   4.639  0.00  0.00    +0.002 A 
ATOM      6  C   UNL     1      -2.112  -6.637   5.057  0.00  0.00    +0.002 A 
ATOM      7  C   UNL     1      -0.959  -6.572   4.303  0.00  0.00    +0.028 A 
ATOM      8  C   UNL     1      -0.951  -5.847   3.119  0.00  0.00    +0.069 A 
ATOM      9  N   UNL     1       0.004  -5.586   2.158  0.00  0.00    -0.325 N 
ENDROOT
BRANCH   1  11
ATOM     10  C   UNL     1      -0.613  -4.797  -1.270  0.00  0.00    +0.020 C 
ATOM     11  C   UNL     1       0.113  -4.284  -0.024  0.00  0.00    +0.082 C 
BRANCH  11  12
ATOM     12  C   UNL     1       0.089  -2.777  -0.015  0.00  0.00    -0.037 A 
ATOM     13  C   UNL     1      -1.134  -2.109   0.001  0.00  0.00    +0.005 A 
ATOM     14  C   UNL     1      -1.190  -0.749   0.009  0.00  0.00    +0.009 A 
ATOM     15  C   UNL     1       0.002  -0.004   0.002  0.00  0.00    -0.014 A 
ATOM     16  C   UNL     1      -0.017   1.400   0.010  0.00  0.00    +0.054 A 
ATOM     17  C   UNL     1       1.161   2.091   0.002  0.00  0.00    +0.121 A 
ATOM     18  C   UNL     1       2.387   1.419  -0.013  0.00  0.00    +0.046 A 
ATOM     19  C   UNL     1       2.439   0.060  -0.021  0.00  0.00    +0.012 A 
ATOM     20  C   UNL     1       1.246  -0.683  -0.013  0.00  0.00    -0.017 A 
ATOM     21  C   UNL     1       1.264  -2.088  -0.021  0.00  0.00    +0.012 A 
BRANCH  17  22
ATOM     22  O   UNL     1       1.141   3.450   0.009  0.00  0.00    -0.495 OA
ATOM     23  C   UNL     1       2.405   4.117   0.001  0.00  0.00    +0.277 C 
ENDBRANCH  17  22
ENDBRANCH  11  12
ENDBRANCH   1  11
BRANCH   9  24
ATOM     24  C   UNL     1       1.389  -6.064   2.159  0.00  0.00    +0.153 C 
BRANCH  24  25
ATOM     25  C   UNL     1       2.278  -5.050   2.882  0.00  0.00    +0.118 C 
BRANCH  25  26
ATOM     26  O   UNL     1       2.300  -3.825   2.147  0.00  0.00    -0.392 OA
ATOM     27  H   UNL     1       2.891  -2.973   2.515  0.00  0.00    +0.210 HD
ENDBRANCH  25  26
BRANCH  25  28
ATOM     28  C   UNL     1       3.700  -5.605   2.993  0.00  0.00    -0.045 C 
BRANCH  28  29
ATOM     29  N   UNL     1       4.523  -4.687   3.791  0.00  0.00    +0.381 N 
ATOM     30  C   UNL     1       4.058  -4.639   5.184  0.00  0.00    -0.096 C 
ATOM     31  H   UNL     1       4.417  -3.679   3.364  0.00  0.00    -0.082 HD
BRANCH  29  32
ATOM     32  C   UNL     1       5.943  -5.059   3.723  0.00  0.00    -0.069 C 
ATOM     33  C   UNL     1       6.144  -6.427   4.378  0.00  0.00    -0.015 C 
ATOM     34  C   UNL     1       7.622  -6.814   4.306  0.00  0.00    -0.002 C 
ATOM     35  C   UNL     1       8.459  -5.768   5.045  0.00  0.00    -0.000 C 
ATOM     36  C   UNL     1       8.258  -4.400   4.390  0.00  0.00    -0.002 C 
ATOM     37  C   UNL     1       6.780  -4.013   4.461  0.00  0.00    -0.015 C 
ENDBRANCH  29  32
ENDBRANCH  28  29
ENDBRANCH  25  28
ENDBRANCH  24  25
ENDBRANCH   9  24
TORSDOF 9
