REMARK  Name = ZINC04873763
REMARK  5 active torsions:
REMARK  status: ('A' for Active; 'I' for Inactive)
REMARK    1  A    between atoms: C_1  and  C_2
REMARK    2  A    between atoms: C_4  and  C_5
REMARK    3  A    between atoms: N_6  and  N_7
REMARK    4  A    between atoms: C_8  and  C_10
REMARK    5  A    between atoms: C_10  and  C_11
REMARK                            x       y       z     vdW  Elec       q    Type
REMARK                         _______ _______ _______ _____ _____    ______ ____
ROOT
ATOM      1  N   UNL     1       0.257  -4.791  -3.647  0.00  0.00    -0.230 N 
ATOM      2  C   UNL     1       0.377  -6.133  -3.654  0.00  0.00    +0.232 C 
ATOM      3  O   UNL     1       0.390  -6.746  -2.608  0.00  0.00    -0.274 OA
ATOM      4  H   UNL     1       0.247  -4.300  -4.484  0.00  0.00    +0.175 HD
ENDROOT
BRANCH   1   6
ATOM      5  C   UNL     1       0.029  -2.768  -2.424  0.00  0.00    +0.110 C 
ATOM      6  N   UNL     1       0.148  -4.104  -2.431  0.00  0.00    -0.311 N 
ATOM      7  H   UNL     1       0.158  -4.594  -1.594  0.00  0.00    +0.184 HD
BRANCH   5  11
ATOM      8  C   UNL     1       0.002   1.503   0.010  0.00  0.00    +0.044 C 
ATOM      9  C   UNL     1       0.012  -0.004   0.002  0.00  0.00    -0.050 A 
ATOM     10  C   UNL     1       0.015  -0.662  -1.188  0.00  0.00    +0.016 A 
ATOM     11  C   UNL     1       0.025  -2.073  -1.211  0.00  0.00    +0.039 A 
ATOM     12  C   UNL     1       0.032  -2.795   0.068  0.00  0.00    +0.187 A 
ATOM     13  O   UNL     1       0.041  -4.018   0.095  0.00  0.00    -0.287 OA
ATOM     14  C   UNL     1       0.029  -2.051   1.260  0.00  0.00    +0.052 A 
ATOM     15  C   UNL     1       0.025  -0.690   1.212  0.00  0.00    +0.007 A 
ENDBRANCH   5  11
ENDBRANCH   1   6
BRANCH   2  16
ATOM     16  C   UNL     1       0.495  -6.872  -4.962  0.00  0.00    +0.121 C 
BRANCH  16  17
ATOM     17  C   UNL     1       0.618  -8.373  -4.691  0.00  0.00    +0.146 C 
ATOM     18  C   UNL     1       0.623  -9.125  -5.996  0.00  0.00    +0.231 C 
ATOM     19  O   UNL     1      -0.414  -9.625  -6.378  0.00  0.00    -0.274 OA
ATOM     20  N   UNL     1       1.708  -9.266  -6.751  0.00  0.00    -0.284 N 
ATOM     21  C   UNL     1       3.002  -8.866  -6.428  0.00  0.00    +0.047 A 
ATOM     22  C   UNL     1       3.953  -8.765  -7.439  0.00  0.00    +0.024 A 
ATOM     23  C   UNL     1       5.240  -8.362  -7.146  0.00  0.00    +0.002 A 
ATOM     24  C   UNL     1       5.600  -8.053  -5.847  0.00  0.00    +0.001 A 
ATOM     25  C   UNL     1       4.666  -8.153  -4.832  0.00  0.00    +0.016 A 
ATOM     26  C   UNL     1       3.374  -8.561  -5.120  0.00  0.00    +0.030 A 
ATOM     27  S   UNL     1       2.179  -8.711  -3.820  0.00  0.00    -0.110 S 
ATOM     28  H   UNL     1       1.586  -9.690  -7.615  0.00  0.00    +0.155 HD
ENDBRANCH  16  17
ENDBRANCH   2  16
TORSDOF 4
