REMARK  Name = ZINC01199878
REMARK  10 active torsions:
REMARK  status: ('A' for Active; 'I' for Inactive)
REMARK    1  A    between atoms: C_1  and  C_2
REMARK    2  A    between atoms: C_2  and  C_3
REMARK    3  A    between atoms: C_3  and  C_5
REMARK    4  A    between atoms: C_3  and  C_11
REMARK    5  A    between atoms: N_13  and  C_14
REMARK    6  A    between atoms: C_15  and  C_28
REMARK    7  A    between atoms: C_20  and  C_24
REMARK    8  A    between atoms: C_24  and  C_25
REMARK    9  A    between atoms: C_24  and  C_26
REMARK   10  A    between atoms: C_24  and  C_27
REMARK                            x       y       z     vdW  Elec       q    Type
REMARK                         _______ _______ _______ _____ _____    ______ ____
ROOT
ATOM      1  C   UNL     1       6.506  -0.715   2.476  0.00  0.00    +0.084 A 
ATOM      2  C   UNL     1       7.719  -1.268   2.860  0.00  0.00    +0.068 A 
ATOM      3  C   UNL     1       8.301  -0.809   4.110  0.00  0.00    -0.023 A 
ATOM      4  C   UNL     1       7.577   0.116   4.776  0.00  0.00    -0.004 A 
ATOM      5  S   UNL     1       6.148   0.385   3.766  0.00  0.00    -0.077 S 
ATOM      6  C   UNL     1       7.922   0.764   6.081  0.00  0.00    +0.046 C 
ATOM      7  C   UNL     1       9.406   0.501   6.375  0.00  0.00    -0.000 C 
ATOM      8  C   UNL     1       9.696  -0.987   6.156  0.00  0.00    +0.009 C 
ATOM      9  C   UNL     1       9.628  -1.316   4.663  0.00  0.00    +0.037 C 
ENDROOT
BRANCH   2  10
ATOM     10  C   UNL     1       8.390  -2.276   2.033  0.00  0.00    +0.244 C 
ATOM     11  O   UNL     1       9.181  -1.931   1.175  0.00  0.00    -0.270 OA
ATOM     12  N   UNL     1       8.132  -3.585   2.224  0.00  0.00    -0.325 N 
ATOM     13  H   UNL     1       7.502  -3.861   2.908  0.00  0.00    +0.145 HD
ATOM     14  H   UNL     1       8.576  -4.252   1.677  0.00  0.00    +0.145 HD
ENDBRANCH   2  10
BRANCH   1  17
ATOM     15  C   UNL     1       4.589  -0.344   1.137  0.00  0.00    +0.225 C 
ATOM     16  O   UNL     1       4.232   0.526   1.903  0.00  0.00    -0.275 OA
ATOM     17  N   UNL     1       5.758  -0.982   1.339  0.00  0.00    -0.279 N 
ATOM     18  H   UNL     1       6.077  -1.628   0.690  0.00  0.00    +0.155 HD
BRANCH  15  19
ATOM     19  C   UNL     1       3.724  -0.711  -0.042  0.00  0.00    +0.105 C 
BRANCH  19  20
ATOM     20  C   UNL     1       2.837  -1.872   0.328  0.00  0.00    -0.036 A 
ATOM     21  C   UNL     1       2.919  -3.057  -0.379  0.00  0.00    +0.004 A 
ATOM     22  C   UNL     1       2.105  -4.121  -0.041  0.00  0.00    +0.000 A 
ATOM     23  C   UNL     1       1.209  -4.001   1.005  0.00  0.00    +0.000 A 
ATOM     24  C   UNL     1       1.128  -2.816   1.713  0.00  0.00    +0.000 A 
ATOM     25  C   UNL     1       1.942  -1.751   1.374  0.00  0.00    +0.004 A 
ENDBRANCH  19  20
BRANCH  19  27
ATOM     26  C   UNL     1       3.753   1.619  -0.945  0.00  0.00    +0.005 C 
ATOM     27  C   UNL     1       2.858   0.489  -0.432  0.00  0.00    +0.014 C 
ENDBRANCH  19  27
ENDBRANCH  15  19
ENDBRANCH   1  17
BRANCH   7  28
ATOM     28  C   UNL     1       9.716   0.875   7.826  0.00  0.00    -0.035 C 
ATOM     29  C   UNL     1      11.191   0.595   8.121  0.00  0.00    +0.011 C 
ATOM     30  C   UNL     1       9.426   2.362   8.042  0.00  0.00    +0.011 C 
ATOM     31  C   UNL     1       8.841   0.043   8.765  0.00  0.00    +0.011 C 
ENDBRANCH   7  28
TORSDOF 6
