REMARK  Name = ZINC25575512
REMARK  6 active torsions:
REMARK  status: ('A' for Active; 'I' for Inactive)
REMARK    1  A    between atoms: C_1  and  O_2
REMARK    2  A    between atoms: O_2  and  C_3
REMARK    3  A    between atoms: C_6  and  C_11
REMARK    4  A    between atoms: C_8  and  O_9
REMARK    5  A    between atoms: O_9  and  C_10
REMARK    6  A    between atoms: C_22  and  C_24
REMARK                            x       y       z     vdW  Elec       q    Type
REMARK                         _______ _______ _______ _____ _____    ______ ____
ROOT
ATOM      1  C   UNL     1       2.507  -2.501  -4.386  0.00  0.00    +0.159 C 
ATOM      2  C   UNL     1       3.995  -2.547  -4.117  0.00  0.00    +0.027 C 
ATOM      3  C   UNL     1       4.819  -1.952  -5.003  0.00  0.00    +0.083 C 
ATOM      4  C   UNL     1       6.278  -2.014  -4.731  0.00  0.00    +0.042 A 
ATOM      5  C   UNL     1       7.174  -1.181  -5.386  0.00  0.00    +0.013 A 
ATOM      6  C   UNL     1       8.523  -1.270  -5.100  0.00  0.00    +0.001 A 
ATOM      7  C   UNL     1       8.978  -2.185  -4.166  0.00  0.00    +0.004 A 
ATOM      8  C   UNL     1       8.092  -3.019  -3.510  0.00  0.00    +0.046 A 
ATOM      9  C   UNL     1       6.738  -2.941  -3.787  0.00  0.00    +0.131 A 
ATOM     10  O   UNL     1       5.847  -3.752  -3.163  0.00  0.00    -0.479 OA
ATOM     11  C   UNL     1       4.546  -3.225  -2.896  0.00  0.00    +0.234 C 
ATOM     12  N   UNL     1       4.341  -1.321  -6.104  0.00  0.00    -0.213 NA
ATOM     13  C   UNL     1       3.068  -1.234  -6.412  0.00  0.00    +0.237 C 
ATOM     14  N   UNL     1       2.101  -1.794  -5.607  0.00  0.00    -0.208 N 
ATOM     15  N   UNL     1       0.873  -1.522  -6.214  0.00  0.00    -0.251 N 
ATOM     16  C   UNL     1       1.149  -0.814  -7.343  0.00  0.00    +0.203 C 
ATOM     17  N   UNL     1       2.429  -0.653  -7.452  0.00  0.00    -0.205 NA
ATOM     18  H   UNL     1      -0.004  -1.786  -5.894  0.00  0.00    +0.171 HD
ENDROOT
BRANCH  11  19
ATOM     19  C   UNL     1       4.633  -2.228  -1.769  0.00  0.00    -0.003 A 
ATOM     20  C   UNL     1       5.687  -1.336  -1.716  0.00  0.00    +0.008 A 
ATOM     21  C   UNL     1       5.767  -0.421  -0.683  0.00  0.00    +0.015 A 
ATOM     22  C   UNL     1       4.792  -0.399   0.298  0.00  0.00    +0.018 A 
ATOM     23  C   UNL     1       3.737  -1.293   0.244  0.00  0.00    +0.015 A 
ATOM     24  C   UNL     1       3.655  -2.203  -0.792  0.00  0.00    +0.008 A 
ATOM     25 BR   UNL     1       4.902   0.851   1.712  0.00  0.00    -0.050 Br
ENDBRANCH  11  19
BRANCH   1  29
ATOM     26  C   UNL     1       0.606  -0.608  -1.056  0.00  0.00    +0.162 A 
ATOM     27  C   UNL     1       1.173   0.159  -2.062  0.00  0.00    +0.050 A 
ATOM     28  C   UNL     1       1.787  -0.456  -3.137  0.00  0.00    +0.009 A 
ATOM     29  C   UNL     1       1.837  -1.836  -3.212  0.00  0.00    -0.017 A 
ATOM     30  C   UNL     1       1.273  -2.606  -2.212  0.00  0.00    +0.055 A 
ATOM     31  C   UNL     1       0.662  -1.996  -1.129  0.00  0.00    +0.162 A 
BRANCH  26  33
ATOM     32  C   UNL     1      -0.017   1.425   0.010  0.00  0.00    +0.277 C 
ATOM     33  O   UNL     1       0.002  -0.004   0.002  0.00  0.00    -0.491 OA
ENDBRANCH  26  33
BRANCH  31  34
ATOM     34  O   UNL     1       0.112  -2.753  -0.142  0.00  0.00    -0.491 OA
ATOM     35  C   UNL     1       0.206  -4.171  -0.283  0.00  0.00    +0.277 C 
ENDBRANCH  31  34
ENDBRANCH   1  29
TORSDOF 4
