REMARK  Name = ZINC10149235
REMARK  10 active torsions:
REMARK  status: ('A' for Active; 'I' for Inactive)
REMARK    1  A    between atoms: C_1  and  C_2
REMARK    2  A    between atoms: C_2  and  C_3
REMARK    3  A    between atoms: C_4  and  C_24
REMARK    4  A    between atoms: C_6  and  N_11
REMARK    5  A    between atoms: C_7  and  C_8
REMARK    6  A    between atoms: C_12  and  C_14
REMARK    7  A    between atoms: C_14  and  O_15
REMARK    8  A    between atoms: O_15  and  C_16
REMARK    9  A    between atoms: C_19  and  C_23
REMARK   10  A    between atoms: C_20  and  C_22
REMARK                            x       y       z     vdW  Elec       q    Type
REMARK                         _______ _______ _______ _____ _____    ______ ____
ROOT
ATOM      1  N   UNL     1      -6.056   3.382   0.077  0.00  0.00    -0.277 N 
ATOM      2  C   UNL     1      -4.816   3.913   0.068  0.00  0.00    +0.255 C 
ATOM      3  O   UNL     1      -4.672   5.117   0.072  0.00  0.00    -0.272 OA
ATOM      4  H   UNL     1      -6.171   2.419   0.074  0.00  0.00    +0.155 HD
ENDROOT
BRANCH   1   8
ATOM      5  C   UNL     1      -9.465   4.941   0.117  0.00  0.00    -0.024 A 
ATOM      6  C   UNL     1      -8.976   6.194   0.118  0.00  0.00    -0.008 A 
ATOM      7  S   UNL     1      -7.213   5.944   0.108  0.00  0.00    -0.078 S 
ATOM      8  C   UNL     1      -7.165   4.214   0.092  0.00  0.00    +0.084 A 
ATOM      9  C   UNL     1      -8.509   3.860   0.103  0.00  0.00    +0.068 A 
ATOM     10  C   UNL     1      -9.736   7.495   0.131  0.00  0.00    +0.052 C 
BRANCH   9  11
ATOM     11  C   UNL     1      -8.935   2.456   0.100  0.00  0.00    +0.244 C 
ATOM     12  O   UNL     1      -9.102   1.869   1.153  0.00  0.00    -0.270 OA
ATOM     13  N   UNL     1      -9.141   1.817  -1.069  0.00  0.00    -0.325 N 
ATOM     14  H   UNL     1      -9.008   2.285  -1.908  0.00  0.00    +0.145 HD
ATOM     15  H   UNL     1      -9.423   0.889  -1.071  0.00  0.00    +0.145 HD
ENDBRANCH   9  11
BRANCH   5  17
ATOM     16  C   UNL     1     -11.438   4.581   1.576  0.00  0.00    +0.009 C 
ATOM     17  C   UNL     1     -10.949   4.677   0.129  0.00  0.00    +0.033 C 
ENDBRANCH   5  17
ENDBRANCH   1   8
BRANCH   2  18
ATOM     18  C   UNL     1      -3.610   3.009   0.052  0.00  0.00    +0.324 C 
BRANCH  18  19
ATOM     19  O   UNL     1      -2.421   3.802   0.045  0.00  0.00    -0.483 OA
BRANCH  19  20
ATOM     20  C   UNL     1      -1.236   3.137   0.030  0.00  0.00    +0.121 A 
ATOM     21  C   UNL     1      -1.218   1.750   0.017  0.00  0.00    +0.046 A 
ATOM     22  C   UNL     1      -0.013   1.076   0.008  0.00  0.00    +0.007 A 
ATOM     23  C   UNL     1       1.176   1.783   0.000  0.00  0.00    -0.047 A 
ATOM     24  C   UNL     1       1.161   3.165   0.007  0.00  0.00    -0.044 A 
ATOM     25  C   UNL     1      -0.043   3.844   0.022  0.00  0.00    +0.049 A 
ATOM     26  C   UNL     1       2.457   3.933  -0.002  0.00  0.00    +0.044 C 
ATOM     27  C   UNL     1       2.490   1.045  -0.016  0.00  0.00    +0.044 C 
ENDBRANCH  19  20
ENDBRANCH  18  19
ENDBRANCH   2  18
TORSDOF 6
