REMARK  Name = ZINC43551122
REMARK  4 active torsions:
REMARK  status: ('A' for Active; 'I' for Inactive)
REMARK    1  A    between atoms: C_1  and  C_2
REMARK    2  A    between atoms: C_3  and  C_20
REMARK    3  A    between atoms: C_12  and  C_19
REMARK    4  A    between atoms: C_15  and  C_18
REMARK                            x       y       z     vdW  Elec       q    Type
REMARK                         _______ _______ _______ _____ _____    ______ ____
ROOT
ATOM      1  C   UNL     1       0.001   0.152  -1.087  0.00  0.00    +0.066 C 
ATOM      2  C   UNL     1       0.003   0.469   0.386  0.00  0.00    +0.050 A 
ATOM      3  C   UNL     1      -0.012   1.747   0.836  0.00  0.00    +0.011 A 
ATOM      4  S   UNL     1      -0.001   1.479   2.601  0.00  0.00    -0.057 S 
ATOM      5  C   UNL     1       0.021  -0.204   2.581  0.00  0.00    +0.166 A 
ATOM      6  N   UNL     1       0.014  -0.488   1.296  0.00  0.00    -0.230 NA
ATOM      7  N   UNL     1       0.037  -1.080   3.659  0.00  0.00    -0.248 N 
ATOM      8  C   UNL     1       0.053  -2.411   3.446  0.00  0.00    +0.308 C 
ATOM      9  O   UNL     1      -0.039  -2.846   2.315  0.00  0.00    -0.252 OA
ATOM     10  N   UNL     1       0.172  -3.259   4.487  0.00  0.00    -0.285 N 
ATOM     11  C   UNL     1       0.309  -4.704   4.263  0.00  0.00    +0.112 C 
ATOM     12  C   UNL     1       1.557  -5.202   5.000  0.00  0.00    +0.004 C 
ATOM     13  C   UNL     1       1.468  -4.800   6.474  0.00  0.00    +0.009 C 
ATOM     14  C   UNL     1       1.417  -3.274   6.586  0.00  0.00    +0.004 C 
ATOM     15  C   UNL     1       0.174  -2.754   5.867  0.00  0.00    +0.112 C 
ATOM     16  C   UNL     1       1.363  -2.872   8.061  0.00  0.00    +0.009 C 
ATOM     17  C   UNL     1       1.641  -6.725   4.890  0.00  0.00    +0.009 C 
ATOM     18  C   UNL     1      -0.031   3.039   0.060  0.00  0.00    +0.053 C 
ATOM     19  H   UNL     1       0.035  -0.734   4.566  0.00  0.00    +0.158 HD
ENDROOT
TORSDOF 0
