REMARK  Name = ZINC16156293
REMARK  3 active torsions:
REMARK  status: ('A' for Active; 'I' for Inactive)
REMARK    1  A    between atoms: C_3  and  N_28
REMARK    2  A    between atoms: C_6  and  C_7
REMARK    3  A    between atoms: C_20  and  C_23
REMARK                            x       y       z     vdW  Elec       q    Type
REMARK                         _______ _______ _______ _____ _____    ______ ____
ROOT
ATOM      1  C   UNL     1      -0.076   5.747   0.033  0.00  0.00    +0.105 C 
ATOM      2  C   UNL     1      -0.439   6.251   1.414  0.00  0.00    +0.029 C 
ATOM      3  C   UNL     1       0.433   5.812   2.595  0.00  0.00    +0.033 C 
ATOM      4  C   UNL     1      -0.579   5.832   3.744  0.00  0.00    -0.030 C 
ATOM      5  C   UNL     1      -1.805   5.643   3.270  0.00  0.00    -0.023 C 
ATOM      6  C   UNL     1      -1.719   5.447   1.802  0.00  0.00    +0.049 C 
ATOM      7  C   UNL     1      -2.789   5.882   0.877  0.00  0.00    -0.017 A 
ATOM      8  C   UNL     1      -4.110   5.934   1.270  0.00  0.00    +0.026 A 
ATOM      9  C   UNL     1      -5.091   6.335   0.382  0.00  0.00    +0.042 A 
ATOM     10  C   UNL     1      -4.741   6.686  -0.910  0.00  0.00    +0.034 A 
ATOM     11  C   UNL     1      -3.424   6.639  -1.309  0.00  0.00    +0.077 A 
ATOM     12  C   UNL     1      -2.421   6.242  -0.422  0.00  0.00    +0.043 A 
ATOM     13  N   UNL     1      -1.109   6.240  -0.892  0.00  0.00    -0.336 N 
ATOM     14 CL   UNL     1      -6.751   6.399   0.885  0.00  0.00    -0.084 Cl
ATOM     15  H   UNL     1      -0.858   7.143  -1.267  0.00  0.00    +0.147 HD
ENDROOT
BRANCH   1  21
ATOM     16  C   UNL     1      -1.181   3.536  -0.362  0.00  0.00    +0.008 A 
ATOM     17  C   UNL     1      -1.162   2.154  -0.369  0.00  0.00    +0.033 A 
ATOM     18  C   UNL     1      -0.018   1.476   0.008  0.00  0.00    +0.126 A 
ATOM     19  C   UNL     1       1.106   2.180   0.399  0.00  0.00    +0.033 A 
ATOM     20  C   UNL     1       1.088   3.562   0.403  0.00  0.00    +0.008 A 
ATOM     21  C   UNL     1      -0.056   4.240   0.025  0.00  0.00    -0.027 A 
BRANCH  18  22
ATOM     22  N   UNL     1       0.002  -0.004   0.000  0.00  0.00    +0.056 N 
ATOM     23  O   UNL     1      -0.989  -0.625  -0.340  0.00  0.00    -0.126 OA
ATOM     24  O   UNL     1       1.010  -0.601   0.333  0.00  0.00    -0.126 OA
ENDBRANCH  18  22
ENDBRANCH   1  21
BRANCH  11  25
ATOM     25  C   UNL     1      -3.060   7.023  -2.720  0.00  0.00    +0.419 C 
ATOM     26  F   UNL     1      -4.217   7.382  -3.419  0.00  0.00    -0.166 F 
ATOM     27  F   UNL     1      -2.174   8.106  -2.695  0.00  0.00    -0.166 F 
ATOM     28  F   UNL     1      -2.450   5.936  -3.356  0.00  0.00    -0.166 F 
ENDBRANCH  11  25
TORSDOF 3
