REMARK  Name = ZINC08558909
REMARK  3 active torsions:
REMARK  status: ('A' for Active; 'I' for Inactive)
REMARK    1  A    between atoms: C_1  and  C_2
REMARK    2  A    between atoms: C_4  and  C_26
REMARK    3  A    between atoms: C_9  and  C_19
REMARK                            x       y       z     vdW  Elec       q    Type
REMARK                         _______ _______ _______ _____ _____    ______ ____
ROOT
ATOM      1  C   UNL     1       4.754   5.176  -0.011  0.00  0.00    +0.066 C 
ATOM      2  C   UNL     1       3.292   4.810   0.003  0.00  0.00    +0.044 A 
ATOM      3  C   UNL     1       2.322   5.799   0.021  0.00  0.00    +0.046 A 
ATOM      4  C   UNL     1       0.989   5.419   0.032  0.00  0.00    +0.044 A 
ATOM      5  N   UNL     1       0.685   4.132   0.025  0.00  0.00    -0.218 NA
ATOM      6  C   UNL     1       1.637   3.211   0.007  0.00  0.00    +0.236 A 
ATOM      7  N   UNL     1       2.920   3.541   0.001  0.00  0.00    -0.218 NA
ATOM      8  N   UNL     1       1.283   1.873  -0.000  0.00  0.00    -0.209 N 
ATOM      9  C   UNL     1       2.198   0.716  -0.019  0.00  0.00    +0.162 C 
ATOM     10  C   UNL     1       1.281  -0.475  -0.022  0.00  0.00    +0.040 C 
ATOM     11  C   UNL     1       0.002  -0.004   0.002  0.00  0.00    +0.031 C 
ATOM     12  N   UNL     1      -0.016   1.347   0.009  0.00  0.00    -0.265 N 
ATOM     13  C   UNL     1      -1.189  -0.940   0.024  0.00  0.00    +0.053 C 
ATOM     14  C   UNL     1      -0.747  -2.255   0.675  0.00  0.00    +0.014 C 
ATOM     15  C   UNL     1       0.460  -2.833  -0.067  0.00  0.00    +0.080 C 
ATOM     16  C   UNL     1       1.599  -1.839  -0.047  0.00  0.00    +0.163 C 
ATOM     17  O   UNL     1       2.756  -2.212  -0.052  0.00  0.00    -0.292 OA
ATOM     18  C   UNL     1      -0.101   6.460   0.053  0.00  0.00    +0.066 C 
ATOM     19  H   UNL     1      -0.824   1.883   0.016  0.00  0.00    +0.170 HD
ENDROOT
BRANCH   9  20
ATOM     20  C   UNL     1       3.067   0.710   1.212  0.00  0.00    -0.021 A 
ATOM     21  C   UNL     1       2.562   1.162   2.417  0.00  0.00    +0.007 A 
ATOM     22  C   UNL     1       3.357   1.152   3.547  0.00  0.00    +0.020 A 
ATOM     23  C   UNL     1       4.662   0.699   3.470  0.00  0.00    +0.041 A 
ATOM     24  C   UNL     1       5.169   0.251   2.263  0.00  0.00    +0.020 A 
ATOM     25  C   UNL     1       4.371   0.257   1.135  0.00  0.00    +0.007 A 
ATOM     26 CL   UNL     1       5.664   0.692   4.888  0.00  0.00    -0.084 Cl
ENDBRANCH   9  20
TORSDOF 1
