REMARK  Name = ZINC14291575
REMARK  2 active torsions:
REMARK  status: ('A' for Active; 'I' for Inactive)
REMARK    1  A    between atoms: C_6  and  C_7
REMARK    2  A    between atoms: N_9  and  C_10
REMARK                            x       y       z     vdW  Elec       q    Type
REMARK                         _______ _______ _______ _____ _____    ______ ____
ROOT
ATOM      1  C   UNL     1       1.168   1.727  -0.061  0.00  0.00    +0.118 A 
ATOM      2  C   UNL     1       1.102   3.102  -0.190  0.00  0.00    +0.142 A 
ATOM      3  N   UNL     1       2.236   3.797  -0.246  0.00  0.00    -0.229 NA
ATOM      4  C   UNL     1       3.399   3.196  -0.193  0.00  0.00    +0.181 A 
ATOM      5  N   UNL     1       3.558   1.847  -0.072  0.00  0.00    -0.257 N 
ATOM      6  C   UNL     1       2.418   1.096  -0.004  0.00  0.00    +0.280 A 
ATOM      7  O   UNL     1       2.488  -0.118   0.105  0.00  0.00    -0.265 OA
ATOM      8  C   UNL     1       4.859   1.340  -0.028  0.00  0.00    +0.039 A 
ATOM      9  C   UNL     1       5.875   2.200  -0.104  0.00  0.00    +0.013 A 
ATOM     10  S   UNL     1       5.077   3.784  -0.246  0.00  0.00    -0.054 S 
ATOM     11  C   UNL     1       7.214   1.522  -0.039  0.00  0.00    +0.044 C 
ATOM     12  C   UNL     1       6.906   0.115   0.521  0.00  0.00    +0.011 C 
ATOM     13  C   UNL     1       5.437  -0.074   0.092  0.00  0.00    +0.055 C 
ENDROOT
BRANCH   1  16
ATOM     14  C   UNL     1      -0.248   0.184   1.080  0.00  0.00    +0.248 C 
ATOM     15  O   UNL     1       0.515   0.204   2.026  0.00  0.00    -0.270 OA
ATOM     16  N   UNL     1      -0.011   0.966   0.007  0.00  0.00    -0.276 N 
ATOM     17  H   UNL     1      -0.657   1.006  -0.716  0.00  0.00    +0.155 HD
BRANCH  14  23
ATOM     18  C   UNL     1      -2.315  -0.717   0.022  0.00  0.00    +0.014 A 
ATOM     19  C   UNL     1      -3.417  -1.544   0.049  0.00  0.00    +0.021 A 
ATOM     20  C   UNL     1      -3.658  -2.346   1.152  0.00  0.00    +0.041 A 
ATOM     21  C   UNL     1      -2.791  -2.326   2.232  0.00  0.00    +0.021 A 
ATOM     22  C   UNL     1      -1.682  -1.507   2.214  0.00  0.00    +0.014 A 
ATOM     23  C   UNL     1      -1.434  -0.696   1.105  0.00  0.00    +0.037 A 
ATOM     24 CL   UNL     1      -5.052  -3.380   1.182  0.00  0.00    -0.084 Cl
ENDBRANCH  14  23
ENDBRANCH   1  16
TORSDOF 2
