REMARK  Name = ZINC20683168
REMARK  9 active torsions:
REMARK  status: ('A' for Active; 'I' for Inactive)
REMARK    1  A    between atoms: C_1  and  C_2
REMARK    2  A    between atoms: C_2  and  C_3
REMARK    3  A    between atoms: N_9  and  C_10
REMARK    4  A    between atoms: C_10  and  C_11
REMARK    5  A    between atoms: C_11  and  C_12
REMARK    6  A    between atoms: C_12  and  N_13
REMARK    7  A    between atoms: C_14  and  C_16
REMARK    8  A    between atoms: C_25  and  S_28
REMARK    9  A    between atoms: S_28  and  N_31
REMARK                            x       y       z     vdW  Elec       q    Type
REMARK                         _______ _______ _______ _____ _____    ______ ____
ROOT
ATOM      1  C   UNL     1      -4.723   0.759   5.007  0.00  0.00    +0.051 A 
ATOM      2  C   UNL     1      -5.957   0.585   5.564  0.00  0.00    +0.083 A 
ATOM      3  C   UNL     1      -6.118   0.722   7.010  0.00  0.00    +0.250 A 
ATOM      4  O   UNL     1      -7.218   0.566   7.509  0.00  0.00    -0.268 OA
ATOM      5  N   UNL     1      -5.069   1.016   7.799  0.00  0.00    -0.322 N 
ATOM      6  H   UNL     1      -5.209   1.114   8.885  0.00  0.00    +0.169 HD
ATOM      7  C   UNL     1      -3.808   1.199   7.275  0.00  0.00    +0.050 A 
ATOM      8  C   UNL     1      -3.591   1.074   5.891  0.00  0.00    +0.012 A 
ATOM      9  C   UNL     1      -2.307   1.256   5.369  0.00  0.00    +0.039 A 
ATOM     10  C   UNL     1      -1.268   1.548   6.206  0.00  0.00    +0.106 A 
ATOM     11  C   UNL     1      -1.476   1.666   7.573  0.00  0.00    +0.030 A 
ATOM     12  C   UNL     1      -2.735   1.503   8.108  0.00  0.00    +0.028 A 
ENDROOT
BRANCH   1  14
ATOM     13  N   UNL     1      -5.544   0.209   2.762  0.00  0.00    -0.311 N 
ATOM     14  C   UNL     1      -4.527   0.626   3.542  0.00  0.00    +0.245 C 
ATOM     15  O   UNL     1      -3.451   0.894   3.047  0.00  0.00    -0.270 OA
ATOM     16  H   UNL     1      -6.540   0.043   3.198  0.00  0.00    +0.149 HD
BRANCH  13  17
ATOM     17  C   UNL     1      -5.322  -0.025   1.333  0.00  0.00    +0.102 C 
BRANCH  17  18
ATOM     18  C   UNL     1      -6.627  -0.489   0.683  0.00  0.00    +0.000 C 
BRANCH  18  19
ATOM     19  C   UNL     1      -6.394  -0.733  -0.810  0.00  0.00    -0.077 C 
BRANCH  19  25
ATOM     20  C   UNL     1      -7.489  -1.325  -2.886  0.00  0.00    -0.069 C 
ATOM     21  C   UNL     1      -8.764  -1.928  -3.481  0.00  0.00    -0.015 C 
ATOM     22  C   UNL     1      -9.950  -1.012  -3.168  0.00  0.00    -0.003 C 
ATOM     23  C   UNL     1     -10.063  -0.838  -1.651  0.00  0.00    -0.019 C 
ATOM     24  C   UNL     1      -8.751  -0.267  -1.108  0.00  0.00    -0.078 C 
ATOM     25  N   UNL     1      -7.647  -1.179  -1.433  0.00  0.00    +0.382 N 
ATOM     26  H   UNL     1      -7.898  -2.168  -1.023  0.00  0.00    -0.081 HD
BRANCH  20  28
ATOM     27  C   UNL     1      -6.076  -2.318  -4.691  0.00  0.00    +0.002 C 
ATOM     28  C   UNL     1      -6.304  -2.247  -3.180  0.00  0.00    -0.019 C 
ENDBRANCH  20  28
ENDBRANCH  19  25
ENDBRANCH  18  19
ENDBRANCH  17  18
ENDBRANCH  13  17
ENDBRANCH   1  14
BRANCH  10  29
ATOM     29  S   UNL     1       0.350   1.776   5.545  0.00  0.00    +0.061 S 
ATOM     30  O   UNL     1       1.262   1.505   6.601  0.00  0.00    -0.153 OA
ATOM     31  O   UNL     1       0.386   1.076   4.309  0.00  0.00    -0.153 OA
BRANCH  29  32
ATOM     32  N   UNL     1       0.508   3.384   5.183  0.00  0.00    -0.177 NA
ATOM     33  C   UNL     1       0.134   3.838   3.862  0.00  0.00    +0.109 C 
ATOM     34  C   UNL     1       1.346   3.744   2.912  0.00  0.00    +0.017 C 
ATOM     35  C   UNL     1       2.341   4.774   3.250  0.00  0.00    +0.001 C 
ATOM     36  C   UNL     1       2.941   4.633   4.645  0.00  0.00    +0.001 C 
ATOM     37  C   UNL     1       2.039   5.308   5.649  0.00  0.00    +0.017 C 
ATOM     38  C   UNL     1       1.032   4.294   6.221  0.00  0.00    +0.109 C 
ENDBRANCH  29  32
ENDBRANCH  10  29
TORSDOF 8
