REMARK  Name = ZINC64137396
REMARK  8 active torsions:
REMARK  status: ('A' for Active; 'I' for Inactive)
REMARK    1  A    between atoms: C_1  and  N_2
REMARK    2  A    between atoms: N_2  and  C_3
REMARK    3  A    between atoms: C_3  and  C_5
REMARK    4  A    between atoms: C_3  and  C_13
REMARK    5  A    between atoms: C_5  and  C_6
REMARK    6  A    between atoms: N_16  and  C_19
REMARK    7  A    between atoms: C_19  and  C_20
REMARK    8  A    between atoms: C_30  and  C_32
REMARK                            x       y       z     vdW  Elec       q    Type
REMARK                         _______ _______ _______ _____ _____    ______ ____
ROOT
ATOM      1  C   UNL     1       0.032  -1.650   1.810  0.00  0.00    +0.083 C 
ENDROOT
BRANCH   1   2
ATOM      2  C   UNL     1      -1.044  -0.896   2.593  0.00  0.00    +0.006 C 
ATOM      3  C   UNL     1      -1.527   0.305   1.774  0.00  0.00    -0.013 C 
ATOM      4  C   UNL     1      -2.659   1.007   2.527  0.00  0.00    -0.078 C 
ATOM      5  N   UNL     1      -3.772   0.072   2.729  0.00  0.00    +0.381 N 
ATOM      6  C   UNL     1      -3.335  -1.046   3.575  0.00  0.00    -0.078 C 
ATOM      7  C   UNL     1      -2.229  -1.828   2.862  0.00  0.00    -0.013 C 
ATOM      8  H   UNL     1      -4.078  -0.283   1.836  0.00  0.00    -0.082 HD
BRANCH   5   9
ATOM      9  C   UNL     1      -4.885   0.772   3.383  0.00  0.00    -0.050 C 
BRANCH   9  10
ATOM     10  C   UNL     1      -5.383   1.898   2.475  0.00  0.00    +0.086 C 
ATOM     11  C   UNL     1      -6.660   2.489   3.029  0.00  0.00    +0.005 C 
ATOM     12  C   UNL     1      -7.607   2.290   2.084  0.00  0.00    -0.004 A 
ATOM     13  C   UNL     1      -9.034   2.628   2.019  0.00  0.00    +0.010 A 
ATOM     14  C   UNL     1      -9.738   2.291   0.915  0.00  0.00    +0.001 A 
ATOM     15  C   UNL     1      -9.141   1.628  -0.166  0.00  0.00    +0.002 A 
ATOM     16  C   UNL     1      -7.836   1.284  -0.180  0.00  0.00    +0.026 A 
ATOM     17  C   UNL     1      -7.000   1.590   0.929  0.00  0.00    +0.043 A 
ATOM     18  N   UNL     1      -5.726   1.365   1.151  0.00  0.00    -0.380 N 
ATOM     19  H   UNL     1      -5.114   0.922   0.543  0.00  0.00    +0.160 HD
ENDBRANCH   9  10
ENDBRANCH   5   9
ENDBRANCH   1   2
BRANCH   1  21
ATOM     20  C   UNL     1      -1.045  -1.445  -0.478  0.00  0.00    +0.132 C 
ATOM     21  N   UNL     1      -0.570  -2.276   0.631  0.00  0.00    -0.294 N 
ATOM     22  C   UNL     1      -0.687  -3.617   0.566  0.00  0.00    +0.282 C 
ATOM     23  O   UNL     1      -0.363  -4.303   1.518  0.00  0.00    -0.267 OA
BRANCH  22  24
ATOM     24  C   UNL     1      -1.204  -4.250  -0.652  0.00  0.00    +0.189 A 
ATOM     25  C   UNL     1      -1.450  -5.583  -0.821  0.00  0.00    +0.054 A 
ATOM     26  C   UNL     1      -1.934  -5.741  -2.129  0.00  0.00    +0.042 A 
ATOM     27  C   UNL     1      -1.961  -4.513  -2.694  0.00  0.00    +0.196 A 
ATOM     28  O   UNL     1      -1.525  -3.617  -1.799  0.00  0.00    -0.458 OA
ENDBRANCH  22  24
ENDBRANCH   1  21
BRANCH   1  29
ATOM     29  C   UNL     1       1.121  -0.670   1.368  0.00  0.00    +0.059 C 
BRANCH  29  30
ATOM     30  C   UNL     1       2.265  -1.435   0.752  0.00  0.00    -0.027 A 
ATOM     31  C   UNL     1       2.963  -2.360   1.506  0.00  0.00    +0.005 A 
ATOM     32  C   UNL     1       4.012  -3.061   0.942  0.00  0.00    +0.000 A 
ATOM     33  C   UNL     1       4.363  -2.837  -0.377  0.00  0.00    +0.001 A 
ATOM     34  C   UNL     1       3.666  -1.913  -1.131  0.00  0.00    +0.020 A 
ATOM     35  C   UNL     1       2.613  -1.215  -0.568  0.00  0.00    +0.044 A 
ATOM     36 CL   UNL     1       1.732  -0.058  -1.517  0.00  0.00    -0.083 Cl
ENDBRANCH  29  30
ENDBRANCH   1  29
TORSDOF 7
