REMARK  Name = ZINC13551295
REMARK  10 active torsions:
REMARK  status: ('A' for Active; 'I' for Inactive)
REMARK    1  A    between atoms: C_1  and  O_2
REMARK    2  A    between atoms: O_2  and  C_3
REMARK    3  A    between atoms: C_6  and  C_9
REMARK    4  A    between atoms: C_9  and  C_10
REMARK    5  A    between atoms: C_10  and  N_11
REMARK    6  A    between atoms: C_12  and  C_14
REMARK    7  A    between atoms: C_14  and  C_16
REMARK    8  A    between atoms: C_14  and  N_23
REMARK    9  A    between atoms: C_16  and  C_17
REMARK   10  A    between atoms: C_28  and  O_36
REMARK                            x       y       z     vdW  Elec       q    Type
REMARK                         _______ _______ _______ _____ _____    ______ ____
ROOT
ATOM      1  C   UNL     1      -2.945   0.711   1.462  0.00  0.00    +0.165 C 
ENDROOT
BRANCH   1   2
ATOM      2  N   UNL     1      -3.249   1.981   2.126  0.00  0.00    -0.287 N 
ATOM      3  C   UNL     1      -2.260   2.700   2.692  0.00  0.00    +0.308 C 
ATOM      4  O   UNL     1      -1.114   2.294   2.652  0.00  0.00    -0.252 OA
ATOM      5  N   UNL     1      -2.540   3.868   3.302  0.00  0.00    -0.245 N 
ATOM      6  C   UNL     1      -3.914   4.393   3.364  0.00  0.00    +0.210 C 
ATOM      7  C   UNL     1      -3.886   5.879   3.142  0.00  0.00    +0.206 C 
ATOM      8  N   UNL     1      -2.847   6.591   3.443  0.00  0.00    -0.214 NA
ATOM      9  C   UNL     1      -1.715   6.030   3.970  0.00  0.00    +0.089 A 
ATOM     10  C   UNL     1      -1.533   4.641   3.901  0.00  0.00    +0.064 A 
ATOM     11  C   UNL     1      -0.390   4.062   4.415  0.00  0.00    +0.026 A 
ATOM     12  C   UNL     1       0.578   4.858   5.003  0.00  0.00    +0.002 A 
ATOM     13  C   UNL     1       0.403   6.228   5.079  0.00  0.00    +0.002 A 
ATOM     14  C   UNL     1      -0.736   6.819   4.567  0.00  0.00    +0.030 A 
ATOM     15  H   UNL     1      -4.163   2.305   2.158  0.00  0.00    +0.151 HD
BRANCH   7  16
ATOM     16  O   UNL     1      -4.968   6.485   2.613  0.00  0.00    -0.494 OA
ATOM     17  H   UNL     1      -4.868   7.440   2.499  0.00  0.00    +0.293 HD
ENDBRANCH   7  16
ENDBRANCH   1   2
BRANCH   1  19
ATOM     18  N   UNL     1      -4.127  -1.389   0.905  0.00  0.00    -0.313 N 
ATOM     19  C   UNL     1      -4.172  -0.164   1.465  0.00  0.00    +0.234 C 
ATOM     20  O   UNL     1      -5.200   0.234   1.972  0.00  0.00    -0.274 OA
ATOM     21  H   UNL     1      -3.306  -1.708   0.500  0.00  0.00    +0.149 HD
BRANCH  18  22
ATOM     22  C   UNL     1      -5.320  -2.240   0.908  0.00  0.00    +0.109 C 
BRANCH  22  23
ATOM     23  C   UNL     1      -5.002  -3.567   0.215  0.00  0.00    +0.054 C 
BRANCH  23  27
ATOM     24  C   UNL     1      -8.482  -6.048   0.224  0.00  0.00    +0.120 A 
ATOM     25  C   UNL     1      -8.253  -5.175  -0.831  0.00  0.00    +0.046 A 
ATOM     26  C   UNL     1      -7.127  -4.374  -0.831  0.00  0.00    +0.007 A 
ATOM     27  C   UNL     1      -6.229  -4.441   0.218  0.00  0.00    -0.046 A 
ATOM     28  C   UNL     1      -6.452  -5.314   1.267  0.00  0.00    +0.007 A 
ATOM     29  C   UNL     1      -7.579  -6.113   1.275  0.00  0.00    +0.046 A 
BRANCH  24  31
ATOM     30  C   UNL     1      -9.759  -7.710   1.344  0.00  0.00    +0.277 C 
ATOM     31  O   UNL     1      -9.588  -6.836   0.226  0.00  0.00    -0.495 OA
ENDBRANCH  24  31
ENDBRANCH  23  27
ENDBRANCH  22  23
ENDBRANCH  18  22
ENDBRANCH   1  19
BRANCH   1  32
ATOM     32  C   UNL     1      -2.514   0.980   0.019  0.00  0.00    +0.067 C 
BRANCH  32  33
ATOM     33  C   UNL     1      -1.219   1.751   0.017  0.00  0.00    -0.045 A 
ATOM     34  C   UNL     1      -0.013   1.076   0.008  0.00  0.00    +0.004 A 
ATOM     35  C   UNL     1       1.175   1.783   0.000  0.00  0.00    +0.000 A 
ATOM     36  C   UNL     1       1.156   3.165   0.008  0.00  0.00    +0.000 A 
ATOM     37  C   UNL     1      -0.050   3.840   0.022  0.00  0.00    +0.000 A 
ATOM     38  C   UNL     1      -1.238   3.133   0.030  0.00  0.00    +0.004 A 
ENDBRANCH  32  33
ENDBRANCH   1  32
TORSDOF 9
