REMARK  Name = ZINC22937281
REMARK  9 active torsions:
REMARK  status: ('A' for Active; 'I' for Inactive)
REMARK    1  A    between atoms: C_1  and  C_2
REMARK    2  A    between atoms: C_10  and  S_15
REMARK    3  A    between atoms: S_15  and  N_18
REMARK    4  A    between atoms: N_18  and  C_19
REMARK    5  A    between atoms: C_19  and  C_20
REMARK    6  A    between atoms: C_20  and  C_21
REMARK    7  A    between atoms: C_21  and  N_22
REMARK    8  A    between atoms: N_25  and  C_28
REMARK    9  A    between atoms: C_28  and  C_29
REMARK                            x       y       z     vdW  Elec       q    Type
REMARK                         _______ _______ _______ _____ _____    ______ ____
ROOT
ATOM      1  N   UNL     1      -1.805  -6.980   0.485  0.00  0.00    -0.190 NA
ATOM      2  H   UNL     1      -2.752  -7.174   0.398  0.00  0.00    +0.148 HD
ENDROOT
BRANCH   1   3
ATOM      3  S   UNL     1      -1.180  -6.556   1.958  0.00  0.00    +0.058 S 
ATOM      4  O   UNL     1      -0.029  -7.365   2.159  0.00  0.00    -0.153 OA
ATOM      5  O   UNL     1      -2.268  -6.539   2.872  0.00  0.00    -0.153 OA
BRANCH   3  14
ATOM      6  C   UNL     1      -0.019   1.526   0.010  0.00  0.00    +0.020 C 
ATOM      7  C   UNL     1       0.002  -0.004   0.002  0.00  0.00    +0.057 C 
ATOM      8  C   UNL     1      -1.437  -0.547   0.038  0.00  0.00    +0.110 C 
ATOM      9  C   UNL     1      -1.997  -0.455   1.427  0.00  0.00    +0.218 C 
ATOM     10  O   UNL     1      -2.580   0.552   1.768  0.00  0.00    -0.275 OA
ATOM     11  N   UNL     1      -1.867  -1.465   2.297  0.00  0.00    -0.284 N 
ATOM     12  C   UNL     1      -1.015  -2.542   2.009  0.00  0.00    +0.049 A 
ATOM     13  C   UNL     1      -1.466  -3.847   2.115  0.00  0.00    +0.053 A 
ATOM     14  C   UNL     1      -0.609  -4.894   1.824  0.00  0.00    +0.107 A 
ATOM     15  C   UNL     1       0.692  -4.643   1.428  0.00  0.00    +0.030 A 
ATOM     16  C   UNL     1       1.149  -3.342   1.322  0.00  0.00    +0.018 A 
ATOM     17  C   UNL     1       0.297  -2.290   1.613  0.00  0.00    +0.029 A 
ATOM     18  S   UNL     1       0.856  -0.621   1.491  0.00  0.00    -0.120 S 
ATOM     19  H   UNL     1      -2.364  -1.451   3.130  0.00  0.00    +0.155 HD
ENDBRANCH   3  14
ENDBRANCH   1   3
BRANCH   1  20
ATOM     20  C   UNL     1      -0.930  -7.062  -0.687  0.00  0.00    +0.104 C 
BRANCH  20  21
ATOM     21  C   UNL     1      -1.647  -7.816  -1.808  0.00  0.00    -0.002 C 
BRANCH  21  22
ATOM     22  C   UNL     1      -0.732  -7.902  -3.031  0.00  0.00    -0.077 C 
BRANCH  22  23
ATOM     23  N   UNL     1      -1.421  -8.627  -4.108  0.00  0.00    +0.381 N 
ATOM     24  C   UNL     1      -1.649 -10.017  -3.693  0.00  0.00    -0.063 C 
ATOM     25  C   UNL     1      -2.383 -10.768  -4.807  0.00  0.00    +0.066 C 
ATOM     26  N   UNL     1      -1.575 -10.730  -6.034  0.00  0.00    -0.302 NA
ATOM     27  C   UNL     1      -1.317  -9.344  -6.447  0.00  0.00    +0.066 C 
ATOM     28  C   UNL     1      -0.592  -8.605  -5.320  0.00  0.00    -0.063 C 
ATOM     29  H   UNL     1      -2.307  -8.183  -4.298  0.00  0.00    -0.082 HD
BRANCH  26  30
ATOM     30  C   UNL     1      -2.221 -11.490  -7.113  0.00  0.00    +0.119 C 
BRANCH  30  31
ATOM     31  C   UNL     1      -1.262 -11.638  -8.266  0.00  0.00    -0.033 A 
ATOM     32  C   UNL     1      -1.230 -10.682  -9.265  0.00  0.00    +0.005 A 
ATOM     33  C   UNL     1      -0.351 -10.818 -10.323  0.00  0.00    +0.000 A 
ATOM     34  C   UNL     1       0.496 -11.909 -10.382  0.00  0.00    +0.000 A 
ATOM     35  C   UNL     1       0.464 -12.864  -9.383  0.00  0.00    +0.000 A 
ATOM     36  C   UNL     1      -0.412 -12.726  -8.323  0.00  0.00    +0.005 A 
ENDBRANCH  30  31
ENDBRANCH  26  30
ENDBRANCH  22  23
ENDBRANCH  21  22
ENDBRANCH  20  21
ENDBRANCH   1  20
TORSDOF 8
