REMARK  Name = ZINC21722500
REMARK  8 active torsions:
REMARK  status: ('A' for Active; 'I' for Inactive)
REMARK    1  A    between atoms: C_1  and  C_2
REMARK    2  A    between atoms: C_2  and  C_34
REMARK    3  A    between atoms: C_6  and  C_23
REMARK    4  A    between atoms: C_16  and  C_18
REMARK    5  A    between atoms: C_18  and  C_19
REMARK    6  A    between atoms: C_19  and  C_20
REMARK    7  A    between atoms: C_26  and  O_29
REMARK    8  A    between atoms: O_29  and  C_30
REMARK                            x       y       z     vdW  Elec       q    Type
REMARK                         _______ _______ _______ _____ _____    ______ ____
ROOT
ATOM      1  C   UNL     1       5.010   2.760  -3.798  0.00  0.00    +0.011 C 
ATOM      2  C   UNL     1       5.722   3.759  -2.884  0.00  0.00    -0.023 C 
ATOM      3  C   UNL     1       5.593   3.313  -1.428  0.00  0.00    +0.058 C 
ATOM      4  C   UNL     1       4.127   3.234  -1.039  0.00  0.00    +0.017 C 
ATOM      5  C   UNL     1       3.231   4.079  -1.579  0.00  0.00    +0.037 C 
ATOM      6  C   UNL     1       1.754   4.118  -1.273  0.00  0.00    +0.147 C 
ATOM      7  N   UNL     1       1.354   3.330  -0.126  0.00  0.00    -0.258 N 
ATOM      8  C   UNL     1       1.484   1.940  -0.130  0.00  0.00    +0.058 A 
ATOM      9  C   UNL     1       0.375   1.110  -0.121  0.00  0.00    +0.025 A 
ATOM     10  C   UNL     1       0.551  -0.259  -0.233  0.00  0.00    +0.002 A 
ATOM     11  C   UNL     1       1.821  -0.794  -0.347  0.00  0.00    +0.002 A 
ATOM     12  C   UNL     1       2.932   0.031  -0.330  0.00  0.00    +0.025 A 
ATOM     13  C   UNL     1       2.758   1.399  -0.207  0.00  0.00    +0.053 A 
ATOM     14  N   UNL     1       3.829   2.280  -0.121  0.00  0.00    -0.316 N 
ATOM     15  C   UNL     1       0.850   3.948   0.960  0.00  0.00    +0.221 C 
ATOM     16  O   UNL     1       0.734   5.155   0.973  0.00  0.00    -0.275 OA
ATOM     17  C   UNL     1       3.644   5.036  -2.537  0.00  0.00    +0.163 C 
ATOM     18  O   UNL     1       2.818   5.802  -2.993  0.00  0.00    -0.292 OA
ATOM     19  C   UNL     1       5.064   5.138  -3.009  0.00  0.00    +0.086 C 
ATOM     20  C   UNL     1       7.199   3.853  -3.269  0.00  0.00    +0.011 C 
ATOM     21  H   UNL     1       4.459   2.160   0.773  0.00  0.00    +0.152 HD
ENDROOT
BRANCH   6  22
ATOM     22  C   UNL     1       1.003   3.614  -2.479  0.00  0.00    -0.022 A 
ATOM     23  C   UNL     1       0.136   4.454  -3.153  0.00  0.00    +0.009 A 
ATOM     24  C   UNL     1      -0.549   3.996  -4.262  0.00  0.00    +0.046 A 
ATOM     25  C   UNL     1      -0.374   2.689  -4.692  0.00  0.00    +0.120 A 
ATOM     26  C   UNL     1       0.492   1.847  -4.011  0.00  0.00    +0.046 A 
ATOM     27  C   UNL     1       1.179   2.311  -2.906  0.00  0.00    +0.009 A 
BRANCH  25  28
ATOM     28  O   UNL     1      -1.052   2.234  -5.779  0.00  0.00    -0.495 OA
ATOM     29  C   UNL     1      -1.927   3.157  -6.431  0.00  0.00    +0.277 C 
ENDBRANCH  25  28
ENDBRANCH   6  22
BRANCH  15  30
ATOM     30  C   UNL     1       0.431   3.138   2.160  0.00  0.00    +0.107 C 
BRANCH  30  31
ATOM     31  C   UNL     1      -0.103   4.075   3.246  0.00  0.00    +0.134 C 
BRANCH  31  32
ATOM     32  C   UNL     1      -0.522   3.265   4.446  0.00  0.00    +0.356 C 
ATOM     33  O   UNL     1      -0.406   2.062   4.434  0.00  0.00    -0.246 OA
ATOM     34  O   UNL     1      -1.024   3.880   5.529  0.00  0.00    -0.246 OA
ENDBRANCH  31  32
ENDBRANCH  30  31
ENDBRANCH  15  30
TORSDOF 5
