REMARK  Name = ZINC08933531
REMARK  7 active torsions:
REMARK  status: ('A' for Active; 'I' for Inactive)
REMARK    1  A    between atoms: C_1  and  C_2
REMARK    2  A    between atoms: C_7  and  N_12
REMARK    3  A    between atoms: C_9  and  C_11
REMARK    4  A    between atoms: C_13  and  C_15
REMARK    5  A    between atoms: C_15  and  N_16
REMARK    6  A    between atoms: N_29  and  C_30
REMARK    7  A    between atoms: C_30  and  C_31
REMARK                            x       y       z     vdW  Elec       q    Type
REMARK                         _______ _______ _______ _____ _____    ______ ____
ROOT
ATOM      1  N   UNL     1      -3.929  -1.240   2.572  0.00  0.00    -0.219 N 
ATOM      2  C   UNL     1      -4.555  -0.172   3.106  0.00  0.00    +0.292 A 
ATOM      3  O   UNL     1      -4.717   0.841   2.445  0.00  0.00    -0.264 OA
ATOM      4  C   UNL     1      -5.024  -0.239   4.439  0.00  0.00    +0.119 A 
ATOM      5  C   UNL     1      -4.820  -1.416   5.159  0.00  0.00    +0.033 A 
ATOM      6  C   UNL     1      -4.157  -2.502   4.548  0.00  0.00    +0.143 A 
ATOM      7  N   UNL     1      -3.743  -2.409   3.315  0.00  0.00    -0.175 NA
ATOM      8  C   UNL     1      -5.401  -1.198   6.490  0.00  0.00    +0.009 A 
ATOM      9  C   UNL     1      -5.510  -1.988   7.635  0.00  0.00    +0.010 A 
ATOM     10  C   UNL     1      -6.124  -1.490   8.750  0.00  0.00    +0.001 A 
ATOM     11  C   UNL     1      -6.640  -0.202   8.752  0.00  0.00    +0.002 A 
ATOM     12  C   UNL     1      -6.544   0.595   7.633  0.00  0.00    +0.026 A 
ATOM     13  C   UNL     1      -5.923   0.107   6.486  0.00  0.00    +0.051 A 
ATOM     14  N   UNL     1      -5.684   0.662   5.246  0.00  0.00    -0.331 N 
ENDROOT
BRANCH   1  15
ATOM     15  C   UNL     1      -3.442  -1.177   1.191  0.00  0.00    +0.243 C 
BRANCH  15  17
ATOM     16  N   UNL     1      -1.372  -0.511   0.012  0.00  0.00    -0.311 N 
ATOM     17  C   UNL     1      -2.029  -0.655   1.181  0.00  0.00    +0.235 C 
ATOM     18  O   UNL     1      -1.481  -0.365   2.224  0.00  0.00    -0.274 OA
ATOM     19  H   UNL     1      -1.810  -0.743  -0.822  0.00  0.00    +0.149 HD
BRANCH  16  25
ATOM     20  C   UNL     1       2.870  -0.461  -2.526  0.00  0.00    +0.008 C 
ATOM     21  C   UNL     1       2.154   0.032  -1.268  0.00  0.00    -0.009 C 
ATOM     22  C   UNL     1       2.133   1.562  -1.259  0.00  0.00    +0.003 C 
ATOM     23  C   UNL     1       1.417   2.055  -0.000  0.00  0.00    +0.002 C 
ATOM     24  C   UNL     1      -0.019   1.526   0.010  0.00  0.00    +0.022 C 
ATOM     25  C   UNL     1       0.002  -0.004   0.002  0.00  0.00    +0.076 C 
ATOM     26  C   UNL     1       0.718  -0.497  -1.257  0.00  0.00    +0.009 C 
ATOM     27  C   UNL     1       0.739  -2.027  -1.265  0.00  0.00    +0.009 C 
ENDBRANCH  16  25
ENDBRANCH  15  17
ENDBRANCH   1  15
BRANCH  14  28
ATOM     28  C   UNL     1      -6.077   2.015   4.845  0.00  0.00    +0.157 C 
BRANCH  28  29
ATOM     29  C   UNL     1      -7.459   1.979   4.244  0.00  0.00    -0.028 A 
ATOM     30  C   UNL     1      -7.616   1.785   2.884  0.00  0.00    +0.007 A 
ATOM     31  C   UNL     1      -8.883   1.746   2.333  0.00  0.00    +0.020 A 
ATOM     32  C   UNL     1      -9.994   1.913   3.141  0.00  0.00    +0.041 A 
ATOM     33  C   UNL     1      -9.835   2.113   4.501  0.00  0.00    +0.020 A 
ATOM     34  C   UNL     1      -8.568   2.146   5.051  0.00  0.00    +0.007 A 
ATOM     35 CL   UNL     1     -11.585   1.872   2.449  0.00  0.00    -0.084 Cl
ENDBRANCH  28  29
ENDBRANCH  14  28
TORSDOF 5
