REMARK  Name = ZINC12497909
REMARK  9 active torsions:
REMARK  status: ('A' for Active; 'I' for Inactive)
REMARK    1  A    between atoms: C_1  and  C_2
REMARK    2  A    between atoms: C_2  and  C_4
REMARK    3  A    between atoms: C_2  and  O_24
REMARK    4  A    between atoms: N_6  and  C_7
REMARK    5  A    between atoms: C_7  and  N_9
REMARK    6  A    between atoms: N_9  and  C_10
REMARK    7  A    between atoms: C_13  and  S_16
REMARK    8  A    between atoms: S_16  and  N_19
REMARK    9  A    between atoms: O_24  and  C_25
REMARK                            x       y       z     vdW  Elec       q    Type
REMARK                         _______ _______ _______ _____ _____    ______ ____
ROOT
ATOM      1  C   UNL     1      -2.745   4.267   5.391  0.00  0.00    +0.141 C 
ATOM      2  S   UNL     1      -1.538   5.318   4.783  0.00  0.00    -0.018 S 
ENDROOT
BRANCH   1   5
ATOM      3  C   UNL     1      -3.133   5.737   7.162  0.00  0.00    +0.259 C 
ATOM      4  O   UNL     1      -2.279   6.482   6.732  0.00  0.00    -0.271 OA
ATOM      5  N   UNL     1      -3.414   4.589   6.516  0.00  0.00    -0.265 N 
ATOM      6  H   UNL     1      -4.098   3.993   6.860  0.00  0.00    +0.157 HD
BRANCH   3   8
ATOM      7  C   UNL     1      -3.555   5.080   9.516  0.00  0.00    +0.062 C 
ATOM      8  C   UNL     1      -3.882   6.097   8.420  0.00  0.00    +0.256 C 
BRANCH   8   9
ATOM      9  O   UNL     1      -3.491   7.402   8.850  0.00  0.00    -0.478 OA
BRANCH   9  10
ATOM     10  C   UNL     1      -4.368   8.080   9.638  0.00  0.00    +0.140 A 
ATOM     11  C   UNL     1      -5.598   7.521   9.949  0.00  0.00    +0.048 A 
ATOM     12  C   UNL     1      -6.486   8.210  10.753  0.00  0.00    +0.023 A 
ATOM     13  C   UNL     1      -6.152   9.461  11.240  0.00  0.00    +0.043 A 
ATOM     14  C   UNL     1      -4.928  10.024  10.927  0.00  0.00    +0.043 A 
ATOM     15  C   UNL     1      -4.035   9.336  10.127  0.00  0.00    +0.084 A 
ATOM     16 CL   UNL     1      -2.498  10.042   9.733  0.00  0.00    -0.080 Cl
ATOM     17 CL   UNL     1      -7.272  10.327  12.245  0.00  0.00    -0.083 Cl
ENDBRANCH   9  10
ENDBRANCH   8   9
ENDBRANCH   3   8
ENDBRANCH   1   5
BRANCH   1  18
ATOM     18  N   UNL     1      -3.026   3.119   4.744  0.00  0.00    -0.297 N 
ATOM     19  H   UNL     1      -3.765   2.564   5.040  0.00  0.00    +0.154 HD
BRANCH  18  20
ATOM     20  C   UNL     1      -2.253   2.727   3.647  0.00  0.00    +0.033 A 
ATOM     21  C   UNL     1      -0.874   2.893   3.672  0.00  0.00    +0.025 A 
ATOM     22  C   UNL     1      -0.114   2.505   2.586  0.00  0.00    +0.030 A 
ATOM     23  C   UNL     1      -0.724   1.951   1.476  0.00  0.00    +0.106 A 
ATOM     24  C   UNL     1      -2.097   1.789   1.445  0.00  0.00    +0.030 A 
ATOM     25  C   UNL     1      -2.862   2.171   2.530  0.00  0.00    +0.025 A 
BRANCH  23  26
ATOM     26  S   UNL     1       0.250   1.457   0.093  0.00  0.00    +0.061 S 
ATOM     27  O   UNL     1       1.448   2.220   0.146  0.00  0.00    -0.153 OA
ATOM     28  O   UNL     1      -0.612   1.471  -1.037  0.00  0.00    -0.153 OA
BRANCH  26  29
ATOM     29  N   UNL     1       0.684  -0.122   0.338  0.00  0.00    -0.177 NA
ATOM     30  C   UNL     1       1.899  -0.580   1.027  0.00  0.00    +0.109 C 
ATOM     31  C   UNL     1       1.891  -2.123   0.993  0.00  0.00    +0.018 C 
ATOM     32  C   UNL     1       0.966  -2.437  -0.212  0.00  0.00    +0.018 C 
ATOM     33  C   UNL     1      -0.082  -1.302  -0.104  0.00  0.00    +0.109 C 
ENDBRANCH  26  29
ENDBRANCH  23  26
ENDBRANCH  18  20
ENDBRANCH   1  18
TORSDOF 8
