REMARK  Name = ZINC32983535
REMARK  2 active torsions:
REMARK  status: ('A' for Active; 'I' for Inactive)
REMARK    1  A    between atoms: C_13  and  C_15
REMARK    2  A    between atoms: C_25  and  C_26
REMARK                            x       y       z     vdW  Elec       q    Type
REMARK                         _______ _______ _______ _____ _____    ______ ____
ROOT
ATOM      1  C   UNL     1       0.987   9.403  -3.433  0.00  0.00    +0.039 A 
ATOM      2  C   UNL     1      -0.321   9.092  -3.052  0.00  0.00    +0.017 A 
ATOM      3  C   UNL     1      -1.385   9.560  -3.792  0.00  0.00    +0.049 A 
ATOM      4  C   UNL     1      -1.160  10.332  -4.924  0.00  0.00    +0.150 A 
ATOM      5  C   UNL     1       0.145  10.643  -5.314  0.00  0.00    +0.077 A 
ATOM      6  C   UNL     1       1.216  10.180  -4.571  0.00  0.00    +0.040 A 
ATOM      7  N   UNL     1       0.371  11.424  -6.456  0.00  0.00    -0.276 N 
ATOM      8  C   UNL     1      -0.672  12.090  -7.008  0.00  0.00    +0.284 C 
ATOM      9  O   UNL     1      -0.524  12.790  -7.992  0.00  0.00    -0.266 OA
ATOM     10  C   UNL     1      -1.996  11.934  -6.370  0.00  0.00    +0.191 C 
ATOM     11  C   UNL     1      -2.950  12.884  -6.485  0.00  0.00    +0.059 C 
ATOM     12  O   UNL     1      -2.212  10.787  -5.658  0.00  0.00    -0.449 OA
ATOM     13  H   UNL     1       1.381  11.488  -6.888  0.00  0.00    +0.155 HD
ENDROOT
BRANCH   1  26
ATOM     14  C   UNL     1       3.601  10.290   4.653  0.00  0.00    +0.005 A 
ATOM     15  C   UNL     1       2.944  11.499   4.845  0.00  0.00    +0.018 A 
ATOM     16  C   UNL     1       2.062  11.949   3.883  0.00  0.00    +0.084 A 
ATOM     17  N   UNL     1       1.833  11.244   2.791  0.00  0.00    -0.350 N 
ATOM     18  C   UNL     1       2.436  10.085   2.574  0.00  0.00    +0.099 A 
ATOM     19  C   UNL     1       3.338   9.571   3.501  0.00  0.00    +0.042 A 
ATOM     20  N   UNL     1       2.166   9.375   1.410  0.00  0.00    -0.314 N 
ATOM     21  C   UNL     1       3.401   9.092   0.667  0.00  0.00    +0.125 C 
ATOM     22  C   UNL     1       3.084   8.159  -0.506  0.00  0.00    +0.127 C 
ATOM     23  N   UNL     1       2.004   8.760  -1.303  0.00  0.00    -0.295 N 
ATOM     24  C   UNL     1       0.785   9.196  -0.605  0.00  0.00    +0.127 C 
ATOM     25  C   UNL     1       1.192  10.089   0.573  0.00  0.00    +0.125 C 
ATOM     26  C   UNL     1       2.126   8.906  -2.637  0.00  0.00    +0.247 C 
ATOM     27  O   UNL     1       3.176   8.628  -3.185  0.00  0.00    -0.270 OA
ATOM     28  H   UNL     1       1.127  11.616   2.034  0.00  0.00    +0.166 HD
ENDBRANCH   1  26
BRANCH  11  29
ATOM     29  C   UNL     1      -2.616  14.198  -7.056  0.00  0.00    -0.021 A 
ATOM     30  C   UNL     1      -3.438  14.770  -8.031  0.00  0.00    +0.009 A 
ATOM     31  C   UNL     1      -3.121  16.004  -8.558  0.00  0.00    +0.020 A 
ATOM     32  C   UNL     1      -1.985  16.672  -8.131  0.00  0.00    +0.041 A 
ATOM     33  C   UNL     1      -1.163  16.109  -7.169  0.00  0.00    +0.020 A 
ATOM     34  C   UNL     1      -1.470  14.878  -6.630  0.00  0.00    +0.009 A 
ATOM     35 CL   UNL     1      -1.591  18.223  -8.804  0.00  0.00    -0.084 Cl
ENDBRANCH  11  29
TORSDOF 2
