REMARK  Name = ZINC30825290
REMARK  3 active torsions:
REMARK  status: ('A' for Active; 'I' for Inactive)
REMARK    1  A    between atoms: C_5  and  C_7
REMARK    2  A    between atoms: C_7  and  N_8
REMARK    3  A    between atoms: C_11  and  C_17
REMARK                            x       y       z     vdW  Elec       q    Type
REMARK                         _______ _______ _______ _____ _____    ______ ____
ROOT
ATOM      1  N   UNL     1      -0.574   1.979   1.225  0.00  0.00    -0.269 NA
ATOM      2  C   UNL     1       0.082   1.396   0.051  0.00  0.00    +0.214 C 
ATOM      3  N   UNL     1      -0.662   1.698  -1.167  0.00  0.00    -0.288 N 
ATOM      4  C   UNL     1      -0.221   1.664  -2.464  0.00  0.00    +0.166 A 
ATOM      5  N   UNL     1      -1.239   2.003  -3.225  0.00  0.00    -0.128 NA
ATOM      6  N   UNL     1      -2.274   2.246  -2.496  0.00  0.00    -0.122 NA
ATOM      7  C   UNL     1      -1.974   2.078  -1.237  0.00  0.00    +0.194 A 
ATOM      8  S   UNL     1      -3.012   2.289   0.175  0.00  0.00    -0.070 S 
ATOM      9  C   UNL     1      -1.945   1.478   1.403  0.00  0.00    +0.164 C 
ENDROOT
BRANCH   4  10
ATOM     10  C   UNL     1       1.141   1.313  -2.921  0.00  0.00    +0.019 A 
ATOM     11  C   UNL     1       1.558   1.657  -4.207  0.00  0.00    +0.012 A 
ATOM     12  C   UNL     1       2.832   1.331  -4.626  0.00  0.00    +0.016 A 
ATOM     13  C   UNL     1       3.692   0.657  -3.776  0.00  0.00    +0.018 A 
ATOM     14  C   UNL     1       3.281   0.308  -2.501  0.00  0.00    +0.016 A 
ATOM     15  C   UNL     1       2.012   0.632  -2.069  0.00  0.00    +0.012 A 
ATOM     16 BR   UNL     1       5.433   0.208  -4.361  0.00  0.00    -0.050 Br
ENDBRANCH   4  10
BRANCH   1  17
ATOM     17  C   UNL     1       0.226   1.758   2.438  0.00  0.00    +0.142 C 
BRANCH  17  22
ATOM     18  C   UNL     1      -1.756   2.745   5.488  0.00  0.00    +0.003 A 
ATOM     19  C   UNL     1      -1.356   4.067   5.605  0.00  0.00    +0.020 A 
ATOM     20  C   UNL     1      -0.459   4.583   4.689  0.00  0.00    +0.111 A 
ATOM     21  N   UNL     1       0.018   3.832   3.715  0.00  0.00    -0.259 NA
ATOM     22  C   UNL     1      -0.345   2.572   3.571  0.00  0.00    +0.055 A 
ATOM     23  C   UNL     1      -1.238   1.988   4.449  0.00  0.00    +0.024 A 
ENDBRANCH  17  22
ENDBRANCH   1  17
TORSDOF 3
