REMARK  Name = ZINC39313493
REMARK  5 active torsions:
REMARK  status: ('A' for Active; 'I' for Inactive)
REMARK    1  A    between atoms: C_1  and  C_2
REMARK    2  A    between atoms: C_7  and  C_8
REMARK    3  A    between atoms: N_9  and  C_21
REMARK    4  A    between atoms: C_10  and  C_13
REMARK    5  A    between atoms: C_21  and  C_22
REMARK                            x       y       z     vdW  Elec       q    Type
REMARK                         _______ _______ _______ _____ _____    ______ ____
ROOT
ATOM      1  C   UNL     1       0.825   1.095   0.893  0.00  0.00    +0.044 C 
ATOM      2  C   UNL     1       0.587  -0.373   0.650  0.00  0.00    -0.046 A 
ATOM      3  C   UNL     1       0.437  -0.843  -0.641  0.00  0.00    +0.028 A 
ATOM      4  C   UNL     1       0.218  -2.196  -0.869  0.00  0.00    +0.050 A 
ATOM      5  C   UNL     1       0.151  -3.076   0.207  0.00  0.00    +0.053 A 
ATOM      6  C   UNL     1       0.304  -2.594   1.502  0.00  0.00    +0.028 A 
ATOM      7  C   UNL     1       0.526  -1.247   1.719  0.00  0.00    -0.046 A 
ATOM      8  C   UNL     1       0.697  -0.730   3.124  0.00  0.00    +0.044 C 
ATOM      9  N   UNL     1      -0.074  -4.379  -0.258  0.00  0.00    -0.305 N 
ATOM     10  C   UNL     1      -0.154  -4.312  -1.722  0.00  0.00    +0.175 C 
ATOM     11  N   UNL     1       0.038  -2.899  -2.068  0.00  0.00    -0.323 N 
ATOM     12  H   UNL     1       0.040  -2.521  -2.962  0.00  0.00    +0.148 HD
ENDROOT
BRANCH  10  13
ATOM     13  C   UNL     1       0.948  -5.167  -2.351  0.00  0.00    +0.138 C 
ATOM     14  C   UNL     1       2.276  -4.724  -1.765  0.00  0.00    -0.010 C 
ATOM     15  C   UNL     1       3.214  -4.293  -2.622  0.00  0.00    +0.014 C 
ATOM     16  C   UNL     1       2.970  -4.256  -4.008  0.00  0.00    +0.100 C 
ATOM     17  N   UNL     1       1.849  -4.624  -4.565  0.00  0.00    -0.188 NA
ATOM     18  C   UNL     1       0.808  -5.079  -3.857  0.00  0.00    +0.246 C 
ATOM     19  O   UNL     1      -0.221  -5.413  -4.407  0.00  0.00    -0.273 OA
ENDBRANCH  10  13
BRANCH   9  20
ATOM     20  C   UNL     1      -0.205  -5.584   0.565  0.00  0.00    +0.142 C 
BRANCH  20  21
ATOM     21  C   UNL     1      -1.664  -5.856   0.828  0.00  0.00    -0.029 A 
ATOM     22  C   UNL     1      -2.281  -5.306   1.936  0.00  0.00    +0.005 A 
ATOM     23  C   UNL     1      -3.619  -5.556   2.178  0.00  0.00    +0.002 A 
ATOM     24  C   UNL     1      -4.340  -6.356   1.312  0.00  0.00    +0.020 A 
ATOM     25  C   UNL     1      -3.724  -6.907   0.203  0.00  0.00    +0.041 A 
ATOM     26  C   UNL     1      -2.386  -6.652  -0.042  0.00  0.00    +0.025 A 
ATOM     27 CL   UNL     1      -4.630  -7.912  -0.884  0.00  0.00    -0.084 Cl
ENDBRANCH  20  21
ENDBRANCH   9  20
TORSDOF 3
