REMARK  Name = ZINC06111971
REMARK  5 active torsions:
REMARK  status: ('A' for Active; 'I' for Inactive)
REMARK    1  A    between atoms: C_4  and  N_7
REMARK    2  A    between atoms: C_11  and  S_15
REMARK    3  A    between atoms: S_15  and  C_16
REMARK    4  A    between atoms: N_18  and  N_19
REMARK    5  A    between atoms: C_20  and  C_21
REMARK                            x       y       z     vdW  Elec       q    Type
REMARK                         _______ _______ _______ _____ _____    ______ ____
ROOT
ATOM      1  C   UNL     1       4.816  -4.799   1.425  0.00  0.00    +0.146 C 
ATOM      2  N   UNL     1       4.072  -5.074   0.390  0.00  0.00    -0.380 N 
ATOM      3  N   UNL     1       4.956  -5.722   2.437  0.00  0.00    -0.217 N 
ATOM      4  H   UNL     1       3.616  -5.928   0.333  0.00  0.00    +0.158 HD
ATOM      5  H   UNL     1       5.510  -5.518   3.207  0.00  0.00    +0.176 HD
ATOM      6  H   UNL     1       3.973  -4.424  -0.323  0.00  0.00    +0.158 HD
ENDROOT
BRANCH   3   7
ATOM      7  N   UNL     1       4.298  -6.957   2.355  0.00  0.00    -0.188 NA
ATOM      8  C   UNL     1       4.429  -7.827   3.309  0.00  0.00    +0.141 C 
BRANCH   8   9
ATOM      9  C   UNL     1       3.736  -9.125   3.223  0.00  0.00    +0.030 A 
ATOM     10  C   UNL     1       3.871 -10.062   4.250  0.00  0.00    +0.012 A 
ATOM     11  C   UNL     1       3.220 -11.275   4.163  0.00  0.00    +0.001 A 
ATOM     12  C   UNL     1       2.434 -11.566   3.062  0.00  0.00    +0.003 A 
ATOM     13  C   UNL     1       2.295 -10.645   2.039  0.00  0.00    +0.039 A 
ATOM     14  C   UNL     1       2.937  -9.424   2.115  0.00  0.00    +0.132 A 
ATOM     15  F   UNL     1       2.796  -8.522   1.118  0.00  0.00    -0.205 F 
ENDBRANCH   8   9
ENDBRANCH   3   7
BRANCH   1  16
ATOM     16  S   UNL     1       5.644  -3.247   1.528  0.00  0.00    -0.078 S 
BRANCH  16  21
ATOM     17  N   UNL     1       3.624  -0.652  -0.037  0.00  0.00    -0.209 N 
ATOM     18  C   UNL     1       4.802  -0.025  -0.139  0.00  0.00    +0.228 C 
ATOM     19  O   UNL     1       4.954   1.175  -0.226  0.00  0.00    -0.275 OA
ATOM     20  C   UNL     1       5.915  -1.050  -0.127  0.00  0.00    +0.120 C 
ATOM     21  C   UNL     1       5.167  -2.393   0.001  0.00  0.00    +0.149 C 
ATOM     22  C   UNL     1       3.711  -1.985   0.053  0.00  0.00    +0.240 C 
ATOM     23  O   UNL     1       2.772  -2.745   0.157  0.00  0.00    -0.274 OA
BRANCH  17  27
ATOM     24  C   UNL     1      -0.016   1.380   0.011  0.00  0.00    +0.000 A 
ATOM     25  C   UNL     1       0.420   0.718   1.145  0.00  0.00    +0.002 A 
ATOM     26  C   UNL     1       1.625   0.044   1.131  0.00  0.00    +0.024 A 
ATOM     27  C   UNL     1       2.399   0.031  -0.021  0.00  0.00    +0.044 A 
ATOM     28  C   UNL     1       1.959   0.696  -1.157  0.00  0.00    +0.024 A 
ATOM     29  C   UNL     1       0.753   1.369  -1.138  0.00  0.00    +0.002 A 
ENDBRANCH  17  27
ENDBRANCH  16  21
ENDBRANCH   1  16
TORSDOF 5
