REMARK  Name = ZINC42483794
REMARK  11 active torsions:
REMARK  status: ('A' for Active; 'I' for Inactive)
REMARK    1  A    between atoms: C_1  and  C_2
REMARK    2  A    between atoms: C_2  and  C_3
REMARK    3  A    between atoms: C_3  and  C_4
REMARK    4  A    between atoms: C_3  and  N_6
REMARK    5  A    between atoms: C_4  and  C_5
REMARK    6  A    between atoms: N_6  and  C_7
REMARK    7  A    between atoms: N_6  and  S_10
REMARK    8  A    between atoms: C_7  and  C_8
REMARK    9  A    between atoms: C_8  and  O_9
REMARK   10  A    between atoms: S_10  and  C_13
REMARK   11  A    between atoms: C_14  and  N_21
REMARK                            x       y       z     vdW  Elec       q    Type
REMARK                         _______ _______ _______ _____ _____    ______ ____
ROOT
ATOM      1  S   UNL     1       1.526   0.813  -3.126  0.00  0.00    +0.064 S 
ATOM      2  O   UNL     1       0.558   1.678  -3.704  0.00  0.00    -0.153 OA
ATOM      3  O   UNL     1       2.775   1.285  -2.638  0.00  0.00    -0.153 OA
ENDROOT
BRANCH   1   4
ATOM      4  C   UNL     1       1.889  -0.417  -4.334  0.00  0.00    +0.144 A 
ATOM      5  C   UNL     1       3.055  -1.165  -4.236  0.00  0.00    +0.054 A 
ATOM      6  C   UNL     1       3.338  -2.134  -5.190  0.00  0.00    +0.044 A 
ATOM      7  C   UNL     1       2.458  -2.351  -6.234  0.00  0.00    +0.044 A 
ATOM      8  C   UNL     1       1.298  -1.604  -6.330  0.00  0.00    +0.042 A 
ATOM      9  C   UNL     1       1.011  -0.642  -5.378  0.00  0.00    +0.070 A 
ATOM     10 CL   UNL     1      -0.450   0.288  -5.497  0.00  0.00    -0.081 Cl
ATOM     11 CL   UNL     1       2.811  -3.562  -7.428  0.00  0.00    -0.083 Cl
BRANCH   5  12
ATOM     12  N   UNL     1       3.942  -0.943  -3.180  0.00  0.00    -0.356 N 
ATOM     13  H   UNL     1       3.674  -0.390  -2.430  0.00  0.00    +0.142 HD
ATOM     14  H   UNL     1       4.825  -1.343  -3.197  0.00  0.00    +0.142 HD
ENDBRANCH   5  12
ENDBRANCH   1   4
BRANCH   1  15
ATOM     15  N   UNL     1       0.781   0.050  -1.859  0.00  0.00    -0.171 NA
BRANCH  15  16
ATOM     16  C   UNL     1       1.580  -0.488  -0.755  0.00  0.00    +0.079 C 
BRANCH  16  18
ATOM     17  C   UNL     1       1.648   1.744   0.364  0.00  0.00    +0.005 C 
ATOM     18  C   UNL     1       1.255   0.275   0.530  0.00  0.00    +0.017 C 
ENDBRANCH  16  18
BRANCH  16  19
ATOM     19  C   UNL     1       1.254  -1.971  -0.565  0.00  0.00    +0.017 C 
ATOM     20  C   UNL     1       1.694  -2.754  -1.803  0.00  0.00    +0.005 C 
ENDBRANCH  16  19
ENDBRANCH  15  16
BRANCH  15  21
ATOM     21  C   UNL     1      -0.678  -0.087  -1.842  0.00  0.00    +0.137 C 
BRANCH  21  22
ATOM     22  C   UNL     1      -1.292   1.092  -1.085  0.00  0.00    +0.173 C 
BRANCH  22  23
ATOM     23  O   UNL     1      -1.049   2.300  -1.807  0.00  0.00    -0.394 OA
ATOM     24  H   UNL     1      -1.411   3.091  -1.385  0.00  0.00    +0.209 HD
ENDBRANCH  22  23
ENDBRANCH  21  22
ENDBRANCH  15  21
ENDBRANCH   1  15
TORSDOF 9
