REMARK  Name = ZINC42445283
REMARK  11 active torsions:
REMARK  status: ('A' for Active; 'I' for Inactive)
REMARK    1  A    between atoms: C_1  and  C_2
REMARK    2  A    between atoms: C_2  and  N_3
REMARK    3  A    between atoms: N_3  and  C_4
REMARK    4  A    between atoms: N_3  and  C_14
REMARK    5  A    between atoms: C_4  and  C_5
REMARK    6  A    between atoms: C_8  and  O_12
REMARK    7  A    between atoms: O_12  and  C_13
REMARK    8  A    between atoms: C_14  and  C_15
REMARK    9  A    between atoms: C_15  and  C_17
REMARK   10  A    between atoms: C_15  and  C_18
REMARK   11  A    between atoms: N_19  and  O_20
REMARK                            x       y       z     vdW  Elec       q    Type
REMARK                         _______ _______ _______ _____ _____    ______ ____
ROOT
ATOM      1  N   UNL     1       0.787  -0.377   1.345  0.00  0.00    +0.383 N 
ATOM      2  H   UNL     1       1.627   0.167   1.473  0.00  0.00    -0.081 HD
ENDROOT
BRANCH   1   4
ATOM      3  C   UNL     1      -1.077  -0.890  -0.158  0.00  0.00    -0.017 C 
ATOM      4  C   UNL     1       0.209  -0.082   0.027  0.00  0.00    -0.082 C 
ENDBRANCH   1   4
BRANCH   1   5
ATOM      5  C   UNL     1       1.113  -1.807   1.428  0.00  0.00    -0.043 C 
BRANCH   5   6
ATOM      6  C   UNL     1       2.197  -2.134   0.434  0.00  0.00    -0.063 A 
ATOM      7  C   UNL     1       1.863  -2.515  -0.853  0.00  0.00    +0.005 A 
ATOM      8  C   UNL     1       2.856  -2.815  -1.765  0.00  0.00    +0.047 A 
ATOM      9  C   UNL     1       4.189  -2.734  -1.391  0.00  0.00    +0.134 A 
ATOM     10  C   UNL     1       4.522  -2.350  -0.099  0.00  0.00    +0.060 A 
ATOM     11  C   UNL     1       3.525  -2.046   0.809  0.00  0.00    +0.020 A 
ATOM     12 BR   UNL     1       6.338  -2.239   0.416  0.00  0.00    -0.047 Br
BRANCH   9  13
ATOM     13  O   UNL     1       5.167  -3.029  -2.287  0.00  0.00    -0.494 OA
ATOM     14  C   UNL     1       4.750  -3.417  -3.598  0.00  0.00    +0.277 C 
ENDBRANCH   9  13
ENDBRANCH   5   6
ENDBRANCH   1   5
BRANCH   1  15
ATOM     15  C   UNL     1      -0.183  -0.034   2.393  0.00  0.00    -0.068 C 
BRANCH  15  16
ATOM     16  C   UNL     1      -0.421   1.477   2.394  0.00  0.00    +0.036 C 
ATOM     17  C   UNL     1       0.880   2.197   2.755  0.00  0.00    +0.013 C 
BRANCH  16  18
ATOM     18  C   UNL     1      -1.482   1.818   3.408  0.00  0.00    +0.133 C 
ATOM     19  N   UNL     1      -1.144   2.182   4.601  0.00  0.00    -0.077 NA
ATOM     20  N   UNL     1      -2.813   1.742   3.063  0.00  0.00    -0.344 N 
ATOM     21  H   UNL     1      -3.068   1.469   2.168  0.00  0.00    +0.144 HD
ATOM     22  H   UNL     1      -3.497   1.962   3.716  0.00  0.00    +0.144 HD
BRANCH  19  23
ATOM     23  O   UNL     1      -2.141   2.502   5.553  0.00  0.00    -0.408 OA
ATOM     24  H   UNL     1      -1.791   2.763   6.416  0.00  0.00    +0.328 HD
ENDBRANCH  19  23
ENDBRANCH  16  18
ENDBRANCH  15  16
ENDBRANCH   1  15
TORSDOF 8
