REMARK  Name = ZINC38740791
REMARK  7 active torsions:
REMARK  status: ('A' for Active; 'I' for Inactive)
REMARK    1  A    between atoms: C_4  and  C_7
REMARK    2  A    between atoms: C_7  and  C_8
REMARK    3  A    between atoms: C_7  and  C_35
REMARK    4  A    between atoms: C_8  and  C_9
REMARK    5  A    between atoms: C_9  and  N_10
REMARK    6  A    between atoms: C_11  and  C_13
REMARK    7  A    between atoms: C_19  and  C_21
REMARK                            x       y       z     vdW  Elec       q    Type
REMARK                         _______ _______ _______ _____ _____    ______ ____
ROOT
ATOM      1  C   UNL     1       3.413  -1.444   6.130  0.00  0.00    +0.091 C 
ATOM      2  C   UNL     1       2.036  -2.110   6.101  0.00  0.00    +0.040 C 
ATOM      3  C   UNL     1       1.697  -2.657   7.457  0.00  0.00    -0.030 C 
ATOM      4  C   UNL     1       2.296  -2.307   8.550  0.00  0.00    -0.030 C 
ATOM      5  C   UNL     1       3.419  -1.314   8.613  0.00  0.00    +0.040 C 
ATOM      6  C   UNL     1       3.468  -0.486   7.327  0.00  0.00    +0.091 C 
ENDROOT
BRANCH   6   7
ATOM      7  C   UNL     1       4.747   0.310   7.281  0.00  0.00    +0.220 C 
ATOM      8  O   UNL     1       5.715  -0.131   6.700  0.00  0.00    -0.275 OA
ATOM      9  N   UNL     1       4.814   1.513   7.886  0.00  0.00    -0.298 N 
ATOM     10  C   UNL     1       3.623   2.101   8.516  0.00  0.00    +0.126 C 
ATOM     11  C   UNL     1       3.952   2.426   9.978  0.00  0.00    +0.125 C 
ATOM     12  N   UNL     1       5.218   3.172  10.020  0.00  0.00    -0.314 N 
ATOM     13  C   UNL     1       6.408   2.584   9.390  0.00  0.00    +0.125 C 
ATOM     14  C   UNL     1       6.080   2.257   7.933  0.00  0.00    +0.126 C 
ATOM     15  C   UNL     1       5.287   4.413  10.643  0.00  0.00    +0.099 A 
ATOM     16  C   UNL     1       4.186   4.894  11.346  0.00  0.00    +0.042 A 
ATOM     17  C   UNL     1       4.269   6.129  11.962  0.00  0.00    +0.005 A 
ATOM     18  C   UNL     1       5.454   6.845  11.854  0.00  0.00    +0.018 A 
ATOM     19  C   UNL     1       6.507   6.308  11.141  0.00  0.00    +0.084 A 
ATOM     20  N   UNL     1       6.402   5.123  10.568  0.00  0.00    -0.350 N 
ATOM     21  H   UNL     1       7.158   4.767  10.076  0.00  0.00    +0.166 HD
ENDBRANCH   6   7
BRANCH   1  23
ATOM     22  N   UNL     1       3.614  -1.312   3.668  0.00  0.00    -0.315 N 
ATOM     23  C   UNL     1       3.630  -0.672   4.854  0.00  0.00    +0.217 C 
ATOM     24  O   UNL     1       3.818   0.525   4.894  0.00  0.00    -0.275 OA
ATOM     25  H   UNL     1       3.463  -2.270   3.636  0.00  0.00    +0.149 HD
BRANCH  22  26
ATOM     26  C   UNL     1       3.825  -0.562   2.428  0.00  0.00    +0.105 C 
BRANCH  26  27
ATOM     27  C   UNL     1       3.759  -1.519   1.236  0.00  0.00    +0.031 C 
BRANCH  27  28
ATOM     28  C   UNL     1       3.979  -0.736  -0.060  0.00  0.00    +0.050 C 
BRANCH  28  32
ATOM     29  C   UNL     1       0.752   2.005  -0.634  0.00  0.00    +0.000 A 
ATOM     30  C   UNL     1       2.058   2.454  -0.684  0.00  0.00    +0.000 A 
ATOM     31  C   UNL     1       3.103   1.568  -0.498  0.00  0.00    +0.004 A 
ATOM     32  C   UNL     1       2.840   0.231  -0.262  0.00  0.00    -0.040 A 
ATOM     33  C   UNL     1       1.534  -0.218  -0.211  0.00  0.00    +0.004 A 
ATOM     34  C   UNL     1       0.490   0.668  -0.398  0.00  0.00    +0.000 A 
ENDBRANCH  28  32
BRANCH  28  35
ATOM     35  C   UNL     1       4.036  -1.693  -1.222  0.00  0.00    -0.040 A 
ATOM     36  C   UNL     1       3.027  -2.619  -1.405  0.00  0.00    +0.004 A 
ATOM     37  C   UNL     1       3.080  -3.498  -2.472  0.00  0.00    +0.000 A 
ATOM     38  C   UNL     1       4.142  -3.449  -3.355  0.00  0.00    +0.000 A 
ATOM     39  C   UNL     1       5.151  -2.522  -3.172  0.00  0.00    +0.000 A 
ATOM     40  C   UNL     1       5.096  -1.641  -2.109  0.00  0.00    +0.004 A 
ENDBRANCH  28  35
ENDBRANCH  27  28
ENDBRANCH  26  27
ENDBRANCH  22  26
ENDBRANCH   1  23
TORSDOF 7
