REMARK  Name = ZINC16755764
REMARK  6 active torsions:
REMARK  status: ('A' for Active; 'I' for Inactive)
REMARK    1  A    between atoms: C_3  and  C_9
REMARK    2  A    between atoms: C_12  and  S_15
REMARK    3  A    between atoms: N_13  and  N_14
REMARK    4  A    between atoms: S_15  and  C_16
REMARK    5  A    between atoms: C_16  and  C_17
REMARK    6  A    between atoms: N_19  and  C_20
REMARK                            x       y       z     vdW  Elec       q    Type
REMARK                         _______ _______ _______ _____ _____    ______ ____
ROOT
ATOM      1  C   UNL     1       0.639   3.727   3.107  0.00  0.00    +0.183 A 
ATOM      2  N   UNL     1       0.381   4.066   1.865  0.00  0.00    -0.127 NA
ATOM      3  N   UNL     1      -0.887   4.038   1.658  0.00  0.00    -0.121 NA
ATOM      4  C   UNL     1      -1.516   3.675   2.753  0.00  0.00    +0.209 A 
ATOM      5  N   UNL     1      -0.568   3.469   3.715  0.00  0.00    -0.224 N 
ENDROOT
BRANCH   1   8
ATOM      6  C   UNL     1       3.346   3.184   5.653  0.00  0.00    +0.021 A 
ATOM      7  C   UNL     1       2.096   3.269   5.074  0.00  0.00    +0.014 A 
ATOM      8  C   UNL     1       1.975   3.639   3.734  0.00  0.00    +0.039 A 
ATOM      9  C   UNL     1       3.120   3.932   2.990  0.00  0.00    +0.053 A 
ATOM     10  C   UNL     1       4.364   3.849   3.582  0.00  0.00    +0.040 A 
ATOM     11  C   UNL     1       4.478   3.476   4.910  0.00  0.00    +0.042 A 
ATOM     12 CL   UNL     1       6.046   3.373   5.648  0.00  0.00    -0.083 Cl
ATOM     13 CL   UNL     1       2.978   4.401   1.324  0.00  0.00    -0.083 Cl
ENDBRANCH   1   8
BRANCH   5  14
ATOM     14  N   UNL     1      -0.775   3.082   5.008  0.00  0.00    -0.295 N 
ATOM     15  H   UNL     1      -0.892   3.883   5.611  0.00  0.00    +0.163 HD
ATOM     16  H   UNL     1      -1.566   2.459   5.077  0.00  0.00    +0.163 HD
ENDBRANCH   5  14
BRANCH   4  17
ATOM     17  S   UNL     1      -3.258   3.491   2.946  0.00  0.00    -0.075 S 
BRANCH  17  18
ATOM     18  C   UNL     1      -3.807   3.929   1.277  0.00  0.00    +0.173 C 
BRANCH  18  19
ATOM     19  C   UNL     1      -5.309   3.839   1.203  0.00  0.00    +0.228 C 
ATOM     20  O   UNL     1      -5.946   3.511   2.182  0.00  0.00    -0.275 OA
ATOM     21  N   UNL     1      -5.945   4.123   0.049  0.00  0.00    -0.282 N 
ATOM     22  H   UNL     1      -5.444   4.455  -0.712  0.00  0.00    +0.155 HD
BRANCH  21  23
ATOM     23  C   UNL     1      -7.331   3.937  -0.052  0.00  0.00    +0.083 A 
ATOM     24  C   UNL     1      -7.844   2.686  -0.374  0.00  0.00    +0.148 A 
ATOM     25  C   UNL     1      -9.212   2.505  -0.468  0.00  0.00    +0.078 A 
ATOM     26  C   UNL     1     -10.069   3.571  -0.252  0.00  0.00    +0.127 A 
ATOM     27  C   UNL     1      -9.559   4.818   0.064  0.00  0.00    +0.055 A 
ATOM     28  C   UNL     1      -8.193   5.004   0.165  0.00  0.00    +0.045 A 
ATOM     29 BR   UNL     1      -7.498   6.709   0.595  0.00  0.00    -0.048 Br
ATOM     30  F   UNL     1     -11.405   3.393  -0.350  0.00  0.00    -0.205 F 
ATOM     31  F   UNL     1      -7.008   1.647  -0.590  0.00  0.00    -0.203 F 
ENDBRANCH  21  23
ENDBRANCH  18  19
ENDBRANCH  17  18
ENDBRANCH   4  17
TORSDOF 6
