REMARK  Name = ZINC15861793
REMARK  3 active torsions:
REMARK  status: ('A' for Active; 'I' for Inactive)
REMARK    1  A    between atoms: C_5  and  N_7
REMARK    2  A    between atoms: N_9  and  C_10
REMARK    3  A    between atoms: C_20  and  N_30
REMARK                            x       y       z     vdW  Elec       q    Type
REMARK                         _______ _______ _______ _____ _____    ______ ____
ROOT
ATOM      1  N   UNL     1       0.640  -2.086   0.297  0.00  0.00    -0.253 N 
ATOM      2  C   UNL     1       1.060  -2.907   1.312  0.00  0.00    +0.098 C 
ATOM      3  N   UNL     1       1.020  -2.626   2.572  0.00  0.00    -0.369 N 
ATOM      4  C   UNL     1       1.577  -4.197   0.712  0.00  0.00    +0.131 C 
ATOM      5  C   UNL     1       1.391  -3.994  -0.800  0.00  0.00    +0.038 C 
ATOM      6  C   UNL     1       0.785  -2.619  -0.924  0.00  0.00    +0.069 C 
ATOM      7  S   UNL     1       0.381  -1.906  -2.297  0.00  0.00    -0.039 S 
ATOM      8  C   UNL     1       2.740  -4.056  -1.509  0.00  0.00    +0.015 C 
ATOM      9  C   UNL     1       3.348  -5.449  -1.330  0.00  0.00    +0.001 C 
ATOM     10  C   UNL     1       2.398  -6.497  -1.915  0.00  0.00    +0.000 C 
ATOM     11  C   UNL     1       1.056  -6.437  -1.182  0.00  0.00    +0.001 C 
ATOM     12  C   UNL     1       0.441  -5.047  -1.360  0.00  0.00    +0.015 C 
ATOM     13  H   UNL     1       1.065  -1.702   2.865  0.00  0.00    +0.161 HD
ENDROOT
BRANCH   3  14
ATOM     14  C   UNL     1       0.907  -3.702   3.560  0.00  0.00    +0.040 C 
ATOM     15  C   UNL     1       0.659  -3.101   4.944  0.00  0.00    +0.031 C 
ATOM     16  C   UNL     1       0.541  -4.225   5.975  0.00  0.00    -0.008 C 
ATOM     17  C   UNL     1       1.839  -5.035   5.997  0.00  0.00    +0.007 C 
ATOM     18  C   UNL     1       2.088  -5.637   4.612  0.00  0.00    -0.008 C 
ATOM     19  C   UNL     1       2.205  -4.513   3.581  0.00  0.00    +0.031 C 
ATOM     20  C   UNL     1       0.921  -6.553   4.237  0.00  0.00    +0.007 C 
ATOM     21  C   UNL     1      -0.377  -5.743   4.216  0.00  0.00    -0.008 C 
ATOM     22  C   UNL     1      -0.625  -5.141   5.600  0.00  0.00    +0.007 C 
ATOM     23  C   UNL     1      -0.259  -4.618   3.185  0.00  0.00    +0.031 C 
ENDBRANCH   3  14
BRANCH   1  28
ATOM     24  C   UNL     1      -1.788   0.606   0.918  0.00  0.00    +0.002 A 
ATOM     25  C   UNL     1      -0.955   1.710   0.951  0.00  0.00    +0.002 A 
ATOM     26  C   UNL     1       0.407   1.557   0.767  0.00  0.00    +0.022 A 
ATOM     27  C   UNL     1       0.940   0.300   0.550  0.00  0.00    +0.063 A 
ATOM     28  C   UNL     1       0.104  -0.810   0.517  0.00  0.00    +0.058 A 
ATOM     29  C   UNL     1      -1.262  -0.652   0.703  0.00  0.00    +0.025 A 
ATOM     30 CL   UNL     1       2.649   0.108   0.318  0.00  0.00    -0.082 Cl
ENDBRANCH   1  28
BRANCH   4  31
ATOM     31  N   UNL     1       2.996  -4.388   1.041  0.00  0.00    -0.288 NA
ATOM     32  C   UNL     1       3.860  -3.806   0.003  0.00  0.00    +0.113 C 
ATOM     33  C   UNL     1       5.325  -3.973   0.413  0.00  0.00    +0.175 C 
ATOM     34  O   UNL     1       5.599  -5.360   0.630  0.00  0.00    -0.377 OA
ATOM     35  C   UNL     1       4.776  -5.958   1.635  0.00  0.00    +0.175 C 
ATOM     36  C   UNL     1       3.305  -5.811   1.237  0.00  0.00    +0.113 C 
ENDBRANCH   4  31
TORSDOF 3
