REMARK  Name = ZINC14026368
REMARK  13 active torsions:
REMARK  status: ('A' for Active; 'I' for Inactive)
REMARK    1  A    between atoms: C_1  and  C_2
REMARK    2  A    between atoms: C_2  and  C_3
REMARK    3  A    between atoms: C_3  and  O_4
REMARK    4  A    between atoms: O_4  and  C_5
REMARK    5  A    between atoms: C_10  and  C_11
REMARK    6  A    between atoms: N_13  and  N_14
REMARK    7  A    between atoms: N_14  and  C_15
REMARK    8  A    between atoms: C_15  and  N_17
REMARK    9  A    between atoms: C_18  and  C_20
REMARK   10  A    between atoms: C_20  and  C_21
REMARK   11  A    between atoms: C_21  and  C_22
REMARK   12  A    between atoms: C_22  and  O_23
REMARK   13  A    between atoms: O_23  and  C_24
REMARK                            x       y       z     vdW  Elec       q    Type
REMARK                         _______ _______ _______ _____ _____    ______ ____
ROOT
ATOM      1  C   UNL     1       2.369   1.025  -0.015  0.00  0.00    +0.153 C 
ATOM      2  S   UNL     1       3.840   1.901  -0.024  0.00  0.00    -0.017 S 
ENDROOT
BRANCH   1   3
ATOM      3  N   UNL     1       2.387  -0.323  -0.022  0.00  0.00    -0.267 N 
ATOM      4  C   UNL     1       3.563  -0.981  -0.037  0.00  0.00    +0.219 C 
ATOM      5  O   UNL     1       4.605  -0.360  -0.044  0.00  0.00    -0.275 OA
ATOM      6  H   UNL     1       1.554  -0.819  -0.017  0.00  0.00    +0.157 HD
BRANCH   4   7
ATOM      7  C   UNL     1       3.584  -2.487  -0.045  0.00  0.00    +0.099 C 
BRANCH   7   8
ATOM      8  C   UNL     1       5.033  -2.978  -0.062  0.00  0.00    +0.050 C 
BRANCH   8   9
ATOM      9  C   UNL     1       5.054  -4.508  -0.070  0.00  0.00    +0.229 C 
BRANCH   9  10
ATOM     10  O   UNL     1       6.407  -4.966  -0.086  0.00  0.00    -0.490 OA
BRANCH  10  11
ATOM     11  C   UNL     1       6.604  -6.311  -0.095  0.00  0.00    +0.139 A 
ATOM     12  C   UNL     1       5.516  -7.171  -0.089  0.00  0.00    +0.048 A 
ATOM     13  C   UNL     1       5.717  -8.538  -0.098  0.00  0.00    +0.023 A 
ATOM     14  C   UNL     1       7.003  -9.049  -0.113  0.00  0.00    +0.043 A 
ATOM     15  C   UNL     1       8.090  -8.193  -0.119  0.00  0.00    +0.043 A 
ATOM     16  C   UNL     1       7.893  -6.825  -0.116  0.00  0.00    +0.084 A 
ATOM     17 CL   UNL     1       9.256  -5.750  -0.131  0.00  0.00    -0.080 Cl
ATOM     18 CL   UNL     1       7.253 -10.767  -0.125  0.00  0.00    -0.083 Cl
ENDBRANCH  10  11
ENDBRANCH   9  10
ENDBRANCH   8   9
ENDBRANCH   7   8
ENDBRANCH   4   7
ENDBRANCH   1   3
BRANCH   1  19
ATOM     19  N   UNL     1       1.193   1.683  -0.000  0.00  0.00    -0.245 N 
ATOM     20  H   UNL     1       1.179   2.653   0.005  0.00  0.00    +0.172 HD
BRANCH  19  23
ATOM     21  C   UNL     1      -1.187   1.624   0.017  0.00  0.00    +0.264 C 
ATOM     22  O   UNL     1      -1.204   2.840   0.023  0.00  0.00    -0.269 OA
ATOM     23  N   UNL     1      -0.011   0.966   0.007  0.00  0.00    -0.231 N 
ATOM     24  H   UNL     1       0.002  -0.004   0.002  0.00  0.00    +0.173 HD
BRANCH  21  30
ATOM     25  C   UNL     1      -3.680   1.549   0.028  0.00  0.00    +0.133 A 
ATOM     26  C   UNL     1      -4.866   0.829   0.030  0.00  0.00    +0.046 A 
ATOM     27  C   UNL     1      -4.837  -0.551   0.022  0.00  0.00    +0.004 A 
ATOM     28  C   UNL     1      -3.628  -1.227   0.013  0.00  0.00    +0.001 A 
ATOM     29  C   UNL     1      -2.441  -0.528   0.005  0.00  0.00    +0.017 A 
ATOM     30  C   UNL     1      -2.455   0.869   0.018  0.00  0.00    +0.080 A 
BRANCH  25  31
ATOM     31  O   UNL     1      -3.707   2.905   0.035  0.00  0.00    -0.491 OA
BRANCH  31  32
ATOM     32  C   UNL     1      -4.992   3.529   0.044  0.00  0.00    +0.229 C 
BRANCH  32  34
ATOM     33  C   UNL     1      -6.198   5.717   0.061  0.00  0.00    +0.007 C 
ATOM     34  C   UNL     1      -4.822   5.049   0.051  0.00  0.00    +0.038 C 
ENDBRANCH  32  34
ENDBRANCH  31  32
ENDBRANCH  25  31
ENDBRANCH  21  30
ENDBRANCH  19  23
ENDBRANCH   1  19
TORSDOF 12
