REMARK  Name = ZINC09066416
REMARK  11 active torsions:
REMARK  status: ('A' for Active; 'I' for Inactive)
REMARK    1  A    between atoms: C_1  and  C_2
REMARK    2  A    between atoms: C_2  and  C_3
REMARK    3  A    between atoms: C_3  and  C_5
REMARK    4  A    between atoms: C_3  and  N_6
REMARK    5  A    between atoms: C_9  and  C_15
REMARK    6  A    between atoms: C_10  and  O_14
REMARK    7  A    between atoms: C_12  and  S_13
REMARK    8  A    between atoms: C_19  and  O_27
REMARK    9  A    between atoms: C_20  and  O_25
REMARK   10  A    between atoms: O_25  and  C_26
REMARK   11  A    between atoms: O_27  and  C_28
REMARK                            x       y       z     vdW  Elec       q    Type
REMARK                         _______ _______ _______ _____ _____    ______ ____
ROOT
ATOM      1  C   UNL     1       0.442   5.832   3.542  0.00  0.00    +0.001 C 
ATOM      2  C   UNL     1       1.932   5.619   3.485  0.00  0.00    -0.050 A 
ATOM      3  C   UNL     1       2.557   5.661   2.247  0.00  0.00    +0.052 A 
ATOM      4  C   UNL     1       3.924   5.475   2.145  0.00  0.00    +0.162 A 
ATOM      5  C   UNL     1       4.676   5.245   3.293  0.00  0.00    +0.162 A 
ATOM      6  C   UNL     1       4.049   5.202   4.526  0.00  0.00    +0.053 A 
ATOM      7  C   UNL     1       2.677   5.387   4.622  0.00  0.00    -0.044 A 
ATOM      8  C   UNL     1       2.039   5.322   5.986  0.00  0.00    +0.016 C 
ATOM      9  C   UNL     1       0.646   5.948   5.941  0.00  0.00    -0.077 C 
ATOM     10  N   UNL     1      -0.102   5.350   4.819  0.00  0.00    +0.387 N 
ATOM     11  H   UNL     1      -0.017   4.327   4.861  0.00  0.00    -0.085 HD
ATOM     12  H   UNL     1      -1.091   5.614   4.890  0.00  0.00    -0.085 HD
ENDROOT
BRANCH   1  16
ATOM     13  N   UNL     1      -0.763   3.042   1.339  0.00  0.00    -0.285 N 
ATOM     14  C   UNL     1      -0.165   3.680   2.367  0.00  0.00    +0.260 A 
ATOM     15  O   UNL     1       0.406   3.049   3.242  0.00  0.00    -0.267 OA
ATOM     16  C   UNL     1      -0.211   5.079   2.412  0.00  0.00    +0.069 A 
ATOM     17  C   UNL     1      -0.869   5.757   1.400  0.00  0.00    +0.222 A 
ATOM     18  N   UNL     1      -1.443   5.073   0.406  0.00  0.00    -0.189 NA
ATOM     19  C   UNL     1      -1.392   3.757   0.365  0.00  0.00    +0.172 A 
BRANCH  13  20
ATOM     20  C   UNL     1      -0.729   1.579   1.267  0.00  0.00    +0.089 C 
ATOM     21  C   UNL     1      -1.377   0.992   2.522  0.00  0.00    +0.031 C 
BRANCH  20  23
ATOM     22  C   UNL     1       1.334   1.594  -0.142  0.00  0.00    +0.006 C 
ATOM     23  C   UNL     1       0.723   1.107   1.173  0.00  0.00    +0.021 C 
ENDBRANCH  20  23
ENDBRANCH  13  20
BRANCH  19  24
ATOM     24  S   UNL     1      -2.160   2.904  -0.972  0.00  0.00    -0.105 S 
ATOM     25  H   UNL     1      -2.663   3.999  -1.704  0.00  0.00    +0.110 HD
ENDBRANCH  19  24
BRANCH  17  26
ATOM     26  O   UNL     1      -0.931   7.109   1.417  0.00  0.00    -0.492 OA
ATOM     27  H   UNL     1      -1.411   7.490   0.669  0.00  0.00    +0.294 HD
ENDBRANCH  17  26
ENDBRANCH   1  16
BRANCH   5  28
ATOM     28  O   UNL     1       6.021   5.063   3.204  0.00  0.00    -0.491 OA
ATOM     29  C   UNL     1       6.726   4.832   4.425  0.00  0.00    +0.277 C 
ENDBRANCH   5  28
BRANCH   4  30
ATOM     30  O   UNL     1       4.530   5.517   0.928  0.00  0.00    -0.491 OA
ATOM     31  C   UNL     1       3.694   5.759  -0.205  0.00  0.00    +0.277 C 
ENDBRANCH   4  30
TORSDOF 7
