REMARK  Name = ZINC04167566
REMARK  3 active torsions:
REMARK  status: ('A' for Active; 'I' for Inactive)
REMARK    1  A    between atoms: C_1  and  C_2
REMARK    2  A    between atoms: C_15  and  C_17
REMARK    3  A    between atoms: C_18  and  C_19
REMARK                            x       y       z     vdW  Elec       q    Type
REMARK                         _______ _______ _______ _____ _____    ______ ____
ROOT
ATOM      1  C   UNL     1      -7.803  13.216   0.112  0.00  0.00    +0.073 C 
ATOM      2  C   UNL     1      -7.138  11.864   0.101  0.00  0.00    +0.076 A 
ATOM      3  N   UNL     1      -7.698  10.687   0.096  0.00  0.00    -0.244 NA
ATOM      4  C   UNL     1      -6.983   9.545   0.088  0.00  0.00    +0.080 A 
ATOM      5  C   UNL     1      -7.435   8.202   0.083  0.00  0.00    +0.031 A 
ATOM      6  C   UNL     1      -6.582   7.158   0.074  0.00  0.00    +0.031 A 
ATOM      7  C   UNL     1      -5.173   7.331   0.068  0.00  0.00    +0.081 A 
ATOM      8  C   UNL     1      -4.716   8.668   0.073  0.00  0.00    +0.057 A 
ATOM      9  C   UNL     1      -5.581   9.727   0.082  0.00  0.00    +0.055 A 
ATOM     10  S   UNL     1      -5.441  11.498   0.091  0.00  0.00    -0.071 S 
ATOM     11  S   UNL     1      -2.951   8.461   0.063  0.00  0.00    -0.051 S 
ATOM     12  C   UNL     1      -2.933   6.674   0.053  0.00  0.00    +0.166 A 
ATOM     13  N   UNL     1      -4.213   6.383   0.052  0.00  0.00    -0.225 NA
ATOM     14  N   UNL     1      -1.846   5.816   0.043  0.00  0.00    -0.261 N 
ATOM     15  C   UNL     1      -2.041   4.482   0.037  0.00  0.00    +0.243 C 
ATOM     16  O   UNL     1      -3.173   4.032   0.040  0.00  0.00    -0.270 OA
ATOM     17  H   UNL     1      -0.945   6.175   0.040  0.00  0.00    +0.157 HD
ENDROOT
BRANCH  15  18
ATOM     18  C   UNL     1      -0.932   3.606   0.026  0.00  0.00    +0.069 C 
ATOM     19  C   UNL     1      -1.128   2.263   0.020  0.00  0.00    +0.020 C 
BRANCH  19  20
ATOM     20  C   UNL     1      -0.017   1.386   0.010  0.00  0.00    +0.012 A 
ATOM     21  C   UNL     1       0.002  -0.004   0.002  0.00  0.00    +0.015 A 
ATOM     22  C   UNL     1       1.233  -0.610  -0.013  0.00  0.00    +0.008 A 
ATOM     23  C   UNL     1       2.353   0.160  -0.019  0.00  0.00    +0.046 A 
ATOM     24  S   UNL     1       1.724   1.776  -0.005  0.00  0.00    -0.097 S 
ENDBRANCH  19  20
ENDBRANCH  15  18
TORSDOF 2
