REMARK  Name = ZINC35099410
REMARK  5 active torsions:
REMARK  status: ('A' for Active; 'I' for Inactive)
REMARK    1  A    between atoms: C_6  and  C_7
REMARK    2  A    between atoms: C_7  and  O_30
REMARK    3  A    between atoms: C_8  and  C_24
REMARK    4  A    between atoms: C_10  and  C_16
REMARK    5  A    between atoms: C_24  and  C_26
REMARK                            x       y       z     vdW  Elec       q    Type
REMARK                         _______ _______ _______ _____ _____    ______ ____
ROOT
ATOM      1  C   UNL     1      -1.349  -0.874   0.051  0.00  0.00    +0.172 C 
ATOM      2  C   UNL     1      -1.622  -1.247  -1.410  0.00  0.00    +0.144 C 
ATOM      3  C   UNL     1      -3.015  -1.879  -1.500  0.00  0.00    +0.121 C 
ATOM      4  N   UNL     1      -3.999  -0.956  -0.933  0.00  0.00    -0.292 N 
ATOM      5  C   UNL     1      -3.666  -0.089   0.035  0.00  0.00    +0.302 C 
ATOM      6  O   UNL     1      -4.524   0.648   0.479  0.00  0.00    -0.253 OA
ATOM      7  N   UNL     1      -2.424  -0.006   0.534  0.00  0.00    -0.267 N 
ATOM      8  H   UNL     1      -4.911  -0.971  -1.264  0.00  0.00    +0.151 HD
ATOM      9  H   UNL     1      -2.234   0.644   1.229  0.00  0.00    +0.153 HD
ENDROOT
BRANCH   3  10
ATOM     10  C   UNL     1      -3.352  -2.153  -2.943  0.00  0.00    -0.008 A 
ATOM     11  C   UNL     1      -4.085  -1.231  -3.668  0.00  0.00    +0.008 A 
ATOM     12  C   UNL     1      -4.394  -1.481  -4.992  0.00  0.00    +0.020 A 
ATOM     13  C   UNL     1      -3.970  -2.653  -5.592  0.00  0.00    +0.042 A 
ATOM     14  C   UNL     1      -3.236  -3.575  -4.868  0.00  0.00    +0.040 A 
ATOM     15  C   UNL     1      -2.923  -3.322  -3.544  0.00  0.00    +0.047 A 
ATOM     16 CL   UNL     1      -1.997  -4.476  -2.635  0.00  0.00    -0.083 Cl
ATOM     17 CL   UNL     1      -4.359  -2.967  -7.255  0.00  0.00    -0.083 Cl
ENDBRANCH   3  10
BRANCH   1  23
ATOM     18  C   UNL     1      -0.003   1.234   0.129  0.00  0.00    +0.011 A 
ATOM     19  C   UNL     1       1.204   1.901   0.217  0.00  0.00    +0.039 A 
ATOM     20  C   UNL     1       2.384   1.185   0.326  0.00  0.00    +0.123 A 
ATOM     21  C   UNL     1       2.353  -0.199   0.345  0.00  0.00    +0.039 A 
ATOM     22  C   UNL     1       1.145  -0.864   0.257  0.00  0.00    +0.011 A 
ATOM     23  C   UNL     1      -0.032  -0.148   0.148  0.00  0.00    +0.003 A 
ATOM     24  F   UNL     1       3.565   1.836   0.413  0.00  0.00    -0.205 F 
ENDBRANCH   1  23
BRANCH   2  25
ATOM     25  C   UNL     1      -1.568  -0.009  -2.267  0.00  0.00    +0.245 C 
ATOM     26  O   UNL     1      -2.327   0.906  -2.054  0.00  0.00    -0.287 OA
BRANCH  25  27
ATOM     27  C   UNL     1      -0.567   0.088  -3.389  0.00  0.00    +0.451 C 
ATOM     28  F   UNL     1      -0.627   1.364  -3.958  0.00  0.00    -0.163 F 
ATOM     29  F   UNL     1       0.719  -0.139  -2.887  0.00  0.00    -0.163 F 
ATOM     30  F   UNL     1      -0.864  -0.872  -4.363  0.00  0.00    -0.163 F 
ENDBRANCH  25  27
ENDBRANCH   2  25
BRANCH   1  31
ATOM     31  O   UNL     1      -1.300  -2.061   0.847  0.00  0.00    -0.367 OA
ATOM     32  H   UNL     1      -1.133  -1.898   1.785  0.00  0.00    +0.212 HD
ENDBRANCH   1  31
TORSDOF 5
