REMARK  Name = ZINC22121430
REMARK  7 active torsions:
REMARK  status: ('A' for Active; 'I' for Inactive)
REMARK    1  A    between atoms: C_1  and  C_2
REMARK    2  A    between atoms: C_2  and  C_3
REMARK    3  A    between atoms: C_3  and  C_4
REMARK    4  A    between atoms: C_5  and  C_10
REMARK    5  A    between atoms: C_12  and  C_15
REMARK    6  A    between atoms: C_20  and  O_21
REMARK    7  A    between atoms: O_21  and  C_22
REMARK                            x       y       z     vdW  Elec       q    Type
REMARK                         _______ _______ _______ _____ _____    ______ ____
ROOT
ATOM      1  C   UNL     1       1.284  -0.340  -0.012  0.00  0.00    +0.267 A 
ATOM      2  N   UNL     1       0.002  -0.004   0.002  0.00  0.00    -0.186 NA
ATOM      3  C   UNL     1      -0.016   1.344   0.009  0.00  0.00    +0.206 A 
ATOM      4  N   UNL     1       1.228   1.754  -0.000  0.00  0.00    -0.056 NA
ATOM      5  O   UNL     1       1.985   0.807  -0.013  0.00  0.00    -0.332 OA
ENDROOT
BRANCH   1   7
ATOM      6  C   UNL     1       3.141  -2.119  -0.045  0.00  0.00    +0.063 A 
ATOM      7  C   UNL     1       1.831  -1.700  -0.025  0.00  0.00    +0.101 A 
ATOM      8  S   UNL     1       0.982  -3.272  -0.025  0.00  0.00    -0.048 S 
ATOM      9  C   UNL     1       2.389  -4.289  -0.045  0.00  0.00    +0.156 A 
ATOM     10  N   UNL     1       3.376  -3.408  -0.050  0.00  0.00    -0.229 NA
ATOM     11  N   UNL     1       2.459  -5.668  -0.054  0.00  0.00    -0.337 N 
ATOM     12  H   UNL     1       3.439  -6.168  -0.066  0.00  0.00    +0.144 HD
ATOM     13  H   UNL     1       1.536  -6.266  -0.048  0.00  0.00    +0.144 HD
BRANCH   6  14
ATOM     14  C   UNL     1       4.273  -1.124  -0.057  0.00  0.00    +0.056 C 
BRANCH  14  16
ATOM     15  C   UNL     1       5.827   0.216   1.368  0.00  0.00    +0.004 C 
ATOM     16  C   UNL     1       4.677  -0.793   1.381  0.00  0.00    +0.003 C 
ENDBRANCH  14  16
ENDBRANCH   6  14
ENDBRANCH   1   7
BRANCH   3  17
ATOM     17  C   UNL     1      -1.224   2.206   0.020  0.00  0.00    +0.064 A 
ATOM     18  C   UNL     1      -2.493   1.631   0.018  0.00  0.00    +0.015 A 
ATOM     19  C   UNL     1      -3.613   2.437   0.033  0.00  0.00    +0.001 A 
ATOM     20  C   UNL     1      -3.481   3.815   0.040  0.00  0.00    +0.004 A 
ATOM     21  C   UNL     1      -2.228   4.395   0.037  0.00  0.00    +0.046 A 
ATOM     22  C   UNL     1      -1.093   3.598   0.027  0.00  0.00    +0.131 A 
BRANCH  22  23
ATOM     23  O   UNL     1       0.140   4.167   0.024  0.00  0.00    -0.494 OA
ATOM     24  C   UNL     1       0.195   5.595   0.032  0.00  0.00    +0.277 C 
ENDBRANCH  22  23
ENDBRANCH   3  17
TORSDOF 5
