REMARK  Name = ZINC45319164
REMARK  6 active torsions:
REMARK  status: ('A' for Active; 'I' for Inactive)
REMARK    1  A    between atoms: C_4  and  O_24
REMARK    2  A    between atoms: C_6  and  O_7
REMARK    3  A    between atoms: O_7  and  C_8
REMARK    4  A    between atoms: C_8  and  C_9
REMARK    5  A    between atoms: O_24  and  C_25
REMARK    6  A    between atoms: C_27  and  C_32
REMARK                            x       y       z     vdW  Elec       q    Type
REMARK                         _______ _______ _______ _____ _____    ______ ____
ROOT
ATOM      1  O   UNL     1      -0.929  -0.625   1.322  0.00  0.00    -0.486 OA
ENDROOT
BRANCH   1   7
ATOM      2  C   UNL     1       0.129   1.453   0.855  0.00  0.00    +0.047 A 
ATOM      3  C   UNL     1       1.248   2.159   0.456  0.00  0.00    +0.027 A 
ATOM      4  C   UNL     1       2.411   1.488   0.128  0.00  0.00    +0.083 A 
ATOM      5  C   UNL     1       2.458   0.102   0.199  0.00  0.00    +0.150 A 
ATOM      6  C   UNL     1       1.336  -0.608   0.600  0.00  0.00    +0.093 A 
ATOM      7  C   UNL     1       0.171   0.068   0.928  0.00  0.00    +0.125 A 
ATOM      8 CL   UNL     1       3.814   2.378  -0.375  0.00  0.00    -0.080 Cl
BRANCH   5   9
ATOM      9  O   UNL     1       3.601  -0.558  -0.124  0.00  0.00    -0.454 OA
BRANCH   9  10
ATOM     10  C   UNL     1       3.599  -1.915  -0.041  0.00  0.00    +0.131 A 
ATOM     11  C   UNL     1       3.221  -2.674  -1.136  0.00  0.00    +0.065 A 
ATOM     12  C   UNL     1       3.221  -4.067  -1.048  0.00  0.00    +0.057 A 
ATOM     13  C   UNL     1       3.603  -4.686   0.144  0.00  0.00    +0.039 A 
ATOM     14  C   UNL     1       3.979  -3.919   1.230  0.00  0.00    +0.046 A 
ATOM     15  C   UNL     1       3.983  -2.538   1.138  0.00  0.00    +0.066 A 
ATOM     16 CL   UNL     1       4.454  -4.690   2.711  0.00  0.00    -0.083 Cl
BRANCH  12  17
ATOM     17  C   UNL     1       2.831  -4.858  -2.176  0.00  0.00    +0.099 C 
ATOM     18  N   UNL     1       2.521  -5.486  -3.070  0.00  0.00    -0.191 NA
ENDBRANCH  12  17
ENDBRANCH   9  10
ENDBRANCH   5   9
ENDBRANCH   1   7
BRANCH   1  19
ATOM     19  C   UNL     1      -2.095   0.136   1.645  0.00  0.00    +0.288 C 
BRANCH  19  20
ATOM     20  C   UNL     1      -3.205  -0.796   2.057  0.00  0.00    +0.130 A 
ATOM     21  C   UNL     1      -4.198  -1.406   1.171  0.00  0.00    +0.067 A 
ATOM     22  C   UNL     1      -4.437  -1.346  -0.207  0.00  0.00    +0.018 A 
ATOM     23  C   UNL     1      -5.484  -2.065  -0.716  0.00  0.00    +0.044 A 
ATOM     24  C   UNL     1      -6.274  -2.829   0.144  0.00  0.00    +0.125 A 
ATOM     25  N   UNL     1      -6.032  -2.873   1.444  0.00  0.00    -0.195 NA
ATOM     26  C   UNL     1      -5.030  -2.195   1.984  0.00  0.00    +0.260 A 
ATOM     27  O   UNL     1      -4.577  -2.069   3.248  0.00  0.00    -0.334 OA
ATOM     28  N   UNL     1      -3.455  -1.210   3.262  0.00  0.00    -0.077 NA
ATOM     29  N   UNL     1      -7.335  -3.557  -0.374  0.00  0.00    -0.319 N 
ATOM     30  C   UNL     1      -8.336  -4.170   0.512  0.00  0.00    +0.087 C 
ATOM     31  C   UNL     1      -9.731  -3.773   0.017  0.00  0.00    -0.063 C 
ATOM     32  N   UNL     1      -9.869  -4.139  -1.399  0.00  0.00    +0.381 N 
ATOM     33  C   UNL     1      -8.925  -3.361  -2.211  0.00  0.00    -0.063 C 
ATOM     34  C   UNL     1      -7.494  -3.733  -1.826  0.00  0.00    +0.087 C 
ATOM     35  H   UNL     1      -9.676  -5.123  -1.511  0.00  0.00    -0.086 HD
ATOM     36  H   UNL     1     -10.812  -3.947  -1.704  0.00  0.00    -0.086 HD
ENDBRANCH  19  20
ENDBRANCH   1  19
TORSDOF 6
