REMARK  Name = ZINC12881601
REMARK  8 active torsions:
REMARK  status: ('A' for Active; 'I' for Inactive)
REMARK    1  A    between atoms: C_1  and  C_2
REMARK    2  A    between atoms: C_2  and  C_3
REMARK    3  A    between atoms: C_17  and  C_19
REMARK    4  A    between atoms: C_19  and  C_20
REMARK    5  A    between atoms: C_20  and  C_21
REMARK    6  A    between atoms: N_25  and  C_28
REMARK    7  A    between atoms: C_28  and  C_29
REMARK    8  A    between atoms: C_29  and  C_30
REMARK                            x       y       z     vdW  Elec       q    Type
REMARK                         _______ _______ _______ _____ _____    ______ ____
ROOT
ATOM      1  C   UNL     1       4.416  11.288  -0.223  0.00  0.00    -0.026 A 
ATOM      2  C   UNL     1       3.693  12.369   0.239  0.00  0.00    +0.005 A 
ATOM      3  C   UNL     1       2.401  12.198   0.702  0.00  0.00    +0.001 A 
ATOM      4  C   UNL     1       1.831  10.937   0.703  0.00  0.00    +0.004 A 
ATOM      5  C   UNL     1       2.549   9.856   0.243  0.00  0.00    -0.027 A 
ATOM      6  C   UNL     1       3.850  10.016  -0.225  0.00  0.00    +0.039 A 
ATOM      7  N   UNL     1       4.370   8.786  -0.635  0.00  0.00    -0.286 N 
ATOM      8  C   UNL     1       3.487   7.782  -0.471  0.00  0.00    +0.211 C 
ATOM      9  O   UNL     1       3.663   6.612  -0.739  0.00  0.00    -0.277 OA
ATOM     10  C   UNL     1       2.241   8.392   0.109  0.00  0.00    +0.050 C 
ATOM     11  C   UNL     1       1.885   7.765   1.462  0.00  0.00    +0.088 C 
ATOM     12  C   UNL     1       0.331   7.743   1.485  0.00  0.00    +0.073 C 
ATOM     13  C   UNL     1      -0.094   8.367   0.139  0.00  0.00    -0.057 C 
ATOM     14  C   UNL     1       0.002   6.268   1.477  0.00  0.00    +0.224 C 
ATOM     15  O   UNL     1      -1.116   5.799   1.484  0.00  0.00    -0.275 OA
ATOM     16  N   UNL     1       1.137   5.560   1.463  0.00  0.00    -0.241 N 
ATOM     17  C   UNL     1       2.253   6.298   1.461  0.00  0.00    +0.225 C 
ATOM     18  O   UNL     1       3.383   5.860   1.457  0.00  0.00    -0.275 OA
ATOM     19  H   UNL     1       5.263   8.669  -0.995  0.00  0.00    +0.155 HD
ATOM     20  N   UNL     1       1.072   8.173  -0.725  0.00  0.00    +0.394 N 
ATOM     21  H   UNL     1       1.079   7.219  -1.104  0.00  0.00    -0.083 HD
ATOM     22  H   UNL     1       1.057   8.848  -1.499  0.00  0.00    -0.083 HD
ENDROOT
BRANCH   1  24
ATOM     23  C   UNL     1       5.801  11.657  -2.246  0.00  0.00    +0.009 C 
ATOM     24  C   UNL     1       5.823  11.486  -0.726  0.00  0.00    +0.033 C 
ENDBRANCH   1  24
BRANCH  13  25
ATOM     25  C   UNL     1      -1.326   7.648  -0.416  0.00  0.00    -0.004 C 
BRANCH  25  26
ATOM     26  C   UNL     1      -1.804   8.359  -1.684  0.00  0.00    +0.123 C 
BRANCH  26  27
ATOM     27  C   UNL     1      -3.016   7.651  -2.230  0.00  0.00    +0.356 C 
ATOM     28  O   UNL     1      -3.454   6.677  -1.664  0.00  0.00    -0.246 OA
ATOM     29  O   UNL     1      -3.611   8.102  -3.346  0.00  0.00    -0.246 OA
ENDBRANCH  26  27
ENDBRANCH  25  26
ENDBRANCH  13  25
BRANCH  16  30
ATOM     30  C   UNL     1       1.157   4.095   1.455  0.00  0.00    +0.121 C 
BRANCH  30  31
ATOM     31  C   UNL     1       1.151   3.592   0.010  0.00  0.00    +0.054 C 
BRANCH  31  32
ATOM     32  C   UNL     1       1.171   2.086   0.002  0.00  0.00    -0.046 A 
ATOM     33  C   UNL     1      -0.017   1.378   0.010  0.00  0.00    +0.004 A 
ATOM     34  C   UNL     1       0.002  -0.004   0.002  0.00  0.00    +0.000 A 
ATOM     35  C   UNL     1       1.208  -0.679  -0.014  0.00  0.00    +0.000 A 
ATOM     36  C   UNL     1       2.396   0.029  -0.022  0.00  0.00    +0.000 A 
ATOM     37  C   UNL     1       2.377   1.411  -0.014  0.00  0.00    +0.004 A 
ENDBRANCH  31  32
ENDBRANCH  30  31
ENDBRANCH  16  30
TORSDOF 7
