REMARK  Name = ZINC40509750
REMARK  6 active torsions:
REMARK  status: ('A' for Active; 'I' for Inactive)
REMARK    1  A    between atoms: C_1  and  C_2
REMARK    2  A    between atoms: C_4  and  C_18
REMARK    3  A    between atoms: C_6  and  O_10
REMARK    4  A    between atoms: C_7  and  C_8
REMARK    5  A    between atoms: C_8  and  N_9
REMARK    6  A    between atoms: O_10  and  C_11
REMARK                            x       y       z     vdW  Elec       q    Type
REMARK                         _______ _______ _______ _____ _____    ______ ____
ROOT
ATOM      1  C   UNL     1       0.592   1.465   0.002  0.00  0.00    +0.044 C 
ATOM      2  C   UNL     1       0.384  -0.028  -0.004  0.00  0.00    -0.042 A 
ATOM      3  C   UNL     1       0.257  -0.723  -1.199  0.00  0.00    +0.026 A 
ATOM      4  C   UNL     1       0.068  -2.090  -1.168  0.00  0.00    +0.042 A 
ATOM      5  N   UNL     1       0.006  -2.739  -0.020  0.00  0.00    -0.218 NA
ATOM      6  C   UNL     1       0.121  -2.112   1.138  0.00  0.00    +0.222 A 
ATOM      7  C   UNL     1       0.320  -0.738   1.183  0.00  0.00    +0.000 A 
ATOM      8  C   UNL     1      -0.070  -2.852  -2.461  0.00  0.00    +0.066 C 
ENDROOT
BRANCH   7   9
ATOM      9  C   UNL     1       0.458  -0.028   2.505  0.00  0.00    -0.045 C 
BRANCH   9  10
ATOM     10  N   UNL     1      -0.869   0.394   2.975  0.00  0.00    +0.381 N 
ATOM     11  H   UNL     1      -1.459  -0.417   3.088  0.00  0.00    -0.090 HD
ATOM     12  H   UNL     1      -0.777   0.869   3.861  0.00  0.00    -0.090 HD
ATOM     13  H   UNL     1      -1.282   1.019   2.300  0.00  0.00    -0.090 HD
ENDBRANCH   9  10
ENDBRANCH   7   9
BRANCH   6  14
ATOM     14  O   UNL     1       0.051  -2.818   2.295  0.00  0.00    -0.437 OA
BRANCH  14  15
ATOM     15  C   UNL     1      -0.036  -4.172   2.211  0.00  0.00    +0.144 A 
ATOM     16  C   UNL     1      -1.278  -4.791   2.228  0.00  0.00    +0.047 A 
ATOM     17  C   UNL     1      -1.363  -6.167   2.143  0.00  0.00    +0.004 A 
ATOM     18  C   UNL     1      -0.213  -6.928   2.040  0.00  0.00    +0.001 A 
ATOM     19  C   UNL     1       1.025  -6.314   2.023  0.00  0.00    +0.019 A 
ATOM     20  C   UNL     1       1.117  -4.937   2.102  0.00  0.00    +0.060 A 
ATOM     21 BR   UNL     1       2.811  -4.098   2.071  0.00  0.00    -0.046 Br
ENDBRANCH  14  15
ENDBRANCH   6  14
TORSDOF 4
