REMARK  Name = ZINC13395528
REMARK  3 active torsions:
REMARK  status: ('A' for Active; 'I' for Inactive)
REMARK    1  A    between atoms: C_4  and  C_7
REMARK    2  A    between atoms: C_8  and  C_9
REMARK    3  A    between atoms: N_23  and  C_26
REMARK                            x       y       z     vdW  Elec       q    Type
REMARK                         _______ _______ _______ _____ _____    ______ ____
ROOT
ATOM      1  C   UNL     1       5.283  -2.860  -0.329  0.00  0.00    +0.093 C 
ATOM      2  C   UNL     1       5.177  -3.680   0.974  0.00  0.00    +0.110 C 
ATOM      3  C   UNL     1       5.776  -5.069   0.619  0.00  0.00    +0.107 C 
ATOM      4  C   UNL     1       6.169  -4.954  -0.863  0.00  0.00    +0.080 C 
ATOM      5  N   UNL     1       5.320  -3.877  -1.415  0.00  0.00    -0.282 NA
ATOM      6  C   UNL     1       3.926  -4.379  -1.608  0.00  0.00    +0.155 C 
ATOM      7  S   UNL     1       4.242  -6.088  -2.219  0.00  0.00    -0.144 S 
ATOM      8  C   UNL     1       5.932  -6.299  -1.580  0.00  0.00    +0.090 C 
ATOM      9  C   UNL     1       7.017  -5.144   1.480  0.00  0.00    +0.232 C 
ATOM     10  O   UNL     1       7.789  -6.078   1.515  0.00  0.00    -0.274 OA
ATOM     11  N   UNL     1       7.130  -4.020   2.196  0.00  0.00    -0.210 N 
ATOM     12  C   UNL     1       6.140  -3.119   1.996  0.00  0.00    +0.232 C 
ATOM     13  O   UNL     1       6.036  -2.039   2.537  0.00  0.00    -0.274 OA
ENDROOT
BRANCH  11  14
ATOM     14  C   UNL     1       8.186  -3.793   3.090  0.00  0.00    +0.044 A 
ATOM     15  C   UNL     1       9.479  -3.630   2.612  0.00  0.00    +0.025 A 
ATOM     16  C   UNL     1      10.518  -3.407   3.494  0.00  0.00    +0.022 A 
ATOM     17  C   UNL     1      10.270  -3.346   4.854  0.00  0.00    +0.041 A 
ATOM     18  C   UNL     1       8.982  -3.508   5.334  0.00  0.00    +0.022 A 
ATOM     19  C   UNL     1       7.939  -3.725   4.455  0.00  0.00    +0.025 A 
ATOM     20 CL   UNL     1      11.578  -3.065   5.961  0.00  0.00    -0.084 Cl
ENDBRANCH  11  14
BRANCH   1  22
ATOM     21  C   UNL     1       4.241  -0.666  -0.689  0.00  0.00    +0.005 C 
ATOM     22  C   UNL     1       4.080  -1.966  -0.486  0.00  0.00    -0.007 C 
BRANCH  21  26
ATOM     23  C   UNL     1       0.850   1.852  -1.134  0.00  0.00    +0.000 A 
ATOM     24  C   UNL     1       2.122   2.392  -1.201  0.00  0.00    +0.001 A 
ATOM     25  C   UNL     1       3.228   1.579  -1.057  0.00  0.00    +0.008 A 
ATOM     26  C   UNL     1       3.061   0.210  -0.843  0.00  0.00    -0.025 A 
ATOM     27  C   UNL     1       1.776  -0.328  -0.777  0.00  0.00    +0.008 A 
ATOM     28  C   UNL     1       0.678   0.495  -0.923  0.00  0.00    +0.001 A 
ENDBRANCH  21  26
ENDBRANCH   1  22
TORSDOF 3
