REMARK  Name = ZINC12064280
REMARK  9 active torsions:
REMARK  status: ('A' for Active; 'I' for Inactive)
REMARK    1  A    between atoms: C_1  and  C_2
REMARK    2  A    between atoms: C_9  and  N_15
REMARK    3  A    between atoms: C_10  and  C_11
REMARK    4  A    between atoms: N_13  and  C_14
REMARK    5  A    between atoms: C_16  and  C_18
REMARK    6  A    between atoms: C_21  and  S_24
REMARK    7  A    between atoms: S_24  and  N_27
REMARK    8  A    between atoms: N_27  and  C_28
REMARK    9  A    between atoms: N_27  and  C_29
REMARK                            x       y       z     vdW  Elec       q    Type
REMARK                         _______ _______ _______ _____ _____    ______ ____
ROOT
ATOM      1  N   UNL     1       4.189  -0.191  -4.659  0.00  0.00    -0.275 N 
ATOM      2  C   UNL     1       5.436   0.078  -4.223  0.00  0.00    +0.249 C 
ATOM      3  O   UNL     1       5.647   0.217  -3.034  0.00  0.00    -0.270 OA
ATOM      4  H   UNL     1       4.020  -0.301  -5.608  0.00  0.00    +0.156 HD
ENDROOT
BRANCH   1  12
ATOM      5  C   UNL     1      -1.385  -0.871   0.786  0.00  0.00    +0.008 C 
ATOM      6  C   UNL     1      -0.557  -1.112  -0.478  0.00  0.00    -0.009 C 
ATOM      7  C   UNL     1      -1.266  -0.491  -1.685  0.00  0.00    +0.008 C 
ATOM      8  C   UNL     1      -0.580  -0.937  -2.978  0.00  0.00    +0.037 C 
ATOM      9  C   UNL     1       0.913  -0.651  -2.865  0.00  0.00    -0.023 A 
ATOM     10  C   UNL     1       1.492  -0.442  -1.663  0.00  0.00    -0.004 A 
ATOM     11  S   UNL     1       3.200  -0.155  -2.027  0.00  0.00    -0.077 S 
ATOM     12  C   UNL     1       3.148  -0.309  -3.752  0.00  0.00    +0.085 A 
ATOM     13  C   UNL     1       1.810  -0.579  -4.005  0.00  0.00    +0.069 A 
ATOM     14  C   UNL     1       0.823  -0.456  -0.323  0.00  0.00    +0.046 C 
BRANCH  13  15
ATOM     15  C   UNL     1       1.321  -0.784  -5.372  0.00  0.00    +0.246 C 
ATOM     16  O   UNL     1       1.310  -1.903  -5.853  0.00  0.00    -0.270 OA
ATOM     17  N   UNL     1       0.884   0.265  -6.096  0.00  0.00    -0.314 N 
ATOM     18  C   UNL     1       0.395   0.060  -7.462  0.00  0.00    +0.128 C 
ATOM     19  H   UNL     1       0.893   1.156  -5.713  0.00  0.00    +0.149 HD
ENDBRANCH  13  15
ENDBRANCH   1  12
BRANCH   2  20
ATOM     20  C   UNL     1       6.546   0.205  -5.190  0.00  0.00    +0.037 A 
ATOM     21  C   UNL     1       6.308   0.041  -6.556  0.00  0.00    +0.015 A 
ATOM     22  C   UNL     1       7.347   0.165  -7.454  0.00  0.00    +0.029 A 
ATOM     23  C   UNL     1       8.626   0.441  -7.003  0.00  0.00    +0.109 A 
ATOM     24  C   UNL     1       8.870   0.600  -5.650  0.00  0.00    +0.029 A 
ATOM     25  C   UNL     1       7.838   0.483  -4.742  0.00  0.00    +0.015 A 
BRANCH  23  26
ATOM     26  S   UNL     1       9.950   0.592  -8.156  0.00  0.00    +0.074 S 
ATOM     27  O   UNL     1       9.364   0.940  -9.403  0.00  0.00    -0.150 OA
ATOM     28  O   UNL     1      10.944   1.392  -7.531  0.00  0.00    -0.150 OA
BRANCH  26  29
ATOM     29  N   UNL     1      10.607  -0.916  -8.347  0.00  0.00    -0.206 N 
ATOM     30  C   UNL     1      10.015  -1.858  -9.300  0.00  0.00    +0.157 C 
BRANCH  29  31
ATOM     31  C   UNL     1      11.726  -1.290  -7.599  0.00  0.00    +0.051 A 
ATOM     32  C   UNL     1      12.911  -0.575  -7.715  0.00  0.00    +0.025 A 
ATOM     33  C   UNL     1      14.014  -0.945  -6.970  0.00  0.00    +0.002 A 
ATOM     34  C   UNL     1      13.942  -2.031  -6.117  0.00  0.00    +0.000 A 
ATOM     35  C   UNL     1      12.765  -2.748  -6.004  0.00  0.00    +0.002 A 
ATOM     36  C   UNL     1      11.657  -2.381  -6.741  0.00  0.00    +0.025 A 
ENDBRANCH  29  31
ENDBRANCH  26  29
ENDBRANCH  23  26
ENDBRANCH   2  20
TORSDOF 6
