REMARK  Name = ZINC44875639
REMARK  9 active torsions:
REMARK  status: ('A' for Active; 'I' for Inactive)
REMARK    1  A    between atoms: C_1  and  C_2
REMARK    2  A    between atoms: N_5  and  C_8
REMARK    3  A    between atoms: C_8  and  C_9
REMARK    4  A    between atoms: C_12  and  C_15
REMARK    5  A    between atoms: C_15  and  N_16
REMARK    6  A    between atoms: C_17  and  C_19
REMARK    7  A    between atoms: C_19  and  C_30
REMARK    8  A    between atoms: C_20  and  C_21
REMARK    9  A    between atoms: C_25  and  N_27
REMARK                            x       y       z     vdW  Elec       q    Type
REMARK                         _______ _______ _______ _____ _____    ______ ____
ROOT
ATOM      1  N   UNL     1       1.645  -4.046   7.470  0.00  0.00    -0.307 N 
ATOM      2  C   UNL     1       2.410  -4.355   8.536  0.00  0.00    +0.245 C 
ATOM      3  O   UNL     1       2.642  -5.519   8.801  0.00  0.00    -0.270 OA
ATOM      4  H   UNL     1       1.460  -3.118   7.258  0.00  0.00    +0.149 HD
ENDROOT
BRANCH   2   5
ATOM      5  C   UNL     1       2.966  -3.283   9.377  0.00  0.00    +0.044 C 
ATOM      6  C   UNL     1       3.739  -3.594  10.452  0.00  0.00    +0.021 C 
BRANCH   6   7
ATOM      7  C   UNL     1       4.415  -2.529  11.205  0.00  0.00    -0.022 A 
ATOM      8  C   UNL     1       4.627  -2.665  12.582  0.00  0.00    +0.008 A 
ATOM      9  C   UNL     1       5.262  -1.661  13.280  0.00  0.00    +0.003 A 
ATOM     10  C   UNL     1       5.689  -0.519  12.623  0.00  0.00    +0.033 A 
ATOM     11  C   UNL     1       5.482  -0.376  11.262  0.00  0.00    +0.127 A 
ATOM     12  C   UNL     1       4.854  -1.373  10.548  0.00  0.00    +0.040 A 
BRANCH  11  13
ATOM     13  N   UNL     1       5.942   0.850  10.571  0.00  0.00    +0.056 N 
ATOM     14  O   UNL     1       6.498   1.724  11.195  0.00  0.00    -0.126 OA
ATOM     15  O   UNL     1       5.763   0.976   9.382  0.00  0.00    -0.126 OA
ENDBRANCH  11  13
ENDBRANCH   6   7
BRANCH   5  16
ATOM     16  C   UNL     1       2.684  -1.866   9.054  0.00  0.00    -0.013 A 
ATOM     17  C   UNL     1       1.959  -1.075   9.945  0.00  0.00    +0.008 A 
ATOM     18  C   UNL     1       1.700   0.245   9.638  0.00  0.00    +0.001 A 
ATOM     19  C   UNL     1       2.158   0.785   8.449  0.00  0.00    +0.000 A 
ATOM     20  C   UNL     1       2.877   0.005   7.561  0.00  0.00    +0.001 A 
ATOM     21  C   UNL     1       3.147  -1.315   7.859  0.00  0.00    +0.008 A 
ENDBRANCH   5  16
ENDBRANCH   2   5
BRANCH   1  22
ATOM     22  C   UNL     1       1.092  -5.113   6.632  0.00  0.00    +0.139 C 
BRANCH  22  26
ATOM     23  C   UNL     1      -1.210  -3.394   3.471  0.00  0.00    -0.064 A 
ATOM     24  C   UNL     1       0.139  -3.635   3.291  0.00  0.00    +0.002 A 
ATOM     25  C   UNL     1       0.884  -4.191   4.314  0.00  0.00    +0.005 A 
ATOM     26  C   UNL     1       0.280  -4.506   5.517  0.00  0.00    -0.030 A 
ATOM     27  C   UNL     1      -1.069  -4.264   5.697  0.00  0.00    +0.005 A 
ATOM     28  C   UNL     1      -1.813  -3.704   4.675  0.00  0.00    +0.002 A 
BRANCH  23  29
ATOM     29  C   UNL     1      -2.022  -2.788   2.355  0.00  0.00    -0.043 C 
BRANCH  29  34
ATOM     30  C   UNL     1      -1.510   2.852   1.686  0.00  0.00    +0.007 C 
ATOM     31  C   UNL     1      -1.497   1.341   1.444  0.00  0.00    -0.018 C 
ATOM     32  C   UNL     1      -2.912   0.783   1.618  0.00  0.00    -0.016 C 
ATOM     33  C   UNL     1      -2.878  -0.738   1.454  0.00  0.00    -0.078 C 
ATOM     34  N   UNL     1      -1.991  -1.324   2.467  0.00  0.00    +0.382 N 
ATOM     35  C   UNL     1      -0.618  -0.848   2.262  0.00  0.00    -0.078 C 
ATOM     36  C   UNL     1      -0.565   0.669   2.457  0.00  0.00    -0.016 C 
ATOM     37  H   UNL     1      -2.306  -1.052   3.386  0.00  0.00    -0.081 HD
ENDBRANCH  29  34
ENDBRANCH  23  29
ENDBRANCH  22  26
ENDBRANCH   1  22
TORSDOF 8
