REMARK  Name = ZINC52703746
REMARK  14 active torsions:
REMARK  status: ('A' for Active; 'I' for Inactive)
REMARK    1  A    between atoms: C_1  and  C_2
REMARK    2  A    between atoms: C_2  and  C_3
REMARK    3  A    between atoms: C_3  and  C_4
REMARK    4  A    between atoms: C_4  and  N_5
REMARK    5  A    between atoms: N_5  and  C_6
REMARK    6  A    between atoms: N_5  and  C_10
REMARK    7  A    between atoms: C_6  and  C_7
REMARK    8  A    between atoms: C_10  and  C_11
REMARK    9  A    between atoms: N_13  and  C_14
REMARK   10  A    between atoms: C_16  and  S_23
REMARK   11  A    between atoms: C_19  and  N_20
REMARK   12  A    between atoms: S_23  and  C_24
REMARK   13  A    between atoms: C_24  and  C_25
REMARK   14  A    between atoms: C_25  and  C_26
REMARK                            x       y       z     vdW  Elec       q    Type
REMARK                         _______ _______ _______ _____ _____    ______ ____
ROOT
ATOM      1  C   UNL     1      -4.222  -4.188  -0.179  0.00  0.00    +0.201 C 
ATOM      2  O   UNL     1      -4.958  -3.226  -0.247  0.00  0.00    -0.278 OA
ATOM      3  N   UNL     1      -4.738  -5.433  -0.190  0.00  0.00    -0.285 N 
ATOM      4  H   UNL     1      -4.157  -6.199  -0.065  0.00  0.00    +0.155 HD
ENDROOT
BRANCH   3   5
ATOM      5  C   UNL     1      -6.111  -5.620  -0.383  0.00  0.00    +0.065 A 
ATOM      6  C   UNL     1      -6.817  -4.769  -1.222  0.00  0.00    +0.040 A 
ATOM      7  C   UNL     1      -8.179  -4.958  -1.411  0.00  0.00    +0.010 A 
ATOM      8  C   UNL     1      -8.832  -5.999  -0.759  0.00  0.00    +0.017 A 
ATOM      9  C   UNL     1      -8.126  -6.843   0.076  0.00  0.00    +0.036 A 
ATOM     10  C   UNL     1      -6.768  -6.660   0.261  0.00  0.00    +0.147 A 
BRANCH  10  11
ATOM     11  N   UNL     1      -6.015  -7.572   1.151  0.00  0.00    +0.058 N 
ATOM     12  O   UNL     1      -6.562  -8.537   1.632  0.00  0.00    -0.126 OA
ATOM     13  O   UNL     1      -4.852  -7.351   1.398  0.00  0.00    -0.126 OA
ENDBRANCH  10  11
BRANCH   7  14
ATOM     14  S   UNL     1      -9.080  -3.881  -2.474  0.00  0.00    -0.125 S 
BRANCH  14  15
ATOM     15  C   UNL     1     -10.779  -4.512  -2.401  0.00  0.00    +0.074 C 
BRANCH  15  16
ATOM     16  C   UNL     1     -11.680  -3.655  -3.293  0.00  0.00    +0.008 C 
ATOM     17  C   UNL     1     -13.114  -4.188  -3.231  0.00  0.00    +0.004 C 
ENDBRANCH  15  16
ENDBRANCH  14  15
ENDBRANCH   7  14
ENDBRANCH   3   5
BRANCH   1  18
ATOM     18  C   UNL     1      -2.732  -3.990  -0.082  0.00  0.00    +0.020 C 
BRANCH  18  19
ATOM     19  N   UNL     1      -2.426  -2.553  -0.088  0.00  0.00    +0.391 N 
ATOM     20  H   UNL     1      -2.836  -2.126  -0.906  0.00  0.00    -0.080 HD
BRANCH  19  21
ATOM     21  C   UNL     1      -0.970  -2.362  -0.115  0.00  0.00    -0.078 C 
BRANCH  21  22
ATOM     22  C   UNL     1      -0.411  -2.882  -1.440  0.00  0.00    -0.019 C 
BRANCH  22  24
ATOM     23  C   UNL     1       1.643  -3.086  -2.848  0.00  0.00    +0.004 C 
ATOM     24  C   UNL     1       1.084  -2.566  -1.522  0.00  0.00    -0.005 C 
ENDBRANCH  22  24
ENDBRANCH  21  22
ENDBRANCH  19  21
BRANCH  19  25
ATOM     25  C   UNL     1      -2.981  -1.929   1.120  0.00  0.00    +0.019 C 
BRANCH  25  26
ATOM     26  C   UNL     1      -2.826  -0.433   1.029  0.00  0.00    +0.194 C 
ATOM     27  O   UNL     1      -2.242   0.060   0.088  0.00  0.00    -0.278 OA
ATOM     28  N   UNL     1      -3.338   0.357   1.994  0.00  0.00    -0.331 N 
ATOM     29  H   UNL     1      -3.805  -0.037   2.747  0.00  0.00    +0.145 HD
ATOM     30  H   UNL     1      -3.239   1.320   1.935  0.00  0.00    +0.145 HD
ENDBRANCH  25  26
ENDBRANCH  19  25
ENDBRANCH  18  19
ENDBRANCH   1  18
TORSDOF 12
