REMARK  Name = ZINC09563166
REMARK  7 active torsions:
REMARK  status: ('A' for Active; 'I' for Inactive)
REMARK    1  A    between atoms: C_1  and  S_2
REMARK    2  A    between atoms: S_2  and  C_3
REMARK    3  A    between atoms: C_3  and  C_4
REMARK    4  A    between atoms: C_4  and  N_5
REMARK    5  A    between atoms: N_14  and  C_15
REMARK    6  A    between atoms: C_15  and  C_17
REMARK    7  A    between atoms: C_18  and  C_19
REMARK                            x       y       z     vdW  Elec       q    Type
REMARK                         _______ _______ _______ _____ _____    ______ ____
ROOT
ATOM      1  N   UNL     1      -1.096   2.175  -0.002  0.00  0.00    -0.320 N 
ATOM      2  C   UNL     1      -0.923   3.547  -0.029  0.00  0.00    +0.058 A 
ATOM      3  C   UNL     1      -1.922   4.536  -0.039  0.00  0.00    +0.027 A 
ATOM      4  C   UNL     1      -1.594   5.870  -0.074  0.00  0.00    +0.002 A 
ATOM      5  C   UNL     1      -0.273   6.285  -0.100  0.00  0.00    +0.001 A 
ATOM      6  C   UNL     1       0.732   5.334  -0.090  0.00  0.00    +0.017 A 
ATOM      7  C   UNL     1       0.405   3.999  -0.056  0.00  0.00    +0.039 A 
ATOM      8  S   UNL     1       1.351   2.496  -0.034  0.00  0.00    -0.052 S 
ATOM      9  C   UNL     1      -0.013   1.346   0.009  0.00  0.00    +0.167 A 
ATOM     10  N   UNL     1       0.018   0.020   0.039  0.00  0.00    -0.153 NA
ENDROOT
BRANCH  10  11
ATOM     11  C   UNL     1       1.195  -0.624   0.039  0.00  0.00    +0.262 C 
ATOM     12  O   UNL     1       2.238   0.011   0.012  0.00  0.00    -0.269 OA
BRANCH  11  13
ATOM     13  C   UNL     1       1.230  -2.086   0.072  0.00  0.00    +0.070 C 
ATOM     14  C   UNL     1       2.418  -2.736   0.072  0.00  0.00    +0.020 C 
BRANCH  14  15
ATOM     15  C   UNL     1       2.451  -4.153   0.104  0.00  0.00    +0.012 A 
ATOM     16  C   UNL     1       3.549  -5.003   0.104  0.00  0.00    +0.015 A 
ATOM     17  C   UNL     1       3.293  -6.351   0.144  0.00  0.00    +0.008 A 
ATOM     18  C   UNL     1       2.005  -6.782   0.168  0.00  0.00    +0.046 A 
ATOM     19  S   UNL     1       1.093  -5.309   0.146  0.00  0.00    -0.097 S 
ENDBRANCH  14  15
ENDBRANCH  11  13
ENDBRANCH  10  11
BRANCH   1  20
ATOM     20  C   UNL     1      -2.447   1.611   0.020  0.00  0.00    +0.135 C 
BRANCH  20  21
ATOM     21  C   UNL     1      -2.478   0.329  -0.814  0.00  0.00    +0.090 C 
BRANCH  21  23
ATOM     22  C   UNL     1      -4.050  -1.777  -1.940  0.00  0.00    +0.084 C 
ATOM     23  S   UNL     1      -4.185  -0.274  -0.934  0.00  0.00    -0.162 S 
ENDBRANCH  21  23
ENDBRANCH  20  21
ENDBRANCH   1  20
TORSDOF 6
