REMARK  Name = ZINC08934253
REMARK  7 active torsions:
REMARK  status: ('A' for Active; 'I' for Inactive)
REMARK    1  A    between atoms: C_1  and  C_2
REMARK    2  A    between atoms: C_5  and  C_9
REMARK    3  A    between atoms: C_6  and  C_8
REMARK    4  A    between atoms: C_9  and  C_11
REMARK    5  A    between atoms: C_13  and  C_31
REMARK    6  A    between atoms: C_15  and  C_27
REMARK    7  A    between atoms: C_15  and  C_29
REMARK                            x       y       z     vdW  Elec       q    Type
REMARK                         _______ _______ _______ _____ _____    ______ ____
ROOT
ATOM      1  C   UNL     1      -4.090   3.780   4.441  0.00  0.00    +0.156 C 
ATOM      2  C   UNL     1      -4.283   4.974   3.473  0.00  0.00    +0.090 C 
ATOM      3  C   UNL     1      -4.816   6.131   4.364  0.00  0.00    +0.174 C 
ATOM      4  C   UNL     1      -4.341   5.703   5.763  0.00  0.00    +0.132 C 
ATOM      5  N   UNL     1      -4.579   4.236   5.738  0.00  0.00    -0.309 N 
ATOM      6  C   UNL     1      -4.098   3.661   6.888  0.00  0.00    +0.038 A 
ATOM      7  C   UNL     1      -3.376   2.484   6.913  0.00  0.00    +0.024 A 
ATOM      8  C   UNL     1      -2.917   1.982   8.118  0.00  0.00    +0.002 A 
ATOM      9  C   UNL     1      -3.174   2.652   9.302  0.00  0.00    +0.001 A 
ATOM     10  C   UNL     1      -3.897   3.829   9.297  0.00  0.00    +0.010 A 
ATOM     11  C   UNL     1      -4.366   4.343   8.096  0.00  0.00    -0.004 A 
ATOM     12  C   UNL     1      -5.150   5.599   8.040  0.00  0.00    +0.007 C 
ATOM     13  C   UNL     1      -5.146   6.287   6.885  0.00  0.00    -0.002 C 
ENDROOT
BRANCH   2  14
ATOM     14  C   UNL     1      -5.290   4.627   2.407  0.00  0.00    -0.002 A 
ATOM     15  C   UNL     1      -5.131   4.594   1.061  0.00  0.00    +0.011 A 
ATOM     16  C   UNL     1      -6.206   4.239   0.268  0.00  0.00    +0.008 A 
ATOM     17  C   UNL     1      -7.390   3.946   0.859  0.00  0.00    +0.045 A 
ATOM     18  S   UNL     1      -7.004   4.162   2.588  0.00  0.00    -0.101 S 
ENDBRANCH   2  14
BRANCH   1  19
ATOM     19  C   UNL     1      -2.630   3.417   4.534  0.00  0.00    +0.184 C 
ATOM     20  O   UNL     1      -1.993   3.717   5.521  0.00  0.00    -0.290 OA
BRANCH  19  25
ATOM     21  C   UNL     1      -0.087   0.606   0.213  0.00  0.00    +0.044 C 
ATOM     22  C   UNL     1      -0.753   1.343   1.346  0.00  0.00    -0.050 A 
ATOM     23  C   UNL     1      -2.057   1.787   1.205  0.00  0.00    +0.004 A 
ATOM     24  C   UNL     1      -2.675   2.458   2.239  0.00  0.00    +0.012 A 
ATOM     25  C   UNL     1      -1.979   2.698   3.428  0.00  0.00    +0.022 A 
ATOM     26  C   UNL     1      -0.661   2.250   3.560  0.00  0.00    -0.040 A 
ATOM     27  C   UNL     1      -0.058   1.576   2.519  0.00  0.00    +0.007 A 
ATOM     28  C   UNL     1       0.098   2.502   4.837  0.00  0.00    +0.044 C 
ENDBRANCH  19  25
ENDBRANCH   1  19
BRANCH   3  29
ATOM     29  C   UNL     1      -4.213   7.416   3.974  0.00  0.00    +0.087 C 
ATOM     30  N   UNL     1      -3.747   8.408   3.673  0.00  0.00    -0.195 NA
ENDBRANCH   3  29
BRANCH   3  31
ATOM     31  C   UNL     1      -6.285   6.204   4.307  0.00  0.00    +0.087 C 
ATOM     32  N   UNL     1      -7.419   6.260   4.263  0.00  0.00    -0.195 NA
ENDBRANCH   3  31
TORSDOF 5
