REMARK  Name = ZINC09691918
REMARK  11 active torsions:
REMARK  status: ('A' for Active; 'I' for Inactive)
REMARK    1  A    between atoms: C_1  and  C_2
REMARK    2  A    between atoms: C_10  and  C_16
REMARK    3  A    between atoms: C_16  and  O_18
REMARK    4  A    between atoms: O_18  and  C_19
REMARK    5  A    between atoms: C_19  and  C_20
REMARK    6  A    between atoms: N_22  and  C_23
REMARK    7  A    between atoms: C_23  and  C_24
REMARK    8  A    between atoms: C_23  and  C_25
REMARK    9  A    between atoms: C_23  and  C_27
REMARK   10  A    between atoms: C_27  and  C_28
REMARK   11  A    between atoms: C_27  and  C_29
REMARK                            x       y       z     vdW  Elec       q    Type
REMARK                         _______ _______ _______ _____ _____    ______ ____
ROOT
ATOM      1  C   UNL     1      -1.516   3.661  -2.420  0.00  0.00    +0.008 C 
ATOM      2  C   UNL     1      -0.998   3.104  -1.093  0.00  0.00    -0.009 C 
ATOM      3  C   UNL     1      -0.761   1.597  -1.228  0.00  0.00    +0.009 C 
ATOM      4  C   UNL     1      -0.013   1.086   0.008  0.00  0.00    +0.054 C 
ATOM      5  C   UNL     1      -0.727   1.577   1.246  0.00  0.00    +0.020 A 
ATOM      6  C   UNL     1      -1.628   2.585   1.238  0.00  0.00    -0.019 A 
ATOM      7  C   UNL     1      -2.090   2.750   2.601  0.00  0.00    +0.004 A 
ATOM      8  C   UNL     1      -3.006   3.621   3.190  0.00  0.00    +0.025 A 
ATOM      9  C   UNL     1      -3.201   3.485   4.569  0.00  0.00    +0.060 A 
ATOM     10  C   UNL     1      -2.512   2.523   5.315  0.00  0.00    +0.017 A 
ATOM     11  C   UNL     1      -1.611   1.663   4.745  0.00  0.00    +0.027 A 
ATOM     12  C   UNL     1      -1.397   1.777   3.370  0.00  0.00    +0.047 A 
ATOM     13  N   UNL     1      -0.587   1.090   2.517  0.00  0.00    -0.358 N 
ATOM     14  H   UNL     1       0.004   0.364   2.772  0.00  0.00    +0.166 HD
ATOM     15  C   UNL     1      -2.034   3.357   0.008  0.00  0.00    +0.040 C 
ENDROOT
BRANCH   9  16
ATOM     16  C   UNL     1      -4.157   4.377   5.252  0.00  0.00    +0.340 C 
ATOM     17  O   UNL     1      -4.763   5.218   4.618  0.00  0.00    -0.245 OA
BRANCH  16  18
ATOM     18  O   UNL     1      -4.358   4.259   6.579  0.00  0.00    -0.452 OA
BRANCH  18  19
ATOM     19  C   UNL     1      -5.313   5.170   7.185  0.00  0.00    +0.328 C 
BRANCH  19  20
ATOM     20  C   UNL     1      -5.405   4.892   8.663  0.00  0.00    +0.252 C 
ATOM     21  O   UNL     1      -4.731   4.013   9.157  0.00  0.00    -0.272 OA
ATOM     22  N   UNL     1      -6.235   5.620   9.435  0.00  0.00    -0.295 N 
ATOM     23  H   UNL     1      -6.773   6.324   9.040  0.00  0.00    +0.150 HD
BRANCH  22  24
ATOM     24  C   UNL     1      -6.324   5.350  10.872  0.00  0.00    +0.121 C 
ATOM     25  C   UNL     1      -6.785   3.908  11.092  0.00  0.00    +0.048 C 
BRANCH  24  26
ATOM     26  C   UNL     1      -7.330   6.310  11.511  0.00  0.00    +0.020 C 
ATOM     27  C   UNL     1      -8.728   6.025  10.957  0.00  0.00    +0.010 C 
ATOM     28  C   UNL     1      -7.332   6.112  13.028  0.00  0.00    +0.010 C 
ENDBRANCH  24  26
BRANCH  24  29
ATOM     29  C   UNL     1      -5.002   5.542  11.491  0.00  0.00    +0.088 C 
ATOM     30  N   UNL     1      -3.982   5.691  11.968  0.00  0.00    -0.194 NA
ENDBRANCH  24  29
ENDBRANCH  22  24
ENDBRANCH  19  20
ENDBRANCH  18  19
ENDBRANCH  16  18
ENDBRANCH   9  16
TORSDOF 7
