REMARK  Name = ZINC12907366
REMARK  5 active torsions:
REMARK  status: ('A' for Active; 'I' for Inactive)
REMARK    1  A    between atoms: C_1  and  C_2
REMARK    2  A    between atoms: N_15  and  C_16
REMARK    3  A    between atoms: C_16  and  C_18
REMARK    4  A    between atoms: C_16  and  C_19
REMARK    5  A    between atoms: C_24  and  O_25
REMARK                            x       y       z     vdW  Elec       q    Type
REMARK                         _______ _______ _______ _____ _____    ______ ____
ROOT
ATOM      1  C   UNL     1      -1.347   8.675   0.060  0.00  0.00    +0.069 C 
ATOM      2  C   UNL     1      -0.578   7.379   0.046  0.00  0.00    +0.081 A 
ATOM      3  C   UNL     1       0.807   7.262   0.033  0.00  0.00    +0.108 A 
ATOM      4  C   UNL     1       1.116   5.908   0.023  0.00  0.00    +0.177 A 
ATOM      5  N   UNL     1       2.300   5.268   0.008  0.00  0.00    -0.211 NA
ATOM      6  C   UNL     1       2.384   3.956   0.001  0.00  0.00    +0.131 A 
ATOM      7  C   UNL     1       1.145   3.164   0.008  0.00  0.00    +0.040 A 
ATOM      8  C   UNL     1       1.166   1.769   0.000  0.00  0.00    +0.013 A 
ATOM      9  C   UNL     1      -0.013   1.076   0.008  0.00  0.00    +0.001 A 
ATOM     10  C   UNL     1      -1.227   1.747   0.017  0.00  0.00    +0.002 A 
ATOM     11  C   UNL     1      -1.269   3.126   0.031  0.00  0.00    +0.028 A 
ATOM     12  C   UNL     1      -0.084   3.847   0.023  0.00  0.00    +0.078 A 
ATOM     13  N   UNL     1      -0.073   5.232   0.030  0.00  0.00    -0.212 N 
ATOM     14  N   UNL     1      -1.105   6.178   0.045  0.00  0.00    -0.168 NA
ATOM     15  N   UNL     1       3.615   3.332  -0.014  0.00  0.00    -0.322 N 
ATOM     16 CL   UNL     1       1.946   8.572   0.030  0.00  0.00    -0.078 Cl
ATOM     17  H   UNL     1       3.668   2.363  -0.019  0.00  0.00    +0.148 HD
ENDROOT
BRANCH  15  18
ATOM     18  C   UNL     1       4.842   4.132  -0.021  0.00  0.00    +0.102 C 
ATOM     19  C   UNL     1       5.188   4.523  -1.459  0.00  0.00    +0.033 C 
BRANCH  18  20
ATOM     20  C   UNL     1       5.972   3.325   0.566  0.00  0.00    +0.014 A 
ATOM     21  C   UNL     1       5.924   1.944   0.534  0.00  0.00    +0.009 A 
ATOM     22  C   UNL     1       6.962   1.204   1.068  0.00  0.00    +0.001 A 
ATOM     23  C   UNL     1       8.046   1.841   1.643  0.00  0.00    +0.004 A 
ATOM     24  C   UNL     1       8.096   3.221   1.681  0.00  0.00    +0.046 A 
ATOM     25  C   UNL     1       7.057   3.967   1.142  0.00  0.00    +0.122 A 
BRANCH  25  26
ATOM     26  O   UNL     1       7.104   5.325   1.179  0.00  0.00    -0.506 OA
ATOM     27  H   UNL     1       6.707   5.711   1.971  0.00  0.00    +0.292 HD
ENDBRANCH  25  26
ENDBRANCH  18  20
ENDBRANCH  15  18
TORSDOF 3
