REMARK  Name = ZINC39684184
REMARK  9 active torsions:
REMARK  status: ('A' for Active; 'I' for Inactive)
REMARK    1  A    between atoms: C_1  and  C_2
REMARK    2  A    between atoms: C_7  and  C_11
REMARK    3  A    between atoms: C_11  and  C_12
REMARK    4  A    between atoms: C_12  and  N_13
REMARK    5  A    between atoms: C_14  and  C_16
REMARK    6  A    between atoms: C_27  and  C_29
REMARK    7  A    between atoms: C_29  and  C_30
REMARK    8  A    between atoms: C_30  and  C_31
REMARK    9  A    between atoms: C_31  and  C_32
REMARK                            x       y       z     vdW  Elec       q    Type
REMARK                         _______ _______ _______ _____ _____    ______ ____
ROOT
ATOM      1  C   UNL     1      -8.680   1.722  -6.216  0.00  0.00    +0.100 C 
ATOM      2  C   UNL     1      -8.192   2.852  -7.151  0.00  0.00    +0.121 C 
ATOM      3  N   UNL     1      -7.816   2.162  -8.407  0.00  0.00    -0.300 N 
ATOM      4  C   UNL     1      -8.858   1.122  -8.584  0.00  0.00    +0.115 C 
ATOM      5  C   UNL     1      -9.119   0.591  -7.161  0.00  0.00    -0.004 C 
ATOM      6  C   UNL     1     -10.604   0.292  -6.973  0.00  0.00    -0.010 C 
ATOM      7  C   UNL     1     -11.003  -0.876  -7.880  0.00  0.00    -0.082 C 
ATOM      8  N   UNL     1     -10.200  -2.057  -7.543  0.00  0.00    +0.379 N 
ATOM      9  C   UNL     1      -8.782  -1.792  -7.815  0.00  0.00    -0.082 C 
ATOM     10  C   UNL     1      -8.288  -0.663  -6.905  0.00  0.00    -0.010 C 
ATOM     11  C   UNL     1      -6.763   2.421  -9.208  0.00  0.00    +0.216 C 
ATOM     12  O   UNL     1      -6.588   1.763 -10.212  0.00  0.00    -0.276 OA
ATOM     13  H   UNL     1     -10.318  -2.275  -6.565  0.00  0.00    -0.086 HD
ATOM     14  H   UNL     1     -10.507  -2.841  -8.100  0.00  0.00    -0.086 HD
ENDROOT
BRANCH   1  16
ATOM     15  N   UNL     1      -7.830   0.739  -4.112  0.00  0.00    -0.315 N 
ATOM     16  C   UNL     1      -7.557   1.256  -5.326  0.00  0.00    +0.218 C 
ATOM     17  O   UNL     1      -6.408   1.347  -5.702  0.00  0.00    -0.275 OA
ATOM     18  H   UNL     1      -8.750   0.667  -3.811  0.00  0.00    +0.149 HD
BRANCH  15  19
ATOM     19  C   UNL     1      -6.739   0.286  -3.246  0.00  0.00    +0.109 C 
BRANCH  19  20
ATOM     20  C   UNL     1      -7.317  -0.253  -1.936  0.00  0.00    +0.056 C 
BRANCH  20  27
ATOM     21  C   UNL     1      -2.589  -1.159   2.082  0.00  0.00    +0.046 C 
ATOM     22  C   UNL     1      -3.586  -0.247   1.415  0.00  0.00    -0.027 A 
ATOM     23  C   UNL     1      -3.612   1.095   1.728  0.00  0.00    +0.005 A 
ATOM     24  C   UNL     1      -4.526   1.946   1.122  0.00  0.00    +0.001 A 
ATOM     25  C   UNL     1      -5.416   1.466   0.202  0.00  0.00    +0.010 A 
ATOM     26  C   UNL     1      -5.407   0.111  -0.130  0.00  0.00    +0.003 A 
ATOM     27  C   UNL     1      -6.194  -0.719  -1.046  0.00  0.00    -0.021 A 
ATOM     28  C   UNL     1      -5.726  -1.972  -0.940  0.00  0.00    +0.087 A 
ATOM     29  N   UNL     1      -4.703  -2.014  -0.032  0.00  0.00    -0.360 N 
ATOM     30  C   UNL     1      -4.479  -0.755   0.478  0.00  0.00    +0.050 A 
ATOM     31  H   UNL     1      -4.207  -2.811   0.213  0.00  0.00    +0.165 HD
ENDBRANCH  20  27
ENDBRANCH  19  20
ENDBRANCH  15  19
ENDBRANCH   1  16
BRANCH  11  32
ATOM     32  C   UNL     1      -5.804   3.530  -8.858  0.00  0.00    +0.096 C 
BRANCH  32  33
ATOM     33  C   UNL     1      -4.710   3.613  -9.923  0.00  0.00    +0.014 C 
BRANCH  33  34
ATOM     34  C   UNL     1      -3.736   4.739  -9.567  0.00  0.00    +0.035 C 
BRANCH  34  35
ATOM     35  C   UNL     1      -2.657   4.820 -10.617  0.00  0.00    -0.047 A 
ATOM     36  C   UNL     1      -1.499   4.080 -10.476  0.00  0.00    +0.003 A 
ATOM     37  C   UNL     1      -0.509   4.155 -11.439  0.00  0.00    +0.000 A 
ATOM     38  C   UNL     1      -0.679   4.970 -12.542  0.00  0.00    +0.000 A 
ATOM     39  C   UNL     1      -1.838   5.710 -12.683  0.00  0.00    +0.000 A 
ATOM     40  C   UNL     1      -2.829   5.632 -11.722  0.00  0.00    +0.003 A 
ENDBRANCH  34  35
ENDBRANCH  33  34
ENDBRANCH  32  33
ENDBRANCH  11  32
TORSDOF 8
