REMARK  Name = ZINC39605116
REMARK  9 active torsions:
REMARK  status: ('A' for Active; 'I' for Inactive)
REMARK    1  A    between atoms: C_1  and  C_2
REMARK    2  A    between atoms: C_2  and  C_3
REMARK    3  A    between atoms: C_2  and  O_4
REMARK    4  A    between atoms: O_4  and  C_5
REMARK    5  A    between atoms: C_5  and  C_6
REMARK    6  A    between atoms: C_6  and  C_7
REMARK    7  A    between atoms: C_7  and  N_8
REMARK    8  A    between atoms: C_9  and  C_11
REMARK    9  A    between atoms: C_22  and  C_24
REMARK                            x       y       z     vdW  Elec       q    Type
REMARK                         _______ _______ _______ _____ _____    ______ ____
ROOT
ATOM      1  C   UNL     1       0.440  -3.117   7.785  0.00  0.00    +0.100 C 
ATOM      2  C   UNL     1       1.270  -4.414   7.665  0.00  0.00    +0.121 C 
ATOM      3  N   UNL     1       1.213  -5.022   9.016  0.00  0.00    -0.296 N 
ATOM      4  C   UNL     1      -0.179  -4.785   9.468  0.00  0.00    +0.115 C 
ATOM      5  C   UNL     1      -0.511  -3.364   8.969  0.00  0.00    -0.004 C 
ATOM      6  C   UNL     1      -1.962  -3.294   8.505  0.00  0.00    -0.010 C 
ATOM      7  C   UNL     1      -2.889  -3.485   9.709  0.00  0.00    -0.082 C 
ATOM      8  N   UNL     1      -2.621  -2.440  10.705  0.00  0.00    +0.379 N 
ATOM      9  C   UNL     1      -1.251  -2.573  11.214  0.00  0.00    -0.082 C 
ATOM     10  C   UNL     1      -0.256  -2.343  10.074  0.00  0.00    -0.010 C 
ATOM     11  C   UNL     1       2.203  -5.648   9.682  0.00  0.00    +0.247 C 
ATOM     12  O   UNL     1       3.332  -5.651   9.232  0.00  0.00    -0.270 OA
ATOM     13  H   UNL     1      -2.733  -1.533  10.277  0.00  0.00    -0.086 HD
ATOM     14  H   UNL     1      -3.273  -2.531  11.470  0.00  0.00    -0.086 HD
ENDROOT
BRANCH  11  15
ATOM     15  C   UNL     1       1.916  -6.330  10.962  0.00  0.00    +0.037 A 
ATOM     16  C   UNL     1       0.609  -6.710  11.276  0.00  0.00    +0.014 A 
ATOM     17  C   UNL     1       0.348  -7.346  12.471  0.00  0.00    +0.016 A 
ATOM     18  C   UNL     1       1.378  -7.609  13.359  0.00  0.00    +0.018 A 
ATOM     19  C   UNL     1       2.676  -7.235  13.052  0.00  0.00    +0.016 A 
ATOM     20  C   UNL     1       2.951  -6.604  11.858  0.00  0.00    +0.014 A 
ATOM     21 BR   UNL     1       1.010  -8.482  14.995  0.00  0.00    -0.050 Br
ENDBRANCH  11  15
BRANCH   1  23
ATOM     22  N   UNL     1      -0.636  -1.620   6.136  0.00  0.00    -0.315 N 
ATOM     23  C   UNL     1      -0.347  -2.878   6.522  0.00  0.00    +0.218 C 
ATOM     24  O   UNL     1      -0.719  -3.819   5.853  0.00  0.00    -0.275 OA
ATOM     25  H   UNL     1      -0.338  -0.868   6.671  0.00  0.00    +0.149 HD
BRANCH  22  26
ATOM     26  C   UNL     1      -1.400  -1.388   4.908  0.00  0.00    +0.106 C 
BRANCH  26  27
ATOM     27  C   UNL     1      -1.589   0.116   4.701  0.00  0.00    +0.047 C 
BRANCH  27  28
ATOM     28  C   UNL     1      -2.388   0.359   3.419  0.00  0.00    +0.161 C 
BRANCH  28  29
ATOM     29  O   UNL     1      -2.564   1.764   3.225  0.00  0.00    -0.377 OA
BRANCH  29  31
ATOM     30  C   UNL     1      -4.792   2.170   2.384  0.00  0.00    +0.037 C 
ATOM     31  C   UNL     1      -3.301   2.100   2.049  0.00  0.00    +0.112 C 
ATOM     32  C   UNL     1      -2.832   3.459   1.524  0.00  0.00    +0.037 C 
ENDBRANCH  29  31
ENDBRANCH  28  29
ENDBRANCH  27  28
ENDBRANCH  26  27
ENDBRANCH  22  26
ENDBRANCH   1  23
TORSDOF 7
