REMARK  Name = ZINC23336616
REMARK  3 active torsions:
REMARK  status: ('A' for Active; 'I' for Inactive)
REMARK    1  A    between atoms: C_4  and  C_9
REMARK    2  A    between atoms: C_5  and  C_7
REMARK    3  A    between atoms: C_14  and  C_18
REMARK                            x       y       z     vdW  Elec       q    Type
REMARK                         _______ _______ _______ _____ _____    ______ ____
ROOT
ATOM      1  C   UNL     1      -5.773   2.800   0.045  0.00  0.00    +0.230 A 
ATOM      2  N   UNL     1      -5.019   3.871   0.046  0.00  0.00    -0.209 NA
ATOM      3  C   UNL     1      -3.717   3.490   0.038  0.00  0.00    +0.110 A 
ATOM      4  C   UNL     1      -2.508   4.192   0.036  0.00  0.00    +0.032 A 
ATOM      5  C   UNL     1      -1.325   3.514   0.027  0.00  0.00    +0.011 A 
ATOM      6  C   UNL     1      -1.310   2.115   0.020  0.00  0.00    -0.014 A 
ATOM      7  C   UNL     1      -2.505   1.402   0.016  0.00  0.00    +0.057 A 
ATOM      8  C   UNL     1      -3.709   2.084   0.031  0.00  0.00    +0.156 A 
ATOM      9  O   UNL     1      -5.004   1.694   0.035  0.00  0.00    -0.435 OA
ENDROOT
BRANCH   6  10
ATOM     10  C   UNL     1      -0.017   1.390   0.010  0.00  0.00    -0.014 A 
ATOM     11  C   UNL     1       0.002  -0.004   0.002  0.00  0.00    +0.012 A 
ATOM     12  C   UNL     1       1.206  -0.678  -0.014  0.00  0.00    +0.050 A 
ATOM     13  C   UNL     1       2.400   0.027  -0.022  0.00  0.00    +0.166 A 
ATOM     14  C   UNL     1       2.387   1.421  -0.014  0.00  0.00    +0.167 A 
ATOM     15  C   UNL     1       1.182   2.101   0.002  0.00  0.00    +0.058 A 
ATOM     16  O   UNL     1       3.677   1.869  -0.025  0.00  0.00    -0.453 OA
ATOM     17  C   UNL     1       4.479   0.742   0.373  0.00  0.00    +0.466 C 
ATOM     18  O   UNL     1       3.698  -0.396  -0.038  0.00  0.00    -0.453 OA
ENDBRANCH   6  10
BRANCH   1  22
ATOM     19  C   UNL     1     -10.028   2.810   0.064  0.00  0.00    +0.001 A 
ATOM     20  C   UNL     1      -9.334   1.611   0.055  0.00  0.00    +0.001 A 
ATOM     21  C   UNL     1      -7.954   1.602   0.044  0.00  0.00    +0.014 A 
ATOM     22  C   UNL     1      -7.249   2.805   0.052  0.00  0.00    +0.054 A 
ATOM     23  C   UNL     1      -7.954   4.024   0.061  0.00  0.00    +0.064 A 
ATOM     24  C   UNL     1      -9.349   4.011   0.067  0.00  0.00    +0.019 A 
BRANCH  23  25
ATOM     25  C   UNL     1      -7.244   5.268   0.064  0.00  0.00    +0.100 C 
ATOM     26  N   UNL     1      -6.681   6.254   0.067  0.00  0.00    -0.191 NA
ENDBRANCH  23  25
ENDBRANCH   1  22
TORSDOF 3
