REMARK  Name = ZINC36586709
REMARK  21 active torsions:
REMARK  status: ('A' for Active; 'I' for Inactive)
REMARK    1  A    between atoms: C_1  and  C_2
REMARK    2  A    between atoms: C_2  and  C_3
REMARK    3  A    between atoms: C_3  and  C_4
REMARK    4  A    between atoms: C_5  and  C_6
REMARK    5  A    between atoms: C_6  and  C_8
REMARK    6  A    between atoms: C_6  and  N_19
REMARK    7  A    between atoms: N_10  and  C_11
REMARK    8  A    between atoms: C_11  and  C_12
REMARK    9  A    between atoms: C_11  and  C_13
REMARK   10  A    between atoms: C_11  and  C_14
REMARK   11  A    between atoms: C_14  and  C_15
REMARK   12  A    between atoms: C_15  and  C_16
REMARK   13  A    between atoms: C_15  and  C_17
REMARK   14  A    between atoms: C_15  and  C_18
REMARK   15  A    between atoms: N_19  and  C_30
REMARK   16  A    between atoms: C_20  and  C_22
REMARK   17  A    between atoms: C_23  and  O_29
REMARK   18  A    between atoms: C_27  and  O_28
REMARK   19  A    between atoms: C_30  and  C_31
REMARK   20  A    between atoms: C_30  and  C_32
REMARK   21  A    between atoms: C_30  and  C_33
REMARK                            x       y       z     vdW  Elec       q    Type
REMARK                         _______ _______ _______ _____ _____    ______ ____
ROOT
ATOM      1  C   UNL     1      -3.252  -5.436   1.570  0.00  0.00    +0.186 C 
ENDROOT
BRANCH   1   2
ATOM      2  C   UNL     1      -4.587  -5.021   1.007  0.00  0.00    +0.238 C 
ATOM      3  O   UNL     1      -4.920  -5.391  -0.099  0.00  0.00    -0.273 OA
ATOM      4  N   UNL     1      -5.410  -4.239   1.733  0.00  0.00    -0.308 N 
ATOM      5  H   UNL     1      -5.144  -3.943   2.617  0.00  0.00    +0.149 HD
BRANCH   4   6
ATOM      6  C   UNL     1      -6.708  -3.836   1.186  0.00  0.00    +0.030 C 
ATOM      7  C   UNL     1      -6.501  -2.744   0.134  0.00  0.00    +0.031 C 
ATOM      8  C   UNL     1      -7.387  -5.045   0.539  0.00  0.00    +0.031 C 
BRANCH   6   9
ATOM      9  C   UNL     1      -7.591  -3.298   2.313  0.00  0.00    +0.031 C 
BRANCH   9  10
ATOM     10  C   UNL     1      -7.252  -4.022   3.617  0.00  0.00    -0.036 C 
ATOM     11  C   UNL     1      -6.000  -3.396   4.237  0.00  0.00    +0.010 C 
ATOM     12  C   UNL     1      -8.423  -3.892   4.593  0.00  0.00    +0.010 C 
ATOM     13  C   UNL     1      -6.992  -5.501   3.327  0.00  0.00    +0.010 C 
ENDBRANCH   9  10
ENDBRANCH   6   9
ENDBRANCH   4   6
ENDBRANCH   1   2
BRANCH   1  14
ATOM     14  N   UNL     1      -2.437  -6.031   0.507  0.00  0.00    -0.277 N 
ATOM     15  C   UNL     1      -1.888  -7.249   0.680  0.00  0.00    +0.255 C 
ATOM     16  O   UNL     1      -1.933  -7.787   1.770  0.00  0.00    -0.270 OA
BRANCH  15  17
ATOM     17  C   UNL     1      -1.233  -7.929  -0.450  0.00  0.00    +0.119 A 
ATOM     18  C   UNL     1       0.153  -7.823  -0.631  0.00  0.00    +0.133 A 
ATOM     19  C   UNL     1       0.759  -8.467  -1.697  0.00  0.00    +0.046 A 
ATOM     20  C   UNL     1       0.001  -9.213  -2.581  0.00  0.00    +0.007 A 
ATOM     21  C   UNL     1      -1.366  -9.324  -2.412  0.00  0.00    +0.046 A 
ATOM     22  C   UNL     1      -1.992  -8.693  -1.349  0.00  0.00    +0.133 A 
BRANCH  22  23
ATOM     23  O   UNL     1      -3.333  -8.808  -1.182  0.00  0.00    -0.506 OA
ATOM     24  H   UNL     1      -3.846  -8.126  -1.637  0.00  0.00    +0.292 HD
ENDBRANCH  22  23
BRANCH  18  25
ATOM     25  O   UNL     1       0.899  -7.092   0.235  0.00  0.00    -0.506 OA
ATOM     26  H   UNL     1       1.236  -7.596   0.988  0.00  0.00    +0.292 HD
ENDBRANCH  18  25
ENDBRANCH  15  17
BRANCH  14  27
ATOM     27  C   UNL     1      -2.220  -5.301  -0.744  0.00  0.00    +0.030 C 
ATOM     28  C   UNL     1      -2.747  -3.872  -0.599  0.00  0.00    +0.031 C 
ATOM     29  C   UNL     1      -0.723  -5.263  -1.059  0.00  0.00    +0.031 C 
ATOM     30  C   UNL     1      -2.962  -6.005  -1.881  0.00  0.00    +0.031 C 
ENDBRANCH  14  27
ENDBRANCH   1  14
BRANCH   1  32
ATOM     31  C   UNL     1      -1.324  -3.949   1.745  0.00  0.00    -0.029 C 
ATOM     32  C   UNL     1      -2.545  -4.229   2.129  0.00  0.00    +0.000 C 
BRANCH  31  33
ATOM     33  C   UNL     1      -0.677  -2.657   2.175  0.00  0.00    +0.027 C 
BRANCH  33  35
ATOM     34  C   UNL     1       1.310  -1.647   3.304  0.00  0.00    +0.004 C 
ATOM     35  C   UNL     1       0.653  -2.959   2.869  0.00  0.00    +0.001 C 
ENDBRANCH  33  35
ENDBRANCH  31  33
ENDBRANCH   1  32
TORSDOF 12
