REMARK  Name = ZINC40099488
REMARK  12 active torsions:
REMARK  status: ('A' for Active; 'I' for Inactive)
REMARK    1  A    between atoms: C_1  and  O_2
REMARK    2  A    between atoms: O_2  and  C_3
REMARK    3  A    between atoms: C_5  and  C_11
REMARK    4  A    between atoms: C_8  and  O_9
REMARK    5  A    between atoms: C_13  and  C_22
REMARK    6  A    between atoms: N_17  and  C_18
REMARK    7  A    between atoms: C_18  and  C_19
REMARK    8  A    between atoms: C_19  and  O_20
REMARK    9  A    between atoms: C_22  and  C_24
REMARK   10  A    between atoms: C_27  and  O_30
REMARK   11  A    between atoms: O_30  and  C_31
REMARK   12  A    between atoms: C_31  and  C_32
REMARK                            x       y       z     vdW  Elec       q    Type
REMARK                         _______ _______ _______ _____ _____    ______ ____
ROOT
ATOM      1  C   UNL     1      -4.811   0.167   0.273  0.00  0.00    +0.145 C 
ATOM      2  C   UNL     1      -5.316   0.476   1.662  0.00  0.00    +0.076 C 
ATOM      3  C   UNL     1      -6.566  -0.036   1.746  0.00  0.00    +0.249 C 
ATOM      4  C   UNL     1      -6.915  -0.678   0.462  0.00  0.00    +0.288 C 
ATOM      5  O   UNL     1      -7.971  -1.228   0.221  0.00  0.00    -0.266 OA
ATOM      6  N   UNL     1      -5.891  -0.560  -0.405  0.00  0.00    -0.281 N 
ATOM      7  O   UNL     1      -7.368   0.028   2.834  0.00  0.00    -0.282 OA
ENDROOT
BRANCH   1  10
ATOM      8  C   UNL     1      -1.216  -0.970   0.029  0.00  0.00    +0.163 A 
ATOM      9  C   UNL     1      -2.353  -0.181  -0.042  0.00  0.00    +0.055 A 
ATOM     10  C   UNL     1      -3.576  -0.693   0.350  0.00  0.00    -0.018 A 
ATOM     11  C   UNL     1      -3.668  -1.992   0.813  0.00  0.00    +0.025 A 
ATOM     12  C   UNL     1      -2.537  -2.786   0.886  0.00  0.00    +0.063 A 
ATOM     13  C   UNL     1      -1.309  -2.280   0.489  0.00  0.00    +0.173 A 
ATOM     14 BR   UNL     1      -2.667  -4.562   1.521  0.00  0.00    -0.046 Br
BRANCH   8  16
ATOM     15  C   UNL     1       0.029   0.916  -0.712  0.00  0.00    +0.277 C 
ATOM     16  O   UNL     1      -0.012  -0.467  -0.356  0.00  0.00    -0.491 OA
ENDBRANCH   8  16
BRANCH  13  17
ATOM     17  O   UNL     1      -0.197  -3.060   0.555  0.00  0.00    -0.503 OA
ATOM     18  H   UNL     1       0.272  -3.006   1.399  0.00  0.00    +0.292 HD
ENDBRANCH  13  17
ENDBRANCH   1  10
BRANCH   2  19
ATOM     19  C   UNL     1      -4.592   1.193   2.717  0.00  0.00    +0.195 C 
ATOM     20  O   UNL     1      -4.376   0.650   3.784  0.00  0.00    -0.287 OA
BRANCH  19  21
ATOM     21  C   UNL     1      -4.126   2.574   2.484  0.00  0.00    +0.022 A 
ATOM     22  C   UNL     1      -4.476   3.244   1.308  0.00  0.00    +0.015 A 
ATOM     23  C   UNL     1      -4.040   4.532   1.094  0.00  0.00    +0.046 A 
ATOM     24  C   UNL     1      -3.251   5.167   2.047  0.00  0.00    +0.121 A 
ATOM     25  C   UNL     1      -2.900   4.505   3.218  0.00  0.00    +0.046 A 
ATOM     26  C   UNL     1      -3.338   3.219   3.442  0.00  0.00    +0.015 A 
BRANCH  24  27
ATOM     27  O   UNL     1      -2.822   6.436   1.833  0.00  0.00    -0.488 OA
BRANCH  27  28
ATOM     28  C   UNL     1      -2.016   7.029   2.853  0.00  0.00    +0.256 C 
BRANCH  28  29
ATOM     29  C   UNL     1      -1.637   8.430   2.443  0.00  0.00    +0.006 C 
ATOM     30  C   UNL     1      -1.724   9.411   3.307  0.00  0.00    +0.007 C 
ENDBRANCH  28  29
ENDBRANCH  27  28
ENDBRANCH  24  27
ENDBRANCH  19  21
ENDBRANCH   2  19
BRANCH   6  31
ATOM     31  C   UNL     1      -5.859  -1.069  -1.778  0.00  0.00    +0.137 C 
BRANCH  31  32
ATOM     32  C   UNL     1      -5.304  -2.494  -1.782  0.00  0.00    +0.175 C 
BRANCH  32  33
ATOM     33  O   UNL     1      -6.202  -3.357  -1.081  0.00  0.00    -0.393 OA
ATOM     34  H   UNL     1      -5.913  -4.279  -1.043  0.00  0.00    +0.209 HD
ENDBRANCH  32  33
ENDBRANCH  31  32
ENDBRANCH   6  31
TORSDOF 11
