REMARK  Name = ZINC08921006
REMARK  11 active torsions:
REMARK  status: ('A' for Active; 'I' for Inactive)
REMARK    1  A    between atoms: C_1  and  C_2
REMARK    2  A    between atoms: C_10  and  N_16
REMARK    3  A    between atoms: C_11  and  C_12
REMARK    4  A    between atoms: N_14  and  C_15
REMARK    5  A    between atoms: C_17  and  C_19
REMARK    6  A    between atoms: C_22  and  S_25
REMARK    7  A    between atoms: S_25  and  N_28
REMARK    8  A    between atoms: N_28  and  C_29
REMARK    9  A    between atoms: N_28  and  C_32
REMARK   10  A    between atoms: C_29  and  C_30
REMARK   11  A    between atoms: C_32  and  C_33
REMARK                            x       y       z     vdW  Elec       q    Type
REMARK                         _______ _______ _______ _____ _____    ______ ____
ROOT
ATOM      1  N   UNL     1      -0.011   0.966   0.007  0.00  0.00    -0.275 N 
ATOM      2  C   UNL     1      -1.187   1.624   0.017  0.00  0.00    +0.249 C 
ATOM      3  O   UNL     1      -1.204   2.839   0.023  0.00  0.00    -0.270 OA
ATOM      4  H   UNL     1       0.002  -0.004   0.002  0.00  0.00    +0.156 HD
ENDROOT
BRANCH   1  14
ATOM      5  C   UNL     1       5.836   6.061   1.746  0.00  0.00    +0.109 C 
ATOM      6  C   UNL     1       6.294   4.817   1.029  0.00  0.00    +0.213 C 
ATOM      7  O   UNL     1       7.422   4.402   1.194  0.00  0.00    -0.276 OA
ATOM      8  N   UNL     1       5.450   4.165   0.204  0.00  0.00    -0.297 N 
ATOM      9  C   UNL     1       5.868   2.949  -0.509  0.00  0.00    +0.113 C 
ATOM     10  C   UNL     1       5.037   1.760  -0.024  0.00  0.00    +0.056 C 
ATOM     11  C   UNL     1       3.563   2.147  -0.019  0.00  0.00    -0.020 A 
ATOM     12  C   UNL     1       3.178   3.442  -0.011  0.00  0.00    +0.013 A 
ATOM     13  S   UNL     1       1.409   3.392  -0.001  0.00  0.00    -0.076 S 
ATOM     14  C   UNL     1       1.179   1.675  -0.000  0.00  0.00    +0.085 A 
ATOM     15  C   UNL     1       2.477   1.182  -0.015  0.00  0.00    +0.069 A 
ATOM     16  C   UNL     1       4.072   4.646  -0.018  0.00  0.00    +0.150 C 
BRANCH  15  17
ATOM     17  C   UNL     1       2.741  -0.260  -0.028  0.00  0.00    +0.246 C 
ATOM     18  O   UNL     1       2.841  -0.851  -1.087  0.00  0.00    -0.270 OA
ATOM     19  N   UNL     1       2.874  -0.931   1.134  0.00  0.00    -0.314 N 
ATOM     20  C   UNL     1       3.139  -2.372   1.122  0.00  0.00    +0.128 C 
ATOM     21  H   UNL     1       2.794  -0.459   1.978  0.00  0.00    +0.149 HD
ENDBRANCH  15  17
ENDBRANCH   1  14
BRANCH   2  22
ATOM     22  C   UNL     1      -2.457   0.868   0.018  0.00  0.00    +0.037 A 
ATOM     23  C   UNL     1      -2.442  -0.528   0.005  0.00  0.00    +0.015 A 
ATOM     24  C   UNL     1      -3.631  -1.228   0.013  0.00  0.00    +0.029 A 
ATOM     25  C   UNL     1      -4.836  -0.550   0.022  0.00  0.00    +0.106 A 
ATOM     26  C   UNL     1      -4.859   0.834   0.030  0.00  0.00    +0.029 A 
ATOM     27  C   UNL     1      -3.677   1.546   0.028  0.00  0.00    +0.015 A 
BRANCH  25  28
ATOM     28  S   UNL     1      -6.350  -1.451   0.024  0.00  0.00    +0.063 S 
ATOM     29  O   UNL     1      -6.059  -2.732   0.567  0.00  0.00    -0.153 OA
ATOM     30  O   UNL     1      -7.334  -0.592   0.585  0.00  0.00    -0.153 OA
BRANCH  28  31
ATOM     31  N   UNL     1      -6.778  -1.693  -1.557  0.00  0.00    -0.149 NA
BRANCH  31  32
ATOM     32  C   UNL     1      -6.319  -2.890  -2.265  0.00  0.00    +0.228 C 
BRANCH  32  33
ATOM     33  C   UNL     1      -7.355  -3.933  -2.192  0.00  0.00    +0.080 C 
ATOM     34  N   UNL     1      -8.155  -4.737  -2.135  0.00  0.00    -0.195 NA
ENDBRANCH  32  33
ENDBRANCH  31  32
BRANCH  31  35
ATOM     35  C   UNL     1      -7.617  -0.710  -2.247  0.00  0.00    +0.228 C 
BRANCH  35  36
ATOM     36  C   UNL     1      -6.761   0.230  -2.990  0.00  0.00    +0.080 C 
ATOM     37  N   UNL     1      -6.101   0.955  -3.562  0.00  0.00    -0.195 NA
ENDBRANCH  35  36
ENDBRANCH  31  35
ENDBRANCH  28  31
ENDBRANCH  25  28
ENDBRANCH   2  22
TORSDOF 9
