REMARK  Name = ZINC38705145
REMARK  14 active torsions:
REMARK  status: ('A' for Active; 'I' for Inactive)
REMARK    1  A    between atoms: C_1  and  C_2
REMARK    2  A    between atoms: C_2  and  C_3
REMARK    3  A    between atoms: C_3  and  O_4
REMARK    4  A    between atoms: O_4  and  C_5
REMARK    5  A    between atoms: C_8  and  C_11
REMARK    6  A    between atoms: C_14  and  C_27
REMARK    7  A    between atoms: N_21  and  C_22
REMARK    8  A    between atoms: C_22  and  C_23
REMARK    9  A    between atoms: C_23  and  C_24
REMARK   10  A    between atoms: C_24  and  O_25
REMARK   11  A    between atoms: O_25  and  C_26
REMARK   12  A    between atoms: C_28  and  C_35
REMARK   13  A    between atoms: C_30  and  C_34
REMARK   14  A    between atoms: C_32  and  O_33
REMARK                            x       y       z     vdW  Elec       q    Type
REMARK                         _______ _______ _______ _____ _____    ______ ____
ROOT
ATOM      1  C   UNL     1      -6.009  -4.587  -0.057  0.00  0.00    +0.141 C 
ATOM      2  C   UNL     1      -6.587  -4.982  -1.389  0.00  0.00    +0.035 A 
ATOM      3  C   UNL     1      -7.037  -4.570  -2.648  0.00  0.00    +0.102 A 
ATOM      4  N   UNL     1      -7.428  -5.648  -3.299  0.00  0.00    -0.173 NA
ATOM      5  N   UNL     1      -7.269  -6.699  -2.576  0.00  0.00    -0.272 N 
ATOM      6  H   UNL     1      -7.489  -7.603  -2.851  0.00  0.00    +0.189 HD
ATOM      7  C   UNL     1      -6.745  -6.354  -1.363  0.00  0.00    +0.126 A 
ATOM      8  C   UNL     1      -6.288  -6.851  -0.060  0.00  0.00    +0.265 C 
ATOM      9  O   UNL     1      -6.296  -8.019   0.279  0.00  0.00    -0.268 OA
ATOM     10  N   UNL     1      -5.859  -5.832   0.708  0.00  0.00    -0.285 N 
ENDROOT
BRANCH   3  11
ATOM     11  C   UNL     1      -7.069  -3.177  -3.157  0.00  0.00    +0.047 A 
ATOM     12  C   UNL     1      -6.567  -2.883  -4.423  0.00  0.00    -0.037 A 
ATOM     13  C   UNL     1      -6.599  -1.585  -4.892  0.00  0.00    +0.007 A 
ATOM     14  C   UNL     1      -7.128  -0.574  -4.109  0.00  0.00    -0.047 A 
ATOM     15  C   UNL     1      -7.629  -0.855  -2.852  0.00  0.00    +0.049 A 
ATOM     16  C   UNL     1      -7.608  -2.155  -2.371  0.00  0.00    +0.127 A 
ATOM     17  C   UNL     1      -7.159   0.840  -4.630  0.00  0.00    +0.044 C 
ATOM     18  C   UNL     1      -5.989  -3.980  -5.278  0.00  0.00    +0.044 C 
BRANCH  16  19
ATOM     19  O   UNL     1      -8.106  -2.433  -1.138  0.00  0.00    -0.506 OA
ATOM     20  H   UNL     1      -7.471  -2.307  -0.420  0.00  0.00    +0.292 HD
ENDBRANCH  16  19
ENDBRANCH   3  11
BRANCH   1  24
ATOM     21  C   UNL     1      -2.201  -2.724  -0.599  0.00  0.00    +0.121 A 
ATOM     22  C   UNL     1      -3.295  -1.968  -0.204  0.00  0.00    +0.046 A 
ATOM     23  C   UNL     1      -4.525  -2.572  -0.030  0.00  0.00    +0.009 A 
ATOM     24  C   UNL     1      -4.667  -3.930  -0.249  0.00  0.00    -0.022 A 
ATOM     25  C   UNL     1      -3.578  -4.686  -0.642  0.00  0.00    +0.009 A 
ATOM     26  C   UNL     1      -2.347  -4.086  -0.824  0.00  0.00    +0.046 A 
BRANCH  21  27
ATOM     27  O   UNL     1      -0.991  -2.132  -0.772  0.00  0.00    -0.492 OA
BRANCH  27  28
ATOM     28  C   UNL     1      -0.914  -0.727  -0.523  0.00  0.00    +0.229 C 
BRANCH  28  30
ATOM     29  C   UNL     1       0.598   1.262  -0.501  0.00  0.00    +0.007 C 
ATOM     30  C   UNL     1       0.516  -0.242  -0.768  0.00  0.00    +0.038 C 
ENDBRANCH  28  30
ENDBRANCH  27  28
ENDBRANCH  21  27
ENDBRANCH   1  24
BRANCH  10  31
ATOM     31  C   UNL     1      -5.332  -5.943   2.070  0.00  0.00    +0.111 C 
BRANCH  31  32
ATOM     32  C   UNL     1      -6.480  -5.818   3.073  0.00  0.00    +0.047 C 
BRANCH  32  33
ATOM     33  C   UNL     1      -5.929  -5.935   4.496  0.00  0.00    +0.161 C 
BRANCH  33  34
ATOM     34  O   UNL     1      -7.002  -5.818   5.433  0.00  0.00    -0.383 OA
ATOM     35  C   UNL     1      -6.594  -5.914   6.799  0.00  0.00    +0.193 C 
ENDBRANCH  33  34
ENDBRANCH  32  33
ENDBRANCH  31  32
ENDBRANCH  10  31
TORSDOF 10
