REMARK  Name = ZINC38659570
REMARK  16 active torsions:
REMARK  status: ('A' for Active; 'I' for Inactive)
REMARK    1  A    between atoms: C_1  and  C_2
REMARK    2  A    between atoms: C_2  and  C_3
REMARK    3  A    between atoms: C_3  and  C_4
REMARK    4  A    between atoms: C_4  and  O_5
REMARK    5  A    between atoms: O_5  and  C_6
REMARK    6  A    between atoms: C_9  and  C_12
REMARK    7  A    between atoms: C_12  and  O_14
REMARK    8  A    between atoms: O_14  and  C_15
REMARK    9  A    between atoms: C_22  and  N_39
REMARK   10  A    between atoms: C_23  and  C_37
REMARK   11  A    between atoms: C_24  and  C_26
REMARK   12  A    between atoms: C_29  and  O_34
REMARK   13  A    between atoms: C_30  and  O_32
REMARK   14  A    between atoms: O_32  and  C_33
REMARK   15  A    between atoms: O_34  and  C_35
REMARK   16  A    between atoms: C_35  and  C_36
REMARK                            x       y       z     vdW  Elec       q    Type
REMARK                         _______ _______ _______ _____ _____    ______ ____
ROOT
ATOM      1  C   UNL     1       2.601  -9.936   4.068  0.00  0.00    +0.135 A 
ATOM      2  C   UNL     1       2.081 -10.659   3.003  0.00  0.00    +0.047 A 
ATOM      3  C   UNL     1       2.147 -12.038   3.007  0.00  0.00    +0.012 A 
ATOM      4  C   UNL     1       2.730 -12.705   4.071  0.00  0.00    +0.008 A 
ATOM      5  C   UNL     1       3.251 -11.988   5.137  0.00  0.00    +0.138 A 
ATOM      6  C   UNL     1       3.190 -10.601   5.131  0.00  0.00    +0.093 A 
ATOM      7  O   UNL     1       3.826 -12.624   6.187  0.00  0.00    -0.441 OA
ATOM      8  C   UNL     1       3.569 -13.924   6.407  0.00  0.00    +0.199 C 
ATOM      9  C   UNL     1       3.077 -14.730   5.437  0.00  0.00    +0.098 C 
ATOM     10  C   UNL     1       2.793 -14.209   4.056  0.00  0.00    +0.098 C 
ENDROOT
BRANCH  10  11
ATOM     11  C   UNL     1       3.886 -14.655   3.119  0.00  0.00    -0.031 A 
ATOM     12  C   UNL     1       5.194 -14.270   3.353  0.00  0.00    +0.008 A 
ATOM     13  C   UNL     1       6.200 -14.676   2.496  0.00  0.00    +0.050 A 
ATOM     14  C   UNL     1       5.899 -15.470   1.401  0.00  0.00    +0.162 A 
ATOM     15  C   UNL     1       4.584 -15.857   1.167  0.00  0.00    +0.162 A 
ATOM     16  C   UNL     1       3.580 -15.451   2.032  0.00  0.00    +0.054 A 
BRANCH  15  17
ATOM     17  O   UNL     1       4.284 -16.637   0.093  0.00  0.00    -0.491 OA
ATOM     18  C   UNL     1       2.912 -16.996  -0.085  0.00  0.00    +0.277 C 
ENDBRANCH  15  17
BRANCH  14  19
ATOM     19  O   UNL     1       6.888 -15.870   0.558  0.00  0.00    -0.489 OA
BRANCH  19  20
ATOM     20  C   UNL     1       8.215 -15.434   0.861  0.00  0.00    +0.226 C 
ATOM     21  C   UNL     1       9.183 -15.978  -0.192  0.00  0.00    +0.048 C 
ENDBRANCH  19  20
ENDBRANCH  14  19
ENDBRANCH  10  11
BRANCH   8  22
ATOM     22  N   UNL     1       3.813 -14.450   7.651  0.00  0.00    -0.328 N 
ATOM     23  H   UNL     1       4.165 -13.885   8.356  0.00  0.00    +0.145 HD
ATOM     24  H   UNL     1       3.632 -15.387   7.825  0.00  0.00    +0.145 HD
ENDBRANCH   8  22
BRANCH   9  25
ATOM     25  C   UNL     1       2.822 -16.108   5.733  0.00  0.00    +0.101 C 
ATOM     26  N   UNL     1       2.620 -17.201   5.968  0.00  0.00    -0.191 NA
ENDBRANCH   9  25
BRANCH   1  27
ATOM     27  O   UNL     1       2.537  -8.579   4.065  0.00  0.00    -0.422 OA
BRANCH  27  28
ATOM     28  C   UNL     1       3.657  -7.893   3.763  0.00  0.00    +0.344 C 
ATOM     29  O   UNL     1       4.704  -8.485   3.592  0.00  0.00    -0.245 OA
BRANCH  28  33
ATOM     30  C   UNL     1       3.528  -3.664   3.409  0.00  0.00    +0.121 A 
ATOM     31  C   UNL     1       4.727  -4.340   3.213  0.00  0.00    +0.046 A 
ATOM     32  C   UNL     1       4.773  -5.711   3.328  0.00  0.00    +0.018 A 
ATOM     33  C   UNL     1       3.612  -6.424   3.641  0.00  0.00    +0.060 A 
ATOM     34  C   UNL     1       2.409  -5.741   3.837  0.00  0.00    +0.018 A 
ATOM     35  C   UNL     1       2.372  -4.369   3.726  0.00  0.00    +0.046 A 
BRANCH  30  36
ATOM     36  O   UNL     1       3.486  -2.313   3.296  0.00  0.00    -0.492 OA
BRANCH  36  37
ATOM     37  C   UNL     1       4.710  -1.651   2.968  0.00  0.00    +0.229 C 
BRANCH  37  38
ATOM     38  C   UNL     1       4.468  -0.143   2.884  0.00  0.00    +0.041 C 
BRANCH  38  40
ATOM     39  C   UNL     1       5.535   2.074   2.450  0.00  0.00    +0.004 C 
ATOM     40  C   UNL     1       5.778   0.565   2.533  0.00  0.00    -0.000 C 
ENDBRANCH  38  40
ENDBRANCH  37  38
ENDBRANCH  36  37
ENDBRANCH  30  36
ENDBRANCH  28  33
ENDBRANCH  27  28
ENDBRANCH   1  27
TORSDOF 13
