REMARK  Name = ZINC06550985
REMARK  10 active torsions:
REMARK  status: ('A' for Active; 'I' for Inactive)
REMARK    1  A    between atoms: C_1  and  C_2
REMARK    2  A    between atoms: C_2  and  C_3
REMARK    3  A    between atoms: C_2  and  C_4
REMARK    4  A    between atoms: C_2  and  N_5
REMARK    5  A    between atoms: C_6  and  C_10
REMARK    6  A    between atoms: C_10  and  C_12
REMARK    7  A    between atoms: C_10  and  N_63
REMARK    8  A    between atoms: C_15  and  O_20
REMARK    9  A    between atoms: C_16  and  O_18
REMARK   10  A    between atoms: O_18  and  C_19
REMARK                            x       y       z     vdW  Elec       q    Type
REMARK                         _______ _______ _______ _____ _____    ______ ____
ROOT
ATOM      1  C   UNL     1      -1.149   2.051   0.189  0.00  0.00    +0.034 C 
ENDROOT
BRANCH   1  16
ATOM      2  C   UNL     1      -2.646   3.750  -0.668  0.00  0.00    -0.058 C 
ATOM      3  C   UNL     1      -2.713   5.025  -1.512  0.00  0.00    +0.088 C 
ATOM      4  N   UNL     1      -2.273   4.725  -2.882  0.00  0.00    -0.313 N 
ATOM      5  C   UNL     1      -0.897   4.208  -2.889  0.00  0.00    +0.088 C 
ATOM      6  C   UNL     1      -0.830   2.934  -2.044  0.00  0.00    -0.058 C 
ATOM      7  C   UNL     1      -2.388   5.836  -3.693  0.00  0.00    +0.162 A 
ATOM      8  N   UNL     1      -3.449   6.569  -3.941  0.00  0.00    -0.225 NA
ATOM      9  C   UNL     1      -3.415   7.640  -4.764  0.00  0.00    +0.080 A 
ATOM     10  C   UNL     1      -4.476   8.506  -5.113  0.00  0.00    +0.029 A 
ATOM     11  C   UNL     1      -4.270   9.557  -5.969  0.00  0.00    +0.002 A 
ATOM     12  C   UNL     1      -3.022   9.808  -6.521  0.00  0.00    +0.001 A 
ATOM     13  C   UNL     1      -1.962   8.980  -6.201  0.00  0.00    +0.017 A 
ATOM     14  C   UNL     1      -2.159   7.926  -5.345  0.00  0.00    +0.041 A 
ATOM     15  S   UNL     1      -1.128   6.649  -4.665  0.00  0.00    -0.052 S 
ATOM     16  N   UNL     1      -1.254   3.254  -0.664  0.00  0.00    +0.391 N 
ATOM     17  H   UNL     1      -0.640   3.985  -0.287  0.00  0.00    -0.080 HD
ENDBRANCH   1  16
BRANCH   1  18
ATOM     18  C   UNL     1       0.291   1.606   0.231  0.00  0.00    -0.050 A 
ATOM     19  C   UNL     1       1.292   2.531   0.458  0.00  0.00    +0.006 A 
ATOM     20  C   UNL     1       2.614   2.129   0.492  0.00  0.00    +0.049 A 
ATOM     21  C   UNL     1       2.938   0.796   0.297  0.00  0.00    +0.158 A 
ATOM     22  C   UNL     1       1.930  -0.136   0.068  0.00  0.00    +0.161 A 
ATOM     23  C   UNL     1       0.607   0.274   0.036  0.00  0.00    +0.051 A 
BRANCH  22  24
ATOM     24  O   UNL     1       2.243  -1.445  -0.123  0.00  0.00    -0.491 OA
ATOM     25  C   UNL     1       1.156  -2.345  -0.352  0.00  0.00    +0.277 C 
ENDBRANCH  22  24
BRANCH  21  26
ATOM     26  O   UNL     1       4.238   0.399   0.329  0.00  0.00    -0.503 OA
ATOM     27  H   UNL     1       4.680   0.426  -0.531  0.00  0.00    +0.292 HD
ENDBRANCH  21  26
ENDBRANCH   1  18
BRANCH   1  29
ATOM     28  N   UNL     1      -2.559   1.763   2.295  0.00  0.00    -0.225 N 
ATOM     29  C   UNL     1      -1.608   2.396   1.582  0.00  0.00    +0.143 A 
ATOM     30  N   UNL     1      -1.157   3.367   2.337  0.00  0.00    -0.115 NA
ATOM     31  N   UNL     1      -1.802   3.337   3.452  0.00  0.00    -0.023 NA
ATOM     32  N   UNL     1      -2.647   2.367   3.431  0.00  0.00    -0.043 NA
BRANCH  28  34
ATOM     33  C   UNL     1      -2.404  -0.553   1.524  0.00  0.00    +0.036 C 
ATOM     34  C   UNL     1      -3.345   0.605   1.861  0.00  0.00    +0.059 C 
ATOM     35  C   UNL     1      -4.292   0.182   2.985  0.00  0.00    +0.036 C 
ATOM     36  C   UNL     1      -4.160   0.977   0.621  0.00  0.00    +0.036 C 
ENDBRANCH  28  34
ENDBRANCH   1  29
TORSDOF 6
