REMARK  Name = ZINC13122862
REMARK  10 active torsions:
REMARK  status: ('A' for Active; 'I' for Inactive)
REMARK    1  A    between atoms: C_1  and  C_2
REMARK    2  A    between atoms: C_2  and  C_3
REMARK    3  A    between atoms: C_2  and  C_4
REMARK    4  A    between atoms: N_11  and  N_12
REMARK    5  A    between atoms: C_13  and  C_15
REMARK    6  A    between atoms: C_18  and  C_21
REMARK    7  A    between atoms: C_21  and  S_22
REMARK    8  A    between atoms: S_22  and  C_23
REMARK    9  A    between atoms: N_27  and  C_28
REMARK   10  A    between atoms: C_29  and  O_31
REMARK                            x       y       z     vdW  Elec       q    Type
REMARK                         _______ _______ _______ _____ _____    ______ ____
ROOT
ATOM      1  N   UNL     1      -4.389  -3.928  -3.733  0.00  0.00    -0.202 N 
ATOM      2  C   UNL     1      -3.992  -4.489  -4.893  0.00  0.00    +0.263 C 
ATOM      3  O   UNL     1      -2.860  -4.314  -5.297  0.00  0.00    -0.268 OA
ATOM      4  H   UNL     1      -5.293  -4.068  -3.411  0.00  0.00    +0.178 HD
ENDROOT
BRANCH   1  12
ATOM      5  C   UNL     1      -1.412  -0.526   0.013  0.00  0.00    -0.044 A 
ATOM      6  C   UNL     1      -2.260  -0.202   1.060  0.00  0.00    +0.006 A 
ATOM      7  C   UNL     1      -3.556  -0.668   1.089  0.00  0.00    +0.029 A 
ATOM      8  C   UNL     1      -4.030  -1.479   0.052  0.00  0.00    +0.077 A 
ATOM      9  C   UNL     1      -3.161  -1.803  -1.009  0.00  0.00    +0.033 A 
ATOM     10  C   UNL     1      -1.860  -1.320  -1.025  0.00  0.00    +0.016 A 
ATOM     11  C   UNL     1      -3.952  -2.658  -1.923  0.00  0.00    +0.152 C 
ATOM     12  N   UNL     1      -3.566  -3.204  -3.052  0.00  0.00    -0.174 NA
ATOM     13  C   UNL     1      -5.274  -2.755  -1.274  0.00  0.00    +0.241 C 
ATOM     14  N   UNL     1      -5.238  -2.063  -0.165  0.00  0.00    -0.211 NA
BRANCH   5  16
ATOM     15  C   UNL     1      -0.019   1.526   0.010  0.00  0.00    +0.012 C 
ATOM     16  C   UNL     1       0.002  -0.004   0.002  0.00  0.00    +0.013 C 
ATOM     17  C   UNL     1       0.742  -0.511   1.242  0.00  0.00    +0.012 C 
ENDBRANCH   5  16
BRANCH  13  18
ATOM     18  O   UNL     1      -6.341  -3.442  -1.746  0.00  0.00    -0.491 OA
ATOM     19  H   UNL     1      -7.125  -3.389  -1.182  0.00  0.00    +0.294 HD
ENDBRANCH  13  18
ENDBRANCH   1  12
BRANCH   2  20
ATOM     20  C   UNL     1      -4.935  -5.318  -5.672  0.00  0.00    +0.038 A 
ATOM     21  C   UNL     1      -6.239  -5.516  -5.214  0.00  0.00    +0.013 A 
ATOM     22  C   UNL     1      -7.113  -6.291  -5.947  0.00  0.00    +0.005 A 
ATOM     23  C   UNL     1      -6.701  -6.870  -7.134  0.00  0.00    -0.037 A 
ATOM     24  C   UNL     1      -5.410  -6.678  -7.594  0.00  0.00    +0.005 A 
ATOM     25  C   UNL     1      -4.527  -5.901  -6.874  0.00  0.00    +0.013 A 
BRANCH  23  26
ATOM     26  C   UNL     1      -7.662  -7.716  -7.930  0.00  0.00    +0.112 C 
BRANCH  26  27
ATOM     27  S   UNL     1      -8.561  -6.666  -9.105  0.00  0.00    -0.081 S 
BRANCH  27  28
ATOM     28  C   UNL     1      -9.629  -7.786  -9.947  0.00  0.00    +0.191 A 
ATOM     29  N   UNL     1      -9.728  -9.078  -9.737  0.00  0.00    -0.123 NA
ATOM     30  N   UNL     1     -10.605  -9.584 -10.528  0.00  0.00    -0.137 NA
ATOM     31  C   UNL     1     -11.115  -8.653 -11.284  0.00  0.00    +0.225 A 
ATOM     32  N   UNL     1     -10.516  -7.473 -10.937  0.00  0.00    -0.312 N 
ATOM     33  C   UNL     1     -10.771  -6.149 -11.511  0.00  0.00    +0.152 C 
ENDBRANCH  27  28
ENDBRANCH  26  27
ENDBRANCH  23  26
ENDBRANCH   2  20
TORSDOF 7
