REMARK  Name = ZINC43230360
REMARK  11 active torsions:
REMARK  status: ('A' for Active; 'I' for Inactive)
REMARK    1  A    between atoms: C_1  and  C_2
REMARK    2  A    between atoms: C_2  and  N_3
REMARK    3  A    between atoms: N_3  and  C_4
REMARK    4  A    between atoms: N_3  and  C_6
REMARK    5  A    between atoms: C_4  and  C_5
REMARK    6  A    between atoms: C_6  and  C_8
REMARK    7  A    between atoms: C_6  and  C_22
REMARK    8  A    between atoms: C_8  and  N_9
REMARK    9  A    between atoms: N_12  and  N_13
REMARK   10  A    between atoms: N_13  and  C_14
REMARK   11  A    between atoms: C_14  and  C_21
REMARK                            x       y       z     vdW  Elec       q    Type
REMARK                         _______ _______ _______ _____ _____    ______ ____
ROOT
ATOM      1  N   UNL     1       0.205  -2.384  -1.901  0.00  0.00    -0.300 N 
ATOM      2  C   UNL     1       0.701  -3.428  -1.209  0.00  0.00    +0.313 C 
ATOM      3  O   UNL     1       1.620  -3.261  -0.431  0.00  0.00    -0.252 OA
ATOM      4  N   UNL     1       0.177  -4.658  -1.378  0.00  0.00    -0.234 N 
ATOM      5  H   UNL     1      -0.574  -2.502  -2.466  0.00  0.00    +0.150 HD
ATOM      6  H   UNL     1       0.483  -5.396  -0.828  0.00  0.00    +0.171 HD
ENDROOT
BRANCH   4   7
ATOM      7  N   UNL     1      -0.786  -4.866  -2.325  0.00  0.00    -0.232 NA
ATOM      8  H   UNL     1      -1.537  -4.199  -2.229  0.00  0.00    +0.145 HD
BRANCH   7   9
ATOM      9  C   UNL     1      -1.295  -6.243  -2.265  0.00  0.00    +0.054 C 
ATOM     10  C   UNL     1      -1.804  -6.516  -0.851  0.00  0.00    +0.047 C 
ATOM     11  C   UNL     1      -3.309  -6.146  -0.739  0.00  0.00    +0.168 C 
ATOM     12  S   UNL     1      -3.900  -6.759  -2.378  0.00  0.00    -0.029 S 
ATOM     13  O   UNL     1      -4.947  -5.919  -2.842  0.00  0.00    -0.174 OA
ATOM     14  O   UNL     1      -4.104  -8.164  -2.305  0.00  0.00    -0.174 OA
ATOM     15  C   UNL     1      -2.374  -6.418  -3.351  0.00  0.00    +0.189 C 
ATOM     16  C   UNL     1      -0.141  -7.203  -2.561  0.00  0.00    +0.031 C 
ENDBRANCH   7   9
ENDBRANCH   4   7
BRANCH   1  17
ATOM     17  C   UNL     1       0.844  -1.069  -1.801  0.00  0.00    +0.095 C 
BRANCH  17  18
ATOM     18  C   UNL     1       0.011  -0.037  -2.563  0.00  0.00    -0.020 C 
BRANCH  18  19
ATOM     19  C   UNL     1       0.600   1.335  -2.359  0.00  0.00    -0.059 A 
ATOM     20  C   UNL     1       1.927   1.470  -1.995  0.00  0.00    +0.002 A 
ATOM     21  C   UNL     1       2.467   2.728  -1.807  0.00  0.00    +0.000 A 
ATOM     22  C   UNL     1       1.681   3.852  -1.984  0.00  0.00    +0.000 A 
ATOM     23  C   UNL     1       0.354   3.716  -2.348  0.00  0.00    +0.000 A 
ATOM     24  C   UNL     1      -0.185   2.458  -2.540  0.00  0.00    +0.002 A 
ENDBRANCH  18  19
BRANCH  18  25
ATOM     25  N   UNL     1      -1.370  -0.057  -2.063  0.00  0.00    +0.385 N 
ATOM     26  H   UNL     1      -1.611  -0.994  -1.778  0.00  0.00    -0.081 HD
BRANCH  25  28
ATOM     27  C   UNL     1      -0.479   0.441   0.163  0.00  0.00    -0.017 C 
ATOM     28  C   UNL     1      -1.487   0.850  -0.913  0.00  0.00    -0.081 C 
ENDBRANCH  25  28
BRANCH  25  29
ATOM     29  C   UNL     1      -2.283   0.382  -3.127  0.00  0.00    -0.081 C 
ATOM     30  C   UNL     1      -2.322  -0.674  -4.233  0.00  0.00    -0.017 C 
ENDBRANCH  25  29
ENDBRANCH  18  25
ENDBRANCH  17  18
ENDBRANCH   1  17
TORSDOF 8
