REMARK  Name = ZINC13033369
REMARK  14 active torsions:
REMARK  status: ('A' for Active; 'I' for Inactive)
REMARK    1  A    between atoms: C_1  and  C_2
REMARK    2  A    between atoms: C_2  and  C_3
REMARK    3  A    between atoms: C_3  and  C_4
REMARK    4  A    between atoms: C_3  and  C_5
REMARK    5  A    between atoms: C_3  and  N_6
REMARK    6  A    between atoms: C_7  and  C_11
REMARK    7  A    between atoms: C_11  and  N_68
REMARK    8  A    between atoms: C_12  and  C_13
REMARK    9  A    between atoms: C_12  and  N_68
REMARK   10  A    between atoms: C_16  and  C_19
REMARK   11  A    between atoms: C_20  and  C_21
REMARK   12  A    between atoms: C_20  and  N_68
REMARK   13  A    between atoms: C_24  and  C_34
REMARK   14  A    between atoms: C_27  and  C_33
REMARK                            x       y       z     vdW  Elec       q    Type
REMARK                         _______ _______ _______ _____ _____    ______ ____
ROOT
ATOM      1  N   UNL     1      -0.480   1.682   1.506  0.00  0.00    +0.390 N 
ATOM      2  H   UNL     1      -0.949   2.545   1.209  0.00  0.00    -0.080 HD
ENDROOT
BRANCH   1   3
ATOM      3  C   UNL     1       0.048   0.987   0.313  0.00  0.00    +0.001 C 
BRANCH   3   5
ATOM      4  N   UNL     1      -1.051   0.344  -1.897  0.00  0.00    -0.226 N 
ATOM      5  C   UNL     1      -0.951   1.127  -0.807  0.00  0.00    +0.136 A 
ATOM      6  N   UNL     1      -1.888   2.038  -0.911  0.00  0.00    -0.115 NA
ATOM      7  N   UNL     1      -2.532   1.822  -2.005  0.00  0.00    -0.023 NA
ATOM      8  N   UNL     1      -2.031   0.798  -2.602  0.00  0.00    -0.043 NA
BRANCH   4   9
ATOM      9  C   UNL     1      -0.207  -0.809  -2.221  0.00  0.00    +0.061 C 
ATOM     10  C   UNL     1       1.264  -0.392  -2.179  0.00  0.00    +0.036 C 
ATOM     11  C   UNL     1      -0.450  -1.922  -1.199  0.00  0.00    +0.036 C 
BRANCH   9  13
ATOM     12  C   UNL     1       0.328  -2.522  -3.959  0.00  0.00    +0.006 C 
ATOM     13  C   UNL     1      -0.553  -1.318  -3.621  0.00  0.00    +0.026 C 
ENDBRANCH   9  13
ENDBRANCH   4   9
ENDBRANCH   3   5
ENDBRANCH   1   3
BRANCH   1  14
ATOM     14  C   UNL     1      -1.458   0.819   2.202  0.00  0.00    -0.042 C 
BRANCH  14  15
ATOM     15  C   UNL     1      -2.775   0.898   1.473  0.00  0.00    -0.064 A 
ATOM     16  C   UNL     1      -3.644   1.943   1.726  0.00  0.00    +0.002 A 
ATOM     17  C   UNL     1      -4.849   2.018   1.054  0.00  0.00    +0.003 A 
ATOM     18  C   UNL     1      -5.190   1.043   0.135  0.00  0.00    -0.050 A 
ATOM     19  C   UNL     1      -4.323  -0.004  -0.115  0.00  0.00    +0.003 A 
ATOM     20  C   UNL     1      -3.116  -0.077   0.554  0.00  0.00    +0.002 A 
ATOM     21  C   UNL     1      -6.507   1.122  -0.594  0.00  0.00    +0.044 C 
ENDBRANCH  14  15
ENDBRANCH   1  14
BRANCH   1  22
ATOM     22  C   UNL     1       0.629   2.027   2.421  0.00  0.00    -0.036 C 
BRANCH  22  23
ATOM     23  C   UNL     1       0.102   2.934   3.502  0.00  0.00    +0.001 A 
ATOM     24  C   UNL     1      -0.268   2.415   4.699  0.00  0.00    +0.017 A 
ATOM     25  C   UNL     1      -0.776   3.323   5.729  0.00  0.00    +0.002 A 
ATOM     26  C   UNL     1      -1.172   2.846   6.983  0.00  0.00    -0.041 A 
ATOM     27  C   UNL     1      -1.641   3.720   7.922  0.00  0.00    +0.004 A 
ATOM     28  C   UNL     1      -1.729   5.077   7.644  0.00  0.00    +0.005 A 
ATOM     29  C   UNL     1      -1.344   5.569   6.415  0.00  0.00    -0.026 A 
ATOM     30  C   UNL     1      -0.863   4.699   5.443  0.00  0.00    +0.052 A 
ATOM     31  N   UNL     1      -0.471   5.164   4.205  0.00  0.00    -0.322 N 
ATOM     32  H   UNL     1      -0.532   6.112   4.010  0.00  0.00    +0.169 HD
ATOM     33  C   UNL     1      -0.000   4.322   3.268  0.00  0.00    +0.251 A 
ATOM     34  O   UNL     1       0.342   4.769   2.187  0.00  0.00    -0.268 OA
ATOM     35  C   UNL     1      -1.444   7.045   6.127  0.00  0.00    +0.046 C 
ATOM     36  C   UNL     1      -1.081   1.375   7.296  0.00  0.00    +0.044 C 
ENDBRANCH  22  23
ENDBRANCH   1  22
TORSDOF 8
