REMARK  Name = ZINC38687329
REMARK  11 active torsions:
REMARK  status: ('A' for Active; 'I' for Inactive)
REMARK    1  A    between atoms: C_1  and  C_2
REMARK    2  A    between atoms: C_2  and  C_3
REMARK    3  A    between atoms: C_9  and  C_37
REMARK    4  A    between atoms: C_10  and  C_12
REMARK    5  A    between atoms: C_12  and  O_14
REMARK    6  A    between atoms: O_14  and  C_15
REMARK    7  A    between atoms: C_22  and  N_36
REMARK    8  A    between atoms: C_23  and  C_34
REMARK    9  A    between atoms: C_24  and  C_26
REMARK   10  A    between atoms: C_30  and  O_32
REMARK   11  A    between atoms: O_32  and  C_33
REMARK                            x       y       z     vdW  Elec       q    Type
REMARK                         _______ _______ _______ _____ _____    ______ ____
ROOT
ATOM      1  C   UNL     1      -8.805  -3.280  -2.177  0.00  0.00    +0.136 A 
ATOM      2  C   UNL     1      -8.725  -3.328  -3.562  0.00  0.00    +0.047 A 
ATOM      3  C   UNL     1      -9.807  -3.761  -4.301  0.00  0.00    +0.012 A 
ATOM      4  C   UNL     1     -10.974  -4.149  -3.667  0.00  0.00    +0.008 A 
ATOM      5  C   UNL     1     -11.060  -4.104  -2.284  0.00  0.00    +0.138 A 
ATOM      6  C   UNL     1      -9.970  -3.674  -1.539  0.00  0.00    +0.093 A 
ATOM      7  O   UNL     1     -12.195  -4.480  -1.645  0.00  0.00    -0.441 OA
ATOM      8  C   UNL     1     -13.097  -5.249  -2.277  0.00  0.00    +0.199 C 
ATOM      9  C   UNL     1     -13.126  -5.358  -3.627  0.00  0.00    +0.098 C 
ATOM     10  C   UNL     1     -12.144  -4.618  -4.491  0.00  0.00    +0.098 C 
ENDROOT
BRANCH  10  11
ATOM     11  C   UNL     1     -12.825  -3.427  -5.114  0.00  0.00    -0.031 A 
ATOM     12  C   UNL     1     -13.352  -2.433  -4.309  0.00  0.00    +0.005 A 
ATOM     13  C   UNL     1     -13.978  -1.339  -4.876  0.00  0.00    +0.004 A 
ATOM     14  C   UNL     1     -14.079  -1.236  -6.250  0.00  0.00    +0.045 A 
ATOM     15  C   UNL     1     -13.552  -2.231  -7.060  0.00  0.00    +0.120 A 
ATOM     16  C   UNL     1     -12.919  -3.325  -6.488  0.00  0.00    +0.050 A 
BRANCH  15  17
ATOM     17  O   UNL     1     -13.650  -2.131  -8.412  0.00  0.00    -0.495 OA
ATOM     18  C   UNL     1     -14.309  -0.975  -8.931  0.00  0.00    +0.277 C 
ENDBRANCH  15  17
ENDBRANCH  10  11
BRANCH   8  19
ATOM     19  N   UNL     1     -14.017  -5.944  -1.533  0.00  0.00    -0.328 N 
ATOM     20  H   UNL     1     -14.010  -5.876  -0.566  0.00  0.00    +0.145 HD
ATOM     21  H   UNL     1     -14.675  -6.503  -1.975  0.00  0.00    +0.145 HD
ENDBRANCH   8  19
BRANCH   9  22
ATOM     22  C   UNL     1     -14.111  -6.195  -4.242  0.00  0.00    +0.101 C 
ATOM     23  N   UNL     1     -14.893  -6.859  -4.730  0.00  0.00    -0.191 NA
ENDBRANCH   9  22
BRANCH   1  24
ATOM     24  O   UNL     1      -7.740  -2.855  -1.448  0.00  0.00    -0.420 OA
BRANCH  24  25
ATOM     25  C   UNL     1      -6.986  -3.784  -0.826  0.00  0.00    +0.380 C 
ATOM     26  O   UNL     1      -7.318  -4.954  -0.853  0.00  0.00    -0.241 OA
BRANCH  25  34
ATOM     27  C   UNL     1      -1.895  -2.627   2.211  0.00  0.00    -0.047 A 
ATOM     28  C   UNL     1      -2.186  -1.327   1.823  0.00  0.00    +0.007 A 
ATOM     29  C   UNL     1      -3.307  -1.050   1.071  0.00  0.00    +0.047 A 
ATOM     30  C   UNL     1      -4.159  -2.081   0.694  0.00  0.00    +0.136 A 
ATOM     31  C   UNL     1      -3.859  -3.398   1.089  0.00  0.00    +0.024 A 
ATOM     32  C   UNL     1      -2.715  -3.658   1.848  0.00  0.00    +0.015 A 
ATOM     33  C   UNL     1      -4.930  -4.230   0.543  0.00  0.00    +0.010 A 
ATOM     34  C   UNL     1      -5.765  -3.384  -0.116  0.00  0.00    +0.216 A 
ATOM     35  O   UNL     1      -5.300  -2.120  -0.021  0.00  0.00    -0.448 OA
ATOM     36  C   UNL     1      -5.079  -5.723   0.683  0.00  0.00    +0.048 C 
BRANCH  27  38
ATOM     37  C   UNL     1       0.520  -3.182   2.103  0.00  0.00    +0.009 C 
ATOM     38  C   UNL     1      -0.663  -2.905   3.034  0.00  0.00    +0.032 C 
ENDBRANCH  27  38
ENDBRANCH  25  34
ENDBRANCH  24  25
ENDBRANCH   1  24
TORSDOF 8
