REMARK  Name = ZINC10014403
REMARK  9 active torsions:
REMARK  status: ('A' for Active; 'I' for Inactive)
REMARK    1  A    between atoms: C_1  and  C_2
REMARK    2  A    between atoms: C_2  and  N_3
REMARK    3  A    between atoms: C_14  and  N_16
REMARK    4  A    between atoms: C_17  and  C_19
REMARK    5  A    between atoms: C_19  and  C_21
REMARK    6  A    between atoms: C_19  and  S_22
REMARK    7  A    between atoms: S_22  and  C_23
REMARK    8  A    between atoms: C_26  and  C_29
REMARK    9  A    between atoms: N_27  and  C_28
REMARK                            x       y       z     vdW  Elec       q    Type
REMARK                         _______ _______ _______ _____ _____    ______ ____
ROOT
ATOM      1  N   UNL     1      -0.711   8.840   0.056  0.00  0.00    -0.285 N 
ATOM      2  C   UNL     1      -0.124  10.049   0.158  0.00  0.00    +0.230 C 
ATOM      3  O   UNL     1       1.085  10.139   0.147  0.00  0.00    -0.274 OA
ATOM      4  H   UNL     1      -1.677   8.773  -0.002  0.00  0.00    +0.155 HD
ENDROOT
BRANCH   1  16
ATOM      5  N   UNL     1       2.573   4.375  -0.162  0.00  0.00    -0.340 N 
ATOM      6  C   UNL     1       3.659   4.870  -0.862  0.00  0.00    +0.050 A 
ATOM      7  C   UNL     1       4.854   4.287  -1.272  0.00  0.00    +0.026 A 
ATOM      8  C   UNL     1       5.781   5.030  -1.970  0.00  0.00    +0.002 A 
ATOM      9  C   UNL     1       5.538   6.363  -2.266  0.00  0.00    +0.001 A 
ATOM     10  C   UNL     1       4.358   6.957  -1.873  0.00  0.00    +0.010 A 
ATOM     11  C   UNL     1       3.413   6.217  -1.167  0.00  0.00    +0.008 A 
ATOM     12  C   UNL     1       2.087   6.537  -0.607  0.00  0.00    +0.009 A 
ATOM     13  C   UNL     1       1.617   5.364   0.001  0.00  0.00    +0.050 A 
ATOM     14  C   UNL     1       0.371   5.367   0.621  0.00  0.00    +0.028 A 
ATOM     15  C   UNL     1      -0.391   6.514   0.637  0.00  0.00    +0.025 A 
ATOM     16  C   UNL     1       0.074   7.679   0.034  0.00  0.00    +0.034 A 
ATOM     17  C   UNL     1       1.311   7.693  -0.587  0.00  0.00    +0.034 A 
BRANCH   5  19
ATOM     18  C   UNL     1       3.029   2.919   1.749  0.00  0.00    +0.027 C 
ATOM     19  C   UNL     1       2.452   3.002   0.335  0.00  0.00    +0.119 C 
ENDBRANCH   5  19
ENDBRANCH   1  16
BRANCH   2  20
ATOM     20  C   UNL     1      -0.971  11.289   0.287  0.00  0.00    +0.137 C 
ATOM     21  C   UNL     1      -1.487  11.699  -1.094  0.00  0.00    +0.029 C 
BRANCH  20  22
ATOM     22  S   UNL     1       0.027  12.631   0.981  0.00  0.00    -0.074 S 
BRANCH  22  23
ATOM     23  C   UNL     1      -1.212  13.871   1.160  0.00  0.00    +0.192 A 
ATOM     24  N   UNL     1      -2.481  13.757   0.841  0.00  0.00    -0.122 NA
ATOM     25  N   UNL     1      -3.104  14.850   1.104  0.00  0.00    -0.125 NA
ATOM     26  C   UNL     1      -2.268  15.735   1.600  0.00  0.00    +0.200 A 
ATOM     27  N   UNL     1      -1.029  15.134   1.651  0.00  0.00    -0.303 N 
ATOM     28  C   UNL     1       0.223  15.725   2.131  0.00  0.00    +0.153 C 
BRANCH  26  29
ATOM     29  C   UNL     1      -2.593  17.106   2.021  0.00  0.00    +0.172 A 
ATOM     30  C   UNL     1      -3.728  17.791   1.708  0.00  0.00    +0.053 A 
ATOM     31  C   UNL     1      -3.620  19.055   2.319  0.00  0.00    +0.042 A 
ATOM     32  C   UNL     1      -2.436  19.085   2.961  0.00  0.00    +0.196 A 
ATOM     33  O   UNL     1      -1.817  17.906   2.779  0.00  0.00    -0.460 OA
ENDBRANCH  26  29
ENDBRANCH  22  23
ENDBRANCH  20  22
ENDBRANCH   2  20
TORSDOF 6
