REMARK  Name = ZINC59040784
REMARK  8 active torsions:
REMARK  status: ('A' for Active; 'I' for Inactive)
REMARK    1  A    between atoms: C_4  and  S_22
REMARK    2  A    between atoms: C_5  and  N_7
REMARK    3  A    between atoms: C_8  and  C_10
REMARK    4  A    between atoms: C_10  and  S_11
REMARK    5  A    between atoms: S_11  and  C_12
REMARK    6  A    between atoms: C_17  and  N_21
REMARK    7  A    between atoms: S_22  and  C_23
REMARK    8  A    between atoms: C_23  and  C_24
REMARK                            x       y       z     vdW  Elec       q    Type
REMARK                         _______ _______ _______ _____ _____    ______ ____
ROOT
ATOM      1  N   UNL     1       1.233  -2.082  -0.021  0.00  0.00    -0.284 N 
ATOM      2  C   UNL     1       0.181  -2.769  -0.508  0.00  0.00    +0.227 C 
ATOM      3  O   UNL     1      -0.745  -2.178  -1.022  0.00  0.00    -0.275 OA
ATOM      4  H   UNL     1       2.008  -2.558   0.317  0.00  0.00    +0.155 HD
ENDROOT
BRANCH   1   9
ATOM      5  C   UNL     1      -0.028   1.374   0.036  0.00  0.00    +0.002 A 
ATOM      6  C   UNL     1       1.155   2.090   0.032  0.00  0.00    +0.001 A 
ATOM      7  C   UNL     1       2.368   1.428   0.010  0.00  0.00    +0.016 A 
ATOM      8  C   UNL     1       2.401   0.041  -0.008  0.00  0.00    +0.029 A 
ATOM      9  C   UNL     1       1.207  -0.681  -0.003  0.00  0.00    +0.047 A 
ATOM     10  C   UNL     1      -0.005  -0.008   0.019  0.00  0.00    +0.024 A 
BRANCH   8  11
ATOM     11  S   UNL     1       3.946  -0.806  -0.037  0.00  0.00    -0.119 S 
BRANCH  11  12
ATOM     12  C   UNL     1       5.177   0.526  -0.035  0.00  0.00    +0.109 C 
BRANCH  12  13
ATOM     13  C   UNL     1       6.561  -0.069  -0.058  0.00  0.00    -0.036 A 
ATOM     14  C   UNL     1       7.208  -0.362   1.128  0.00  0.00    +0.004 A 
ATOM     15  C   UNL     1       8.478  -0.908   1.107  0.00  0.00    +0.001 A 
ATOM     16  C   UNL     1       9.102  -1.161  -0.101  0.00  0.00    +0.015 A 
ATOM     17  C   UNL     1       8.455  -0.868  -1.288  0.00  0.00    +0.018 A 
ATOM     18  C   UNL     1       7.182  -0.327  -1.266  0.00  0.00    +0.019 A 
ATOM     19 BR   UNL     1       9.308  -1.213  -2.940  0.00  0.00    -0.050 Br
ENDBRANCH  12  13
ENDBRANCH  11  12
ENDBRANCH   8  11
ENDBRANCH   1   9
BRANCH   2  20
ATOM     20  C   UNL     1       0.154  -4.273  -0.414  0.00  0.00    +0.172 C 
BRANCH  20  21
ATOM     21  S   UNL     1      -1.381  -4.898  -1.151  0.00  0.00    -0.089 S 
BRANCH  21  22
ATOM     22  C   UNL     1      -1.262  -6.646  -0.965  0.00  0.00    +0.136 A 
ATOM     23  N   UNL     1      -0.299  -7.353  -0.418  0.00  0.00    -0.233 NA
ATOM     24  C   UNL     1      -0.342  -8.703  -0.343  0.00  0.00    +0.080 A 
ATOM     25  C   UNL     1       0.620  -9.576   0.215  0.00  0.00    +0.031 A 
ATOM     26  C   UNL     1       0.424 -10.932   0.210  0.00  0.00    +0.025 A 
ATOM     27  C   UNL     1      -0.722 -11.498  -0.341  0.00  0.00    +0.026 A 
ATOM     28  C   UNL     1      -1.687 -10.668  -0.898  0.00  0.00    +0.040 A 
ATOM     29  C   UNL     1      -1.493  -9.310  -0.894  0.00  0.00    +0.042 A 
ATOM     30  S   UNL     1      -2.424  -7.908  -1.467  0.00  0.00    -0.061 S 
BRANCH  27  31
ATOM     31  N   UNL     1      -0.900 -12.887  -0.335  0.00  0.00    -0.358 N 
ATOM     32  H   UNL     1      -0.223 -13.461   0.055  0.00  0.00    +0.142 HD
ATOM     33  H   UNL     1      -1.701 -13.275  -0.721  0.00  0.00    +0.142 HD
ENDBRANCH  27  31
ENDBRANCH  21  22
ENDBRANCH  20  21
ENDBRANCH   2  20
TORSDOF 8
