REMARK  Name = ZINC09292410
REMARK  7 active torsions:
REMARK  status: ('A' for Active; 'I' for Inactive)
REMARK    1  A    between atoms: C_4  and  C_7
REMARK    2  A    between atoms: C_12  and  N_16
REMARK    3  A    between atoms: N_16  and  N_17
REMARK    4  A    between atoms: C_18  and  C_19
REMARK    5  A    between atoms: C_22  and  C_24
REMARK    6  A    between atoms: C_27  and  S_30
REMARK    7  A    between atoms: S_30  and  N_33
REMARK                            x       y       z     vdW  Elec       q    Type
REMARK                         _______ _______ _______ _____ _____    ______ ____
ROOT
ATOM      1  N   UNL     1      -7.028   1.782   7.230  0.00  0.00    -0.186 NA
ATOM      2  C   UNL     1      -6.561   2.988   7.377  0.00  0.00    +0.176 C 
ENDROOT
BRANCH   2   3
ATOM      3  C   UNL     1      -5.955   3.683   6.240  0.00  0.00    +0.148 A 
ATOM      4  C   UNL     1      -5.425   4.954   6.258  0.00  0.00    +0.051 A 
ATOM      5  C   UNL     1      -4.958   5.215   4.962  0.00  0.00    +0.050 A 
ATOM      6  C   UNL     1      -5.217   4.107   4.212  0.00  0.00    +0.136 A 
ATOM      7  O   UNL     1      -5.824   3.191   4.991  0.00  0.00    -0.454 OA
BRANCH   6   8
ATOM      8  C   UNL     1      -4.893   3.942   2.781  0.00  0.00    +0.017 A 
ATOM      9  C   UNL     1      -5.213   2.752   2.122  0.00  0.00    +0.013 A 
ATOM     10  C   UNL     1      -4.906   2.604   0.786  0.00  0.00    +0.029 A 
ATOM     11  C   UNL     1      -4.285   3.631   0.097  0.00  0.00    +0.105 A 
ATOM     12  C   UNL     1      -3.961   4.810   0.745  0.00  0.00    +0.029 A 
ATOM     13  C   UNL     1      -4.265   4.974   2.080  0.00  0.00    +0.013 A 
BRANCH  11  14
ATOM     14  S   UNL     1      -3.897   3.433  -1.610  0.00  0.00    +0.056 S 
ATOM     15  O   UNL     1      -3.804   2.035  -1.846  0.00  0.00    -0.153 OA
ATOM     16  O   UNL     1      -2.828   4.326  -1.890  0.00  0.00    -0.153 OA
BRANCH  14  17
ATOM     17  N   UNL     1      -5.203   3.972  -2.474  0.00  0.00    -0.204 NA
ATOM     18  H   UNL     1      -5.671   3.369  -3.073  0.00  0.00    +0.144 HD
ATOM     19  H   UNL     1      -5.500   4.891  -2.382  0.00  0.00    +0.144 HD
ENDBRANCH  14  17
ENDBRANCH  11  14
ENDBRANCH   6   8
ENDBRANCH   2   3
BRANCH   1  20
ATOM     20  N   UNL     1      -7.608   1.117   8.318  0.00  0.00    -0.220 N 
ATOM     21  H   UNL     1      -7.662   1.555   9.182  0.00  0.00    +0.176 HD
BRANCH  20  27
ATOM     22  C   UNL     1      -7.828  -0.817  10.670  0.00  0.00    +0.002 A 
ATOM     23  C   UNL     1      -8.009  -1.820  11.561  0.00  0.00    +0.056 A 
ATOM     24  S   UNL     1      -8.688  -3.138  10.571  0.00  0.00    -0.076 S 
ATOM     25  C   UNL     1      -8.715  -2.323   8.997  0.00  0.00    +0.114 A 
ATOM     26  C   UNL     1      -8.189  -1.044   9.274  0.00  0.00    +0.057 A 
ATOM     27  C   UNL     1      -8.104  -0.164   8.162  0.00  0.00    +0.150 A 
ATOM     28  N   UNL     1      -8.501  -0.588   6.971  0.00  0.00    -0.219 NA
ATOM     29  C   UNL     1      -8.980  -1.804   6.783  0.00  0.00    +0.224 A 
ATOM     30  N   UNL     1      -9.087  -2.663   7.778  0.00  0.00    -0.228 NA
BRANCH  22  34
ATOM     31  C   UNL     1      -6.224   2.919  11.912  0.00  0.00    +0.000 A 
ATOM     32  C   UNL     1      -7.374   2.430  12.507  0.00  0.00    +0.001 A 
ATOM     33  C   UNL     1      -7.899   1.218  12.108  0.00  0.00    +0.008 A 
ATOM     34  C   UNL     1      -7.269   0.485  11.103  0.00  0.00    -0.017 A 
ATOM     35  C   UNL     1      -6.107   0.980  10.511  0.00  0.00    +0.008 A 
ATOM     36  C   UNL     1      -5.595   2.196  10.914  0.00  0.00    +0.001 A 
ENDBRANCH  22  34
ENDBRANCH  20  27
ENDBRANCH   1  20
TORSDOF 7
