REMARK  Name = ZINC08961259
REMARK  8 active torsions:
REMARK  status: ('A' for Active; 'I' for Inactive)
REMARK    1  A    between atoms: C_1  and  O_2
REMARK    2  A    between atoms: O_2  and  C_3
REMARK    3  A    between atoms: C_5  and  C_11
REMARK    4  A    between atoms: C_7  and  O_9
REMARK    5  A    between atoms: O_9  and  C_10
REMARK    6  A    between atoms: C_11  and  S_12
REMARK    7  A    between atoms: S_12  and  N_15
REMARK    8  A    between atoms: N_15  and  C_16
REMARK                            x       y       z     vdW  Elec       q    Type
REMARK                         _______ _______ _______ _____ _____    ______ ____
ROOT
ATOM      1  C   UNL     1       0.200   0.023   0.156  0.00  0.00    +0.049 A 
ATOM      2  C   UNL     1      -0.142  -0.844  -0.876  0.00  0.00    +0.028 A 
ATOM      3  C   UNL     1       0.065  -2.202  -0.741  0.00  0.00    +0.049 A 
ATOM      4  C   UNL     1       0.601  -2.714   0.432  0.00  0.00    +0.141 A 
ATOM      5  C   UNL     1       0.961  -1.848   1.469  0.00  0.00    +0.081 A 
ATOM      6  C   UNL     1       0.752  -0.473   1.325  0.00  0.00    +0.041 A 
ATOM      7  C   UNL     1       1.581  -2.366   2.696  0.00  0.00    +0.252 C 
ATOM      8  O   UNL     1       2.467  -1.704   3.201  0.00  0.00    -0.270 OA
ATOM      9  N   UNL     1       1.247  -3.501   3.295  0.00  0.00    -0.278 N 
ATOM     10  C   UNL     1       0.251  -4.387   2.887  0.00  0.00    +0.076 A 
ATOM     11  C   UNL     1      -0.548  -4.992   3.851  0.00  0.00    +0.027 A 
ATOM     12  C   UNL     1      -1.524  -5.895   3.481  0.00  0.00    +0.002 A 
ATOM     13  C   UNL     1      -1.711  -6.205   2.146  0.00  0.00    +0.004 A 
ATOM     14  C   UNL     1      -0.929  -5.601   1.181  0.00  0.00    +0.048 A 
ATOM     15  C   UNL     1       0.045  -4.681   1.545  0.00  0.00    +0.150 A 
ATOM     16  O   UNL     1       0.750  -4.053   0.571  0.00  0.00    -0.453 OA
ATOM     17  H   UNL     1       1.744  -3.738   4.094  0.00  0.00    +0.155 HD
ENDROOT
BRANCH   1  18
ATOM     18  N   UNL     1      -0.019   1.398   0.015  0.00  0.00    -0.220 N 
ATOM     19  H   UNL     1       0.728   1.993  -0.155  0.00  0.00    +0.173 HD
BRANCH  18  20
ATOM     20  S   UNL     1      -1.554   2.009   0.133  0.00  0.00    +0.047 S 
ATOM     21  O   UNL     1      -1.403   3.408  -0.064  0.00  0.00    -0.155 OA
ATOM     22  O   UNL     1      -2.324   1.229  -0.772  0.00  0.00    -0.155 OA
BRANCH  20  23
ATOM     23  C   UNL     1      -2.061   1.668   1.841  0.00  0.00    +0.224 C 
BRANCH  23  26
ATOM     24  C   UNL     1      -5.837   1.544   1.962  0.00  0.00    +0.124 A 
ATOM     25  C   UNL     1      -4.512   1.169   1.790  0.00  0.00    +0.051 A 
ATOM     26  C   UNL     1      -3.499   2.078   2.028  0.00  0.00    -0.018 A 
ATOM     27  C   UNL     1      -3.802   3.361   2.444  0.00  0.00    +0.051 A 
ATOM     28  C   UNL     1      -5.126   3.742   2.612  0.00  0.00    +0.124 A 
ATOM     29  C   UNL     1      -6.144   2.832   2.373  0.00  0.00    +0.091 A 
BRANCH  24  31
ATOM     30  C   UNL     1      -8.173   1.105   1.924  0.00  0.00    +0.277 C 
ATOM     31  O   UNL     1      -6.833   0.650   1.727  0.00  0.00    -0.495 OA
ENDBRANCH  24  31
BRANCH  28  32
ATOM     32  O   UNL     1      -5.423   5.005   3.015  0.00  0.00    -0.495 OA
ATOM     33  C   UNL     1      -6.807   5.327   3.172  0.00  0.00    +0.277 C 
ENDBRANCH  28  32
ENDBRANCH  23  26
ENDBRANCH  20  23
ENDBRANCH  18  20
ENDBRANCH   1  18
TORSDOF 6
