REMARK  Name = ZINC66237799
REMARK  8 active torsions:
REMARK  status: ('A' for Active; 'I' for Inactive)
REMARK    1  A    between atoms: C_1  and  C_2
REMARK    2  A    between atoms: C_5  and  O_9
REMARK    3  A    between atoms: C_6  and  C_8
REMARK    4  A    between atoms: O_9  and  C_10
REMARK    5  A    between atoms: C_10  and  C_11
REMARK    6  A    between atoms: C_11  and  C_13
REMARK    7  A    between atoms: C_11  and  O_30
REMARK    8  A    between atoms: C_13  and  N_14
REMARK                            x       y       z     vdW  Elec       q    Type
REMARK                         _______ _______ _______ _____ _____    ______ ____
ROOT
ATOM      1  N   UNL     1       0.226  -8.427  -2.284  0.00  0.00    -0.222 N 
ATOM      2  C   UNL     1       1.348  -9.152  -2.092  0.00  0.00    +0.247 C 
ATOM      3  O   UNL     1       2.488  -8.742  -2.041  0.00  0.00    -0.273 OA
ATOM      4  C   UNL     1       0.884 -10.582  -1.954  0.00  0.00    +0.117 C 
ATOM      5  C   UNL     1       1.260 -11.137  -0.583  0.00  0.00    +0.040 C 
ATOM      6  C   UNL     1       0.538 -12.469  -0.383  0.00  0.00    +0.038 C 
ATOM      7  C   UNL     1       0.751 -13.373  -1.569  0.00  0.00    -0.044 A 
ATOM      8  C   UNL     1       0.499 -14.729  -1.399  0.00  0.00    +0.004 A 
ATOM      9  C   UNL     1       0.669 -15.610  -2.446  0.00  0.00    +0.000 A 
ATOM     10  C   UNL     1       1.091 -15.142  -3.677  0.00  0.00    +0.000 A 
ATOM     11  C   UNL     1       1.343 -13.796  -3.847  0.00  0.00    +0.004 A 
ATOM     12  C   UNL     1       1.177 -12.908  -2.793  0.00  0.00    -0.042 A 
ATOM     13  C   UNL     1       1.487 -11.455  -3.045  0.00  0.00    +0.070 C 
ATOM     14  N   UNL     1      -0.575 -10.502  -2.095  0.00  0.00    -0.285 N 
ATOM     15  C   UNL     1      -0.867  -9.199  -2.279  0.00  0.00    +0.309 C 
ATOM     16  O   UNL     1      -1.996  -8.774  -2.427  0.00  0.00    -0.252 OA
ATOM     17  H   UNL     1      -1.204 -11.239  -2.059  0.00  0.00    +0.151 HD
ENDROOT
BRANCH   1  18
ATOM     18  C   UNL     1       0.207  -6.973  -2.468  0.00  0.00    +0.152 C 
BRANCH  18  19
ATOM     19  C   UNL     1       0.079  -6.289  -1.105  0.00  0.00    +0.170 C 
BRANCH  19  20
ATOM     20  O   UNL     1      -1.133  -6.705  -0.474  0.00  0.00    -0.387 OA
ATOM     21  H   UNL     1      -1.932  -6.492  -0.977  0.00  0.00    +0.210 HD
ENDBRANCH  19  20
BRANCH  19  22
ATOM     22  C   UNL     1       0.058  -4.771  -1.298  0.00  0.00    +0.262 C 
BRANCH  22  23
ATOM     23  O   UNL     1       0.057  -4.129  -0.021  0.00  0.00    -0.489 OA
BRANCH  23  28
ATOM     24  C   UNL     1      -0.018   1.503   0.010  0.00  0.00    +0.044 C 
ATOM     25  C   UNL     1       0.002  -0.004   0.002  0.00  0.00    -0.050 A 
ATOM     26  C   UNL     1       0.006  -0.688  -1.200  0.00  0.00    +0.007 A 
ATOM     27  C   UNL     1       0.024  -2.069  -1.210  0.00  0.00    +0.046 A 
ATOM     28  C   UNL     1       0.039  -2.770  -0.013  0.00  0.00    +0.124 A 
ATOM     29  C   UNL     1       0.036  -2.082   1.191  0.00  0.00    -0.009 A 
ATOM     30  C   UNL     1       0.023  -0.701   1.196  0.00  0.00    +0.010 A 
ATOM     31  C   UNL     1       0.052  -2.841   2.493  0.00  0.00    +0.047 C 
ENDBRANCH  23  28
ENDBRANCH  22  23
ENDBRANCH  19  22
ENDBRANCH  18  19
ENDBRANCH   1  18
TORSDOF 6
