REMARK  Name = ZINC09209256
REMARK  8 active torsions:
REMARK  status: ('A' for Active; 'I' for Inactive)
REMARK    1  A    between atoms: C_1  and  C_2
REMARK    2  A    between atoms: C_2  and  C_4
REMARK    3  A    between atoms: C_2  and  S_19
REMARK    4  A    between atoms: C_16  and  C_17
REMARK    5  A    between atoms: C_16  and  C_18
REMARK    6  A    between atoms: S_19  and  C_20
REMARK    7  A    between atoms: C_23  and  C_31
REMARK    8  A    between atoms: N_24  and  C_25
REMARK                            x       y       z     vdW  Elec       q    Type
REMARK                         _______ _______ _______ _____ _____    ______ ____
ROOT
ATOM      1  C   UNL     1       0.276  -1.807   4.098  0.00  0.00    +0.029 C 
ATOM      2  C   UNL     1       1.251  -0.736   3.604  0.00  0.00    +0.137 C 
ENDROOT
BRANCH   2   3
ATOM      3  C   UNL     1       0.618   0.039   2.478  0.00  0.00    +0.234 C 
ATOM      4  O   UNL     1       0.611  -0.420   1.355  0.00  0.00    -0.274 OA
ATOM      5  N   UNL     1       0.060   1.242   2.717  0.00  0.00    -0.255 N 
ATOM      6  C   UNL     1       0.062   1.797   4.007  0.00  0.00    +0.059 A 
ATOM      7  C   UNL     1       0.052   0.992   5.131  0.00  0.00    +0.025 A 
ATOM      8  C   UNL     1       0.050   1.570   6.389  0.00  0.00    +0.002 A 
ATOM      9  C   UNL     1       0.057   2.946   6.522  0.00  0.00    +0.002 A 
ATOM     10  C   UNL     1       0.068   3.756   5.401  0.00  0.00    +0.025 A 
ATOM     11  C   UNL     1       0.072   3.187   4.138  0.00  0.00    +0.055 A 
ATOM     12  N   UNL     1       0.089   3.989   2.991  0.00  0.00    -0.282 N 
ATOM     13  C   UNL     1      -0.185   3.466   1.782  0.00  0.00    +0.241 C 
ATOM     14  O   UNL     1      -0.121   4.170   0.796  0.00  0.00    -0.273 OA
ATOM     15  C   UNL     1      -0.570   2.015   1.637  0.00  0.00    +0.113 C 
ATOM     16  C   UNL     1      -0.087   1.490   0.283  0.00  0.00    +0.042 C 
ATOM     17  C   UNL     1      -2.091   1.876   1.727  0.00  0.00    +0.042 C 
ATOM     18  H   UNL     1       0.329   5.059   3.072  0.00  0.00    +0.155 HD
ENDBRANCH   2   3
BRANCH   2  19
ATOM     19  S   UNL     1       2.769  -1.527   3.015  0.00  0.00    -0.073 S 
BRANCH  19  20
ATOM     20  C   UNL     1       3.362  -2.214   4.525  0.00  0.00    +0.197 A 
ATOM     21  N   UNL     1       2.790  -2.116   5.704  0.00  0.00    -0.122 NA
ATOM     22  N   UNL     1       3.486  -2.736   6.588  0.00  0.00    -0.125 NA
ATOM     23  C   UNL     1       4.555  -3.263   6.031  0.00  0.00    +0.205 A 
ATOM     24  N   UNL     1       4.509  -2.944   4.690  0.00  0.00    -0.268 N 
BRANCH  24  25
ATOM     25  C   UNL     1       5.440  -3.295   3.702  0.00  0.00    +0.051 A 
ATOM     26  C   UNL     1       5.628  -4.629   3.367  0.00  0.00    +0.026 A 
ATOM     27  C   UNL     1       6.542  -4.972   2.389  0.00  0.00    +0.002 A 
ATOM     28  C   UNL     1       7.277  -3.988   1.753  0.00  0.00    +0.000 A 
ATOM     29  C   UNL     1       7.095  -2.659   2.089  0.00  0.00    +0.002 A 
ATOM     30  C   UNL     1       6.179  -2.310   3.062  0.00  0.00    +0.026 A 
ENDBRANCH  24  25
BRANCH  23  31
ATOM     31  C   UNL     1       5.601  -4.043   6.710  0.00  0.00    +0.172 A 
ATOM     32  C   UNL     1       5.803  -4.111   8.056  0.00  0.00    +0.053 A 
ATOM     33  C   UNL     1       6.902  -4.968   8.258  0.00  0.00    +0.042 A 
ATOM     34  C   UNL     1       7.319  -5.371   7.042  0.00  0.00    +0.196 A 
ATOM     35  O   UNL     1       6.531  -4.811   6.109  0.00  0.00    -0.460 OA
ENDBRANCH  23  31
ENDBRANCH  19  20
ENDBRANCH   2  19
TORSDOF 5
