REMARK  Name = ZINC36559767
REMARK  11 active torsions:
REMARK  status: ('A' for Active; 'I' for Inactive)
REMARK    1  A    between atoms: C_1  and  C_2
REMARK    2  A    between atoms: C_2  and  C_3
REMARK    3  A    between atoms: C_3  and  N_4
REMARK    4  A    between atoms: N_4  and  C_5
REMARK    5  A    between atoms: C_5  and  C_7
REMARK    6  A    between atoms: C_5  and  C_16
REMARK    7  A    between atoms: C_10  and  N_13
REMARK    8  A    between atoms: N_18  and  C_19
REMARK    9  A    between atoms: C_25  and  C_27
REMARK   10  A    between atoms: C_27  and  C_35
REMARK   11  A    between atoms: C_28  and  C_29
REMARK                            x       y       z     vdW  Elec       q    Type
REMARK                         _______ _______ _______ _____ _____    ______ ____
ROOT
ATOM      1  N   UNL     1       0.024  -2.484  -0.557  0.00  0.00    -0.282 N 
ATOM      2  C   UNL     1       1.289  -2.914  -0.381  0.00  0.00    +0.248 C 
ATOM      3  O   UNL     1       1.764  -3.734  -1.143  0.00  0.00    -0.270 OA
ENDROOT
BRANCH   2   4
ATOM      4  C   UNL     1       2.095  -2.391   0.735  0.00  0.00    +0.045 C 
ATOM      5  C   UNL     1       2.707  -3.251   1.593  0.00  0.00    +0.021 C 
BRANCH   5   6
ATOM      6  C   UNL     1       3.627  -2.736   2.616  0.00  0.00    -0.024 A 
ATOM      7  C   UNL     1       3.647  -3.305   3.895  0.00  0.00    +0.008 A 
ATOM      8  C   UNL     1       4.514  -2.817   4.849  0.00  0.00    +0.001 A 
ATOM      9  C   UNL     1       5.364  -1.767   4.545  0.00  0.00    +0.000 A 
ATOM     10  C   UNL     1       5.350  -1.198   3.283  0.00  0.00    +0.001 A 
ATOM     11  C   UNL     1       4.493  -1.679   2.316  0.00  0.00    +0.008 A 
ENDBRANCH   5   6
BRANCH   4  12
ATOM     12  C   UNL     1       2.241  -0.929   0.922  0.00  0.00    -0.013 A 
ATOM     13  C   UNL     1       1.942  -0.348   2.154  0.00  0.00    +0.008 A 
ATOM     14  C   UNL     1       2.080   1.014   2.322  0.00  0.00    +0.001 A 
ATOM     15  C   UNL     1       2.513   1.804   1.272  0.00  0.00    +0.000 A 
ATOM     16  C   UNL     1       2.809   1.233   0.047  0.00  0.00    +0.001 A 
ATOM     17  C   UNL     1       2.682  -0.129  -0.132  0.00  0.00    +0.008 A 
ENDBRANCH   4  12
ENDBRANCH   2   4
BRANCH   1  18
ATOM     18  C   UNL     1      -0.520  -1.433   0.307  0.00  0.00    +0.109 C 
BRANCH  18  20
ATOM     19  C   UNL     1      -1.498  -0.946   2.554  0.00  0.00    +0.005 C 
ATOM     20  C   UNL     1      -0.854  -2.023   1.679  0.00  0.00    +0.016 C 
ENDBRANCH  18  20
ENDBRANCH   1  18
BRANCH   1  21
ATOM     21  C   UNL     1      -0.807  -3.067  -1.613  0.00  0.00    +0.192 C 
BRANCH  21  22
ATOM     22  C   UNL     1      -0.709  -2.220  -2.855  0.00  0.00    -0.018 A 
ATOM     23  C   UNL     1      -0.625  -0.844  -2.748  0.00  0.00    +0.008 A 
ATOM     24  C   UNL     1      -0.535  -0.067  -3.888  0.00  0.00    +0.033 A 
ATOM     25  C   UNL     1      -0.529  -0.665  -5.134  0.00  0.00    +0.126 A 
ATOM     26  C   UNL     1      -0.612  -2.041  -5.241  0.00  0.00    +0.033 A 
ATOM     27  C   UNL     1      -0.697  -2.819  -4.101  0.00  0.00    +0.008 A 
BRANCH  25  28
ATOM     28  N   UNL     1      -0.433   0.167  -6.354  0.00  0.00    +0.056 N 
ATOM     29  O   UNL     1      -0.361   1.370  -6.261  0.00  0.00    -0.126 OA
ATOM     30  O   UNL     1      -0.427  -0.356  -7.444  0.00  0.00    -0.126 OA
ENDBRANCH  25  28
ENDBRANCH  21  22
BRANCH  21  31
ATOM     31  C   UNL     1      -2.241  -3.119  -1.152  0.00  0.00    +0.238 C 
ATOM     32  O   UNL     1      -2.554  -2.628  -0.088  0.00  0.00    -0.273 OA
ATOM     33  N   UNL     1      -3.176  -3.710  -1.922  0.00  0.00    -0.311 N 
ATOM     34  H   UNL     1      -2.925  -4.102  -2.773  0.00  0.00    +0.149 HD
BRANCH  33  35
ATOM     35  C   UNL     1      -4.570  -3.760  -1.474  0.00  0.00    +0.073 C 
ATOM     36  C   UNL     1      -4.768  -4.971  -0.560  0.00  0.00    +0.022 C 
ATOM     37  C   UNL     1      -6.224  -5.023  -0.093  0.00  0.00    +0.002 C 
ATOM     38  C   UNL     1      -7.146  -5.145  -1.308  0.00  0.00    +0.000 C 
ATOM     39  C   UNL     1      -6.948  -3.934  -2.222  0.00  0.00    +0.002 C 
ATOM     40  C   UNL     1      -5.492  -3.882  -2.689  0.00  0.00    +0.022 C 
ENDBRANCH  33  35
ENDBRANCH  21  31
ENDBRANCH   1  21
TORSDOF 10
