REMARK  Name = ZINC03300374
REMARK  6 active torsions:
REMARK  status: ('A' for Active; 'I' for Inactive)
REMARK    1  A    between atoms: C_11  and  N_12
REMARK    2  A    between atoms: N_12  and  N_13
REMARK    3  A    between atoms: C_14  and  C_16
REMARK    4  A    between atoms: C_21  and  O_22
REMARK    5  A    between atoms: O_22  and  C_23
REMARK    6  A    between atoms: C_23  and  C_24
REMARK                            x       y       z     vdW  Elec       q    Type
REMARK                         _______ _______ _______ _____ _____    ______ ____
ROOT
ATOM      1  N   UNL     1       5.920  -1.100   0.742  0.00  0.00    -0.232 N 
ATOM      2  C   UNL     1       6.916  -0.803   1.599  0.00  0.00    +0.264 C 
ATOM      3  O   UNL     1       6.768   0.079   2.422  0.00  0.00    -0.269 OA
ATOM      4  H   UNL     1       6.038  -1.804   0.086  0.00  0.00    +0.173 HD
ENDROOT
BRANCH   2   5
ATOM      5  C   UNL     1       8.188  -1.549   1.539  0.00  0.00    +0.080 A 
ATOM      6  C   UNL     1       8.365  -2.560   0.591  0.00  0.00    +0.017 A 
ATOM      7  C   UNL     1       9.556  -3.252   0.540  0.00  0.00    +0.001 A 
ATOM      8  C   UNL     1      10.578  -2.951   1.424  0.00  0.00    +0.004 A 
ATOM      9  C   UNL     1      10.416  -1.954   2.366  0.00  0.00    +0.046 A 
ATOM     10  C   UNL     1       9.227  -1.243   2.428  0.00  0.00    +0.133 A 
BRANCH  10  11
ATOM     11  O   UNL     1       9.068  -0.260   3.349  0.00  0.00    -0.487 OA
BRANCH  11  12
ATOM     12  C   UNL     1      10.171  -0.005   4.222  0.00  0.00    +0.266 C 
BRANCH  12  13
ATOM     13  C   UNL     1       9.813   1.111   5.170  0.00  0.00    +0.008 A 
ATOM     14  C   UNL     1       8.567   1.706   5.099  0.00  0.00    +0.008 A 
ATOM     15  C   UNL     1       8.239   2.729   5.968  0.00  0.00    +0.000 A 
ATOM     16  C   UNL     1       9.157   3.159   6.908  0.00  0.00    +0.001 A 
ATOM     17  C   UNL     1      10.403   2.566   6.980  0.00  0.00    +0.020 A 
ATOM     18  C   UNL     1      10.730   1.537   6.114  0.00  0.00    +0.047 A 
ATOM     19 CL   UNL     1      12.292   0.786   6.208  0.00  0.00    -0.083 Cl
ENDBRANCH  12  13
ENDBRANCH  11  12
ENDBRANCH  10  11
ENDBRANCH   2   5
BRANCH   1  20
ATOM     20  N   UNL     1       4.712  -0.392   0.800  0.00  0.00    -0.264 N 
ATOM     21  H   UNL     1       4.593   0.312   1.456  0.00  0.00    +0.170 HD
BRANCH  20  32
ATOM     22  C   UNL     1      -0.017   1.380   0.010  0.00  0.00    +0.000 A 
ATOM     23  C   UNL     1       1.167   2.096   0.002  0.00  0.00    +0.001 A 
ATOM     24  C   UNL     1       2.379   1.434  -0.023  0.00  0.00    +0.010 A 
ATOM     25  C   UNL     1       2.401   0.043  -0.035  0.00  0.00    +0.000 A 
ATOM     26  C   UNL     1       1.207  -0.674  -0.010  0.00  0.00    -0.038 A 
ATOM     27  C   UNL     1       0.002  -0.004   0.002  0.00  0.00    +0.004 A 
ATOM     28  C   UNL     1       1.254  -2.178   0.031  0.00  0.00    +0.036 C 
ATOM     29  C   UNL     1       1.597  -2.740  -1.346  0.00  0.00    +0.009 C 
ATOM     30  C   UNL     1       2.733  -1.942  -1.981  0.00  0.00    +0.029 C 
ATOM     31  C   UNL     1       3.835  -1.667  -0.994  0.00  0.00    -0.002 C 
ATOM     32  C   UNL     1       3.680  -0.700  -0.088  0.00  0.00    +0.048 C 
ENDBRANCH  20  32
ENDBRANCH   1  20
TORSDOF 6
