REMARK  Name = ZINC09481250
REMARK  6 active torsions:
REMARK  status: ('A' for Active; 'I' for Inactive)
REMARK    1  A    between atoms: C_1  and  C_2
REMARK    2  A    between atoms: N_5  and  C_7
REMARK    3  A    between atoms: C_18  and  C_20
REMARK    4  A    between atoms: C_23  and  O_28
REMARK    5  A    between atoms: C_24  and  O_26
REMARK    6  A    between atoms: O_26  and  C_27
REMARK                            x       y       z     vdW  Elec       q    Type
REMARK                         _______ _______ _______ _____ _____    ______ ____
ROOT
ATOM      1  C   UNL     1       0.198   1.498  -0.000  0.00  0.00    +0.068 C 
ATOM      2  C   UNL     1       0.100  -0.006  -0.003  0.00  0.00    +0.066 A 
ATOM      3  C   UNL     1      -0.079  -0.807  -1.121  0.00  0.00    +0.023 A 
ATOM      4  C   UNL     1      -0.112  -2.112  -0.706  0.00  0.00    +0.133 A 
ATOM      5  N   UNL     1       0.032  -2.117   0.635  0.00  0.00    -0.216 N 
ATOM      6  N   UNL     1       0.173  -0.783   1.053  0.00  0.00    -0.170 NA
ATOM      7  N   UNL     1      -0.261  -3.168  -1.604  0.00  0.00    -0.270 N 
ATOM      8  C   UNL     1      -0.170  -2.897  -2.924  0.00  0.00    +0.219 C 
ATOM      9  O   UNL     1      -0.481  -3.756  -3.722  0.00  0.00    -0.275 OA
ATOM     10  C   UNL     1       0.305  -1.567  -3.434  0.00  0.00    +0.109 C 
ATOM     11  C   UNL     1      -0.226  -0.418  -2.570  0.00  0.00    +0.063 C 
ATOM     12  H   UNL     1      -0.425  -4.071  -1.290  0.00  0.00    +0.156 HD
ENDROOT
BRANCH   5  13
ATOM     13  C   UNL     1       0.044  -3.249   1.462  0.00  0.00    +0.086 A 
ATOM     14  C   UNL     1       0.833  -4.343   1.133  0.00  0.00    +0.029 A 
ATOM     15  C   UNL     1       0.843  -5.457   1.949  0.00  0.00    +0.002 A 
ATOM     16  C   UNL     1       0.069  -5.484   3.094  0.00  0.00    +0.002 A 
ATOM     17  C   UNL     1      -0.719  -4.397   3.426  0.00  0.00    +0.022 A 
ATOM     18  C   UNL     1      -0.728  -3.276   2.617  0.00  0.00    +0.066 A 
ATOM     19 CL   UNL     1      -1.710  -1.908   3.038  0.00  0.00    -0.081 Cl
ENDBRANCH   5  13
BRANCH  11  20
ATOM     20  C   UNL     1       0.570   0.833  -2.843  0.00  0.00    -0.036 A 
ATOM     21  C   UNL     1       1.937   0.838  -2.641  0.00  0.00    +0.008 A 
ATOM     22  C   UNL     1       2.672   1.982  -2.890  0.00  0.00    +0.049 A 
ATOM     23  C   UNL     1       2.037   3.127  -3.344  0.00  0.00    +0.158 A 
ATOM     24  C   UNL     1       0.661   3.122  -3.549  0.00  0.00    +0.162 A 
ATOM     25  C   UNL     1      -0.069   1.970  -3.301  0.00  0.00    +0.053 A 
BRANCH  24  26
ATOM     26  O   UNL     1       0.033   4.243  -3.994  0.00  0.00    -0.491 OA
ATOM     27  C   UNL     1      -1.381   4.164  -4.182  0.00  0.00    +0.277 C 
ENDBRANCH  24  26
BRANCH  23  28
ATOM     28  O   UNL     1       2.758   4.254  -3.589  0.00  0.00    -0.503 OA
ATOM     29  H   UNL     1       3.092   4.319  -4.495  0.00  0.00    +0.292 HD
ENDBRANCH  23  28
ENDBRANCH  11  20
TORSDOF 4
