REMARK  Name = ZINC36353497
REMARK  2 active torsions:
REMARK  status: ('A' for Active; 'I' for Inactive)
REMARK    1  A    between atoms: N_9  and  C_21
REMARK    2  A    between atoms: C_21  and  C_22
REMARK                            x       y       z     vdW  Elec       q    Type
REMARK                         _______ _______ _______ _____ _____    ______ ____
ROOT
ATOM      1  C   UNL     1      -0.964   0.825  -0.009  0.00  0.00    +0.001 A 
ATOM      2  C   UNL     1       0.071   1.741  -0.116  0.00  0.00    +0.002 A 
ATOM      3  C   UNL     1       1.383   1.312  -0.192  0.00  0.00    +0.024 A 
ATOM      4  C   UNL     1       1.663  -0.043  -0.159  0.00  0.00    +0.041 A 
ATOM      5  C   UNL     1       0.617  -0.975  -0.041  0.00  0.00    +0.058 A 
ATOM      6  C   UNL     1      -0.701  -0.528   0.028  0.00  0.00    +0.015 A 
ATOM      7  C   UNL     1       0.948  -2.409   0.022  0.00  0.00    +0.251 C 
ATOM      8  O   UNL     1       0.068  -3.246  -0.039  0.00  0.00    -0.270 OA
ATOM      9  N   UNL     1       2.238  -2.786   0.147  0.00  0.00    -0.260 N 
ATOM     10  C   UNL     1       3.289  -1.802   0.388  0.00  0.00    +0.208 C 
ATOM     11  N   UNL     1       2.966  -0.523  -0.248  0.00  0.00    -0.312 N 
ATOM     12  C   UNL     1       3.527  -1.619   1.855  0.00  0.00    +0.024 A 
ATOM     13  C   UNL     1       2.701  -1.177   2.865  0.00  0.00    +0.010 A 
ATOM     14  C   UNL     1       3.243  -1.123   4.144  0.00  0.00    +0.001 A 
ATOM     15  C   UNL     1       4.549  -1.496   4.388  0.00  0.00    +0.002 A 
ATOM     16  C   UNL     1       5.385  -1.943   3.377  0.00  0.00    +0.024 A 
ATOM     17  C   UNL     1       4.854  -2.001   2.088  0.00  0.00    +0.041 A 
ATOM     18  N   UNL     1       5.454  -2.402   0.908  0.00  0.00    -0.282 N 
ATOM     19  C   UNL     1       4.611  -2.318  -0.143  0.00  0.00    +0.264 C 
ATOM     20  O   UNL     1       4.864  -2.602  -1.294  0.00  0.00    -0.271 OA
ATOM     21  H   UNL     1       3.647  -0.019  -0.721  0.00  0.00    +0.149 HD
ATOM     22  H   UNL     1       6.373  -2.706   0.843  0.00  0.00    +0.155 HD
ENDROOT
BRANCH   9  23
ATOM     23  C   UNL     1       2.588  -4.205   0.041  0.00  0.00    +0.146 C 
BRANCH  23  24
ATOM     24  C   UNL     1       2.452  -4.858   1.392  0.00  0.00    -0.026 A 
ATOM     25  C   UNL     1       3.560  -4.991   2.208  0.00  0.00    +0.009 A 
ATOM     26  C   UNL     1       3.441  -5.589   3.449  0.00  0.00    +0.050 A 
ATOM     27  C   UNL     1       2.209  -6.058   3.877  0.00  0.00    +0.166 A 
ATOM     28  C   UNL     1       1.093  -5.925   3.054  0.00  0.00    +0.167 A 
ATOM     29  C   UNL     1       1.219  -5.319   1.815  0.00  0.00    +0.054 A 
ATOM     30  O   UNL     1       0.013  -6.459   3.695  0.00  0.00    -0.453 OA
ATOM     31  C   UNL     1       0.556  -7.285   4.741  0.00  0.00    +0.466 C 
ATOM     32  O   UNL     1       1.828  -6.676   5.032  0.00  0.00    -0.453 OA
ENDBRANCH  23  24
ENDBRANCH   9  23
TORSDOF 2
