REMARK  Name = ZINC21241760
REMARK  10 active torsions:
REMARK  status: ('A' for Active; 'I' for Inactive)
REMARK    1  A    between atoms: C_1  and  C_2
REMARK    2  A    between atoms: C_2  and  C_3
REMARK    3  A    between atoms: C_3  and  O_4
REMARK    4  A    between atoms: O_4  and  C_5
REMARK    5  A    between atoms: C_8  and  C_11
REMARK    6  A    between atoms: C_16  and  C_21
REMARK    7  A    between atoms: C_24  and  O_27
REMARK    8  A    between atoms: O_27  and  C_28
REMARK    9  A    between atoms: C_28  and  C_29
REMARK   10  A    between atoms: C_28  and  C_30
REMARK                            x       y       z     vdW  Elec       q    Type
REMARK                         _______ _______ _______ _____ _____    ______ ____
ROOT
ATOM      1  C   UNL     1      -5.938  10.188  -0.497  0.00  0.00    +0.136 C 
ATOM      2  C   UNL     1      -4.940   9.082  -0.249  0.00  0.00    +0.036 C 
ATOM      3  C   UNL     1      -3.655   9.244   0.108  0.00  0.00    +0.017 C 
ATOM      4  C   UNL     1      -2.756   8.038   0.325  0.00  0.00    +0.059 C 
ATOM      5  C   UNL     1      -3.578   6.865   0.856  0.00  0.00    +0.032 C 
ATOM      6  C   UNL     1      -4.661   6.545  -0.181  0.00  0.00    +0.088 C 
ATOM      7  C   UNL     1      -5.473   7.782  -0.419  0.00  0.00    +0.163 C 
ATOM      8  O   UNL     1      -6.631   7.665  -0.769  0.00  0.00    -0.292 OA
ATOM      9  N   UNL     1      -3.050  10.445   0.294  0.00  0.00    -0.316 N 
ATOM     10  C   UNL     1      -3.585  11.502   1.021  0.00  0.00    +0.052 A 
ATOM     11  C   UNL     1      -2.973  12.005   2.155  0.00  0.00    +0.025 A 
ATOM     12  C   UNL     1      -3.496  13.132   2.767  0.00  0.00    +0.002 A 
ATOM     13  C   UNL     1      -4.621  13.747   2.249  0.00  0.00    +0.002 A 
ATOM     14  C   UNL     1      -5.248  13.232   1.127  0.00  0.00    +0.025 A 
ATOM     15  C   UNL     1      -4.737  12.094   0.524  0.00  0.00    +0.049 A 
ATOM     16  N   UNL     1      -5.359  11.512  -0.579  0.00  0.00    -0.331 N 
ATOM     17  H   UNL     1      -2.060  10.636  -0.147  0.00  0.00    +0.152 HD
ATOM     18  H   UNL     1      -5.405  12.075  -1.523  0.00  0.00    +0.147 HD
ENDROOT
BRANCH   1  22
ATOM     19  C   UNL     1      -8.797  10.167   2.679  0.00  0.00    +0.121 A 
ATOM     20  C   UNL     1      -9.210   9.961   1.371  0.00  0.00    +0.046 A 
ATOM     21  C   UNL     1      -8.284   9.968   0.346  0.00  0.00    +0.009 A 
ATOM     22  C   UNL     1      -6.946  10.181   0.623  0.00  0.00    -0.023 A 
ATOM     23  C   UNL     1      -6.531  10.381   1.927  0.00  0.00    +0.009 A 
ATOM     24  C   UNL     1      -7.454  10.380   2.954  0.00  0.00    +0.046 A 
BRANCH  19  25
ATOM     25  O   UNL     1      -9.707  10.161   3.689  0.00  0.00    -0.492 OA
BRANCH  25  26
ATOM     26  C   UNL     1      -9.210  10.379   5.011  0.00  0.00    +0.229 C 
BRANCH  26  28
ATOM     27  C   UNL     1      -9.840  10.572   7.421  0.00  0.00    +0.007 C 
ATOM     28  C   UNL     1     -10.372  10.337   6.005  0.00  0.00    +0.038 C 
ENDBRANCH  26  28
ENDBRANCH  25  26
ENDBRANCH  19  25
ENDBRANCH   1  22
BRANCH   5  29
ATOM     29  C   UNL     1      -2.687   5.665   1.050  0.00  0.00    -0.043 A 
ATOM     30  C   UNL     1      -2.567   5.091   2.303  0.00  0.00    +0.007 A 
ATOM     31  C   UNL     1      -1.751   3.991   2.484  0.00  0.00    +0.046 A 
ATOM     32  C   UNL     1      -1.052   3.462   1.408  0.00  0.00    +0.121 A 
ATOM     33  C   UNL     1      -1.170   4.043   0.154  0.00  0.00    +0.046 A 
ATOM     34  C   UNL     1      -1.992   5.139  -0.023  0.00  0.00    +0.007 A 
BRANCH  32  35
ATOM     35  O   UNL     1      -0.249   2.380   1.584  0.00  0.00    -0.489 OA
BRANCH  35  36
ATOM     36  C   UNL     1      -0.077   1.910   2.922  0.00  0.00    +0.167 C 
ATOM     37  C   UNL     1       1.251   1.157   3.032  0.00  0.00    +0.051 C 
ATOM     38  C   UNL     1      -1.228   0.969   3.284  0.00  0.00    +0.051 C 
ENDBRANCH  35  36
ENDBRANCH  32  35
ENDBRANCH   5  29
TORSDOF 7
