REMARK  Name = ZINC04733527
REMARK  7 active torsions:
REMARK  status: ('A' for Active; 'I' for Inactive)
REMARK    1  A    between atoms: C_1  and  C_2
REMARK    2  A    between atoms: C_7  and  C_19
REMARK    3  A    between atoms: C_8  and  N_11
REMARK    4  A    between atoms: N_11  and  C_12
REMARK    5  A    between atoms: C_22  and  O_27
REMARK    6  A    between atoms: C_23  and  O_25
REMARK    7  A    between atoms: O_25  and  C_26
REMARK                            x       y       z     vdW  Elec       q    Type
REMARK                         _______ _______ _______ _____ _____    ______ ____
ROOT
ATOM      1  C   UNL     1       3.819  -0.181   0.445  0.00  0.00    +0.045 C 
ATOM      2  C   UNL     1       2.684  -1.162   0.301  0.00  0.00    -0.034 A 
ATOM      3  C   UNL     1       2.371  -1.689  -0.964  0.00  0.00    +0.008 A 
ATOM      4  C   UNL     1       1.347  -2.574  -1.093  0.00  0.00    +0.045 A 
ATOM      5  C   UNL     1       0.612  -2.952   0.050  0.00  0.00    +0.117 A 
ATOM      6  N   UNL     1      -0.411  -3.776   0.211  0.00  0.00    -0.338 N 
ATOM      7  C   UNL     1      -0.763  -3.800   1.509  0.00  0.00    +0.087 A 
ATOM      8  C   UNL     1       0.079  -2.950   2.195  0.00  0.00    +0.133 A 
ATOM      9  N   UNL     1       0.942  -2.420   1.275  0.00  0.00    -0.289 N 
ATOM     10  C   UNL     1       1.978  -1.534   1.388  0.00  0.00    +0.097 A 
ATOM     11  H   UNL     1      -0.840  -4.283  -0.497  0.00  0.00    +0.167 HD
ENDROOT
BRANCH   7  12
ATOM     12  C   UNL     1      -1.864  -4.598   2.098  0.00  0.00    +0.005 A 
ATOM     13  C   UNL     1      -2.743  -4.012   3.007  0.00  0.00    +0.014 A 
ATOM     14  C   UNL     1      -3.768  -4.756   3.555  0.00  0.00    +0.050 A 
ATOM     15  C   UNL     1      -3.926  -6.088   3.204  0.00  0.00    +0.158 A 
ATOM     16  C   UNL     1      -3.051  -6.680   2.296  0.00  0.00    +0.162 A 
ATOM     17  C   UNL     1      -2.026  -5.936   1.740  0.00  0.00    +0.059 A 
BRANCH  16  18
ATOM     18  O   UNL     1      -3.208  -7.986   1.954  0.00  0.00    -0.491 OA
ATOM     19  C   UNL     1      -2.273  -8.528   1.017  0.00  0.00    +0.277 C 
ENDBRANCH  16  18
BRANCH  15  20
ATOM     20  O   UNL     1      -4.937  -6.818   3.746  0.00  0.00    -0.503 OA
ATOM     21  H   UNL     1      -5.759  -6.791   3.237  0.00  0.00    +0.292 HD
ENDBRANCH  15  20
ENDBRANCH   7  12
BRANCH   8  22
ATOM     22  N   UNL     1       0.056  -2.683   3.565  0.00  0.00    -0.299 N 
ATOM     23  H   UNL     1       0.404  -3.336   4.192  0.00  0.00    +0.154 HD
BRANCH  22  24
ATOM     24  C   UNL     1      -0.470  -1.477   4.032  0.00  0.00    +0.032 A 
ATOM     25  C   UNL     1      -1.093  -0.601   3.151  0.00  0.00    +0.025 A 
ATOM     26  C   UNL     1      -1.612   0.591   3.616  0.00  0.00    +0.022 A 
ATOM     27  C   UNL     1      -1.511   0.915   4.958  0.00  0.00    +0.041 A 
ATOM     28  C   UNL     1      -0.890   0.045   5.838  0.00  0.00    +0.022 A 
ATOM     29  C   UNL     1      -0.375  -1.151   5.380  0.00  0.00    +0.025 A 
ATOM     30 CL   UNL     1      -2.164   2.415   5.539  0.00  0.00    -0.084 Cl
ENDBRANCH  22  24
ENDBRANCH   8  22
TORSDOF 5
