REMARK  Name = ZINC36497868
REMARK  9 active torsions:
REMARK  status: ('A' for Active; 'I' for Inactive)
REMARK    1  A    between atoms: C_4  and  O_34
REMARK    2  A    between atoms: C_5  and  C_7
REMARK    3  A    between atoms: C_7  and  C_9
REMARK    4  A    between atoms: C_7  and  N_18
REMARK    5  A    between atoms: N_11  and  C_12
REMARK    6  A    between atoms: N_18  and  C_19
REMARK    7  A    between atoms: C_19  and  C_20
REMARK    8  A    between atoms: C_25  and  C_27
REMARK    9  A    between atoms: C_32  and  O_33
REMARK                            x       y       z     vdW  Elec       q    Type
REMARK                         _______ _______ _______ _____ _____    ______ ____
ROOT
ATOM      1  C   UNL     1       1.664  -2.188  -0.131  0.00  0.00    +0.196 C 
ENDROOT
BRANCH   1   6
ATOM      2  C   UNL     1      -1.559  -0.719  -1.438  0.00  0.00    +0.001 A 
ATOM      3  C   UNL     1      -1.128  -0.074  -2.583  0.00  0.00    +0.004 A 
ATOM      4  C   UNL     1       0.206  -0.112  -2.937  0.00  0.00    +0.046 A 
ATOM      5  C   UNL     1       1.115  -0.797  -2.143  0.00  0.00    +0.122 A 
ATOM      6  C   UNL     1       0.680  -1.443  -0.995  0.00  0.00    +0.023 A 
ATOM      7  C   UNL     1      -0.656  -1.403  -0.645  0.00  0.00    +0.009 A 
BRANCH   5   8
ATOM      8  O   UNL     1       2.428  -0.836  -2.490  0.00  0.00    -0.506 OA
ATOM      9  H   UNL     1       2.953  -0.113  -2.123  0.00  0.00    +0.292 HD
ENDBRANCH   5   8
ENDBRANCH   1   6
BRANCH   1  10
ATOM     10  C   UNL     1       2.618  -2.960  -1.006  0.00  0.00    +0.238 C 
ATOM     11  O   UNL     1       2.334  -4.081  -1.372  0.00  0.00    -0.273 OA
ATOM     12  N   UNL     1       3.786  -2.404  -1.383  0.00  0.00    -0.311 N 
ATOM     13  H   UNL     1       4.013  -1.508  -1.091  0.00  0.00    +0.149 HD
BRANCH  12  14
ATOM     14  C   UNL     1       4.713  -3.154  -2.234  0.00  0.00    +0.073 C 
ATOM     15  C   UNL     1       5.591  -4.054  -1.363  0.00  0.00    +0.022 C 
ATOM     16  C   UNL     1       6.559  -4.837  -2.251  0.00  0.00    +0.002 C 
ATOM     17  C   UNL     1       7.444  -3.860  -3.027  0.00  0.00    +0.000 C 
ATOM     18  C   UNL     1       6.566  -2.959  -3.899  0.00  0.00    +0.002 C 
ATOM     19  C   UNL     1       5.598  -2.176  -3.010  0.00  0.00    +0.022 C 
ENDBRANCH  12  14
ENDBRANCH   1  10
BRANCH   1  20
ATOM     20  N   UNL     1       0.942  -3.118   0.741  0.00  0.00    -0.274 N 
ATOM     21  C   UNL     1       1.093  -3.042   2.079  0.00  0.00    +0.251 C 
ATOM     22  O   UNL     1       0.828  -4.003   2.775  0.00  0.00    -0.270 OA
BRANCH  21  23
ATOM     23  C   UNL     1       1.579  -1.794   2.697  0.00  0.00    +0.078 A 
ATOM     24  C   UNL     1       1.400  -0.571   2.045  0.00  0.00    +0.017 A 
ATOM     25  C   UNL     1       1.856   0.591   2.628  0.00  0.00    +0.001 A 
ATOM     26  C   UNL     1       2.492   0.553   3.858  0.00  0.00    +0.004 A 
ATOM     27  C   UNL     1       2.676  -0.648   4.513  0.00  0.00    +0.046 A 
ATOM     28  C   UNL     1       2.218  -1.828   3.943  0.00  0.00    +0.129 A 
BRANCH  28  29
ATOM     29  O   UNL     1       2.393  -3.008   4.588  0.00  0.00    -0.506 OA
ATOM     30  H   UNL     1       3.224  -3.455   4.372  0.00  0.00    +0.292 HD
ENDBRANCH  28  29
ENDBRANCH  21  23
BRANCH  20  31
ATOM     31  C   UNL     1       0.055  -4.129   0.160  0.00  0.00    +0.183 C 
BRANCH  31  32
ATOM     32  C   UNL     1       0.541  -5.503   0.543  0.00  0.00    +0.122 A 
ATOM     33  C   UNL     1       0.118  -6.221   1.599  0.00  0.00    +0.046 A 
ATOM     34  C   UNL     1       0.834  -7.440   1.579  0.00  0.00    +0.041 A 
ATOM     35  C   UNL     1       1.651  -7.394   0.512  0.00  0.00    +0.195 A 
ATOM     36  O   UNL     1       1.465  -6.221  -0.115  0.00  0.00    -0.466 OA
ENDBRANCH  31  32
ENDBRANCH  20  31
ENDBRANCH   1  20
TORSDOF 9
