REMARK  Name = ZINC02776114
REMARK  7 active torsions:
REMARK  status: ('A' for Active; 'I' for Inactive)
REMARK    1  A    between atoms: C_1  and  C_2
REMARK    2  A    between atoms: C_2  and  O_3
REMARK    3  A    between atoms: O_3  and  C_4
REMARK    4  A    between atoms: C_6  and  C_15
REMARK    5  A    between atoms: C_9  and  O_10
REMARK    6  A    between atoms: O_10  and  C_11
REMARK    7  A    between atoms: C_11  and  C_12
REMARK                            x       y       z     vdW  Elec       q    Type
REMARK                         _______ _______ _______ _____ _____    ______ ____
ROOT
ATOM      1  C   UNL     1       2.489   1.045  -0.016  0.00  0.00    +0.060 C 
ATOM      2  C   UNL     1       3.298   1.418   1.227  0.00  0.00    +0.109 C 
ATOM      3  C   UNL     1       3.804   2.831   1.095  0.00  0.00    +0.218 C 
ATOM      4  O   UNL     1       3.845   3.550   2.071  0.00  0.00    -0.275 OA
ATOM      5  N   UNL     1       4.211   3.300  -0.097  0.00  0.00    -0.285 N 
ATOM      6  C   UNL     1       4.075   2.531  -1.256  0.00  0.00    +0.038 A 
ATOM      7  C   UNL     1       3.260   1.421  -1.255  0.00  0.00    -0.011 A 
ATOM      8  C   UNL     1       3.146   0.641  -2.416  0.00  0.00    -0.012 A 
ATOM      9  C   UNL     1       2.349  -0.517  -2.441  0.00  0.00    +0.009 A 
ATOM     10  C   UNL     1       2.262  -1.250  -3.584  0.00  0.00    +0.001 A 
ATOM     11  C   UNL     1       2.951  -0.871  -4.734  0.00  0.00    +0.001 A 
ATOM     12  C   UNL     1       3.732   0.244  -4.748  0.00  0.00    +0.008 A 
ATOM     13  C   UNL     1       3.848   1.027  -3.587  0.00  0.00    -0.017 A 
ATOM     14  C   UNL     1       4.644   2.185  -3.566  0.00  0.00    +0.010 A 
ATOM     15  C   UNL     1       4.749   2.914  -2.424  0.00  0.00    +0.024 A 
ATOM     16  H   UNL     1       4.604   4.185  -0.153  0.00  0.00    +0.155 HD
ENDROOT
BRANCH   1  19
ATOM     17  C   UNL     1      -1.222   1.752   0.017  0.00  0.00    +0.164 A 
ATOM     18  C   UNL     1      -0.013   1.076   0.008  0.00  0.00    +0.053 A 
ATOM     19  C   UNL     1       1.175   1.783   0.000  0.00  0.00    -0.034 A 
ATOM     20  C   UNL     1       1.160   3.165   0.008  0.00  0.00    +0.028 A 
ATOM     21  C   UNL     1      -0.043   3.847   0.024  0.00  0.00    +0.086 A 
ATOM     22  C   UNL     1      -1.238   3.143   0.031  0.00  0.00    +0.182 A 
ATOM     23 CL   UNL     1      -0.058   5.583   0.033  0.00  0.00    -0.080 Cl
BRANCH  17  24
ATOM     24  O   UNL     1      -2.391   1.057   0.019  0.00  0.00    -0.489 OA
BRANCH  24  26
ATOM     25  C   UNL     1      -3.705  -0.971   0.014  0.00  0.00    +0.048 C 
ATOM     26  C   UNL     1      -2.299  -0.368   0.011  0.00  0.00    +0.226 C 
ENDBRANCH  24  26
ENDBRANCH  17  24
BRANCH  22  27
ATOM     27  O   UNL     1      -2.423   3.811   0.046  0.00  0.00    -0.474 OA
BRANCH  27  28
ATOM     28  C   UNL     1      -3.000   4.137  -1.220  0.00  0.00    +0.317 C 
BRANCH  28  29
ATOM     29  C   UNL     1      -4.269   4.853  -1.012  0.00  0.00    -0.065 C 
ATOM     30  C   UNL     1      -5.281   5.424  -0.845  0.00  0.00    +0.007 C 
ENDBRANCH  28  29
ENDBRANCH  27  28
ENDBRANCH  22  27
ENDBRANCH   1  19
TORSDOF 6
