REMARK  Name = ZINC65260055
REMARK  6 active torsions:
REMARK  status: ('A' for Active; 'I' for Inactive)
REMARK    1  A    between atoms: C_1  and  C_2
REMARK    2  A    between atoms: C_2  and  C_3
REMARK    3  A    between atoms: C_2  and  C_4
REMARK    4  A    between atoms: C_2  and  N_5
REMARK    5  A    between atoms: C_21  and  C_23
REMARK    6  A    between atoms: C_23  and  C_24
REMARK                            x       y       z     vdW  Elec       q    Type
REMARK                         _______ _______ _______ _____ _____    ______ ____
ROOT
ATOM      1  N   UNL     1       0.719  -0.442  -1.210  0.00  0.00    -0.370 N 
ATOM      2  C   UNL     1       1.967  -0.143  -1.376  0.00  0.00    +0.098 C 
ATOM      3  N   UNL     1       2.699   0.495  -0.391  0.00  0.00    -0.301 N 
ATOM      4  C   UNL     1       3.636   1.460  -0.797  0.00  0.00    +0.053 A 
ATOM      5  C   UNL     1       4.209   2.304   0.141  0.00  0.00    +0.025 A 
ATOM      6  C   UNL     1       5.137   3.249  -0.256  0.00  0.00    +0.002 A 
ATOM      7  C   UNL     1       5.497   3.354  -1.587  0.00  0.00    +0.002 A 
ATOM      8  C   UNL     1       4.927   2.519  -2.529  0.00  0.00    +0.025 A 
ATOM      9  C   UNL     1       3.991   1.572  -2.140  0.00  0.00    +0.049 A 
ATOM     10  N   UNL     1       3.399   0.741  -3.102  0.00  0.00    -0.329 N 
ATOM     11  C   UNL     1       2.703  -0.478  -2.656  0.00  0.00    +0.102 C 
ATOM     12  C   UNL     1       1.705  -0.927  -3.721  0.00  0.00    +0.036 C 
ATOM     13  C   UNL     1       2.447  -1.231  -5.025  0.00  0.00    +0.021 C 
ATOM     14  C   UNL     1       3.450  -2.364  -4.783  0.00  0.00    +0.108 C 
ATOM     15  N   UNL     1       4.328  -1.990  -3.666  0.00  0.00    -0.299 N 
ATOM     16  C   UNL     1       3.716  -1.591  -2.390  0.00  0.00    +0.141 C 
ATOM     17  C   UNL     1       5.668  -2.012  -3.808  0.00  0.00    +0.220 C 
ATOM     18  O   UNL     1       6.382  -1.701  -2.879  0.00  0.00    -0.275 OA
ATOM     19  H   UNL     1       0.207  -0.812  -1.947  0.00  0.00    +0.161 HD
ATOM     20  H   UNL     1       3.449   0.964  -4.045  0.00  0.00    +0.147 HD
ATOM     21  H   UNL     1       2.570   0.284   0.547  0.00  0.00    +0.153 HD
ENDROOT
BRANCH   1  23
ATOM     22  C   UNL     1       0.261   1.238   0.506  0.00  0.00    +0.033 C 
ATOM     23  C   UNL     1       0.080  -0.223   0.089  0.00  0.00    +0.031 C 
ATOM     24  C   UNL     1       0.723  -1.135   1.135  0.00  0.00    +0.033 C 
ATOM     25  C   UNL     1      -1.413  -0.541  -0.017  0.00  0.00    +0.033 C 
ENDBRANCH   1  23
BRANCH  17  26
ATOM     26  C   UNL     1       6.279  -2.423  -5.123  0.00  0.00    +0.138 C 
BRANCH  26  27
ATOM     27  C   UNL     1       7.781  -2.363  -5.019  0.00  0.00    -0.001 A 
ATOM     28  C   UNL     1       8.650  -3.333  -4.644  0.00  0.00    +0.011 A 
ATOM     29  C   UNL     1      10.003  -3.050  -4.623  0.00  0.00    +0.008 A 
ATOM     30  C   UNL     1      10.421  -1.810  -4.979  0.00  0.00    +0.045 A 
ATOM     31  S   UNL     1       8.879  -0.998  -5.366  0.00  0.00    -0.101 S 
ENDBRANCH  26  27
ENDBRANCH  17  26
TORSDOF 3
