REMARK  Name = ZINC08879648
REMARK  5 active torsions:
REMARK  status: ('A' for Active; 'I' for Inactive)
REMARK    1  A    between atoms: C_1  and  C_2
REMARK    2  A    between atoms: C_2  and  C_22
REMARK    3  A    between atoms: N_5  and  C_9
REMARK    4  A    between atoms: C_9  and  C_10
REMARK    5  A    between atoms: C_10  and  C_12
REMARK                            x       y       z     vdW  Elec       q    Type
REMARK                         _______ _______ _______ _____ _____    ______ ____
ROOT
ATOM      1  C   UNL     1       2.928   8.471   1.074  0.00  0.00    +0.047 C 
ATOM      2  C   UNL     1       4.321   7.963   0.697  0.00  0.00    +0.135 C 
ATOM      3  C   UNL     1       4.522   6.543   1.188  0.00  0.00    +0.251 C 
ATOM      4  O   UNL     1       4.498   6.155   2.336  0.00  0.00    -0.272 OA
ATOM      5  N   UNL     1       4.734   5.803   0.082  0.00  0.00    -0.216 N 
ATOM      6  C   UNL     1       4.700   6.550  -1.027  0.00  0.00    +0.310 C 
ATOM      7  O   UNL     1       4.868   6.107  -2.146  0.00  0.00    -0.252 OA
ATOM      8  N   UNL     1       4.456   7.847  -0.765  0.00  0.00    -0.281 N 
ATOM      9  H   UNL     1       4.385   8.565  -1.413  0.00  0.00    +0.152 HD
ENDROOT
BRANCH   2  10
ATOM     10  C   UNL     1       5.385   8.873   1.256  0.00  0.00    -0.012 A 
ATOM     11  C   UNL     1       5.945   8.601   2.490  0.00  0.00    +0.010 A 
ATOM     12  C   UNL     1       6.922   9.431   3.010  0.00  0.00    +0.050 A 
ATOM     13  C   UNL     1       7.336  10.539   2.289  0.00  0.00    +0.162 A 
ATOM     14  C   UNL     1       6.773  10.812   1.051  0.00  0.00    +0.162 A 
ATOM     15  C   UNL     1       5.800   9.975   0.531  0.00  0.00    +0.055 A 
ATOM     16  O   UNL     1       7.188  11.906   0.348  0.00  0.00    -0.488 OA
ATOM     17  C   UNL     1       8.525  11.857  -0.153  0.00  0.00    +0.232 C 
ATOM     18  C   UNL     1       9.516  12.303   0.911  0.00  0.00    +0.082 C 
ATOM     19  C   UNL     1       9.550  11.359   2.103  0.00  0.00    +0.232 C 
ATOM     20  O   UNL     1       8.297  11.367   2.791  0.00  0.00    -0.488 OA
ENDBRANCH   2  10
BRANCH   5  21
ATOM     21  C   UNL     1       4.977   4.358   0.093  0.00  0.00    +0.197 C 
BRANCH  21  22
ATOM     22  C   UNL     1       3.664   3.626  -0.012  0.00  0.00    +0.181 C 
ATOM     23  O   UNL     1       2.627   4.250  -0.089  0.00  0.00    -0.290 OA
BRANCH  22  24
ATOM     24  C   UNL     1       3.640   2.160  -0.021  0.00  0.00    +0.027 A 
ATOM     25  C   UNL     1       4.825   1.429  -0.051  0.00  0.00    +0.012 A 
ATOM     26  C   UNL     1       4.799   0.043  -0.059  0.00  0.00    +0.001 A 
ATOM     27  C   UNL     1       3.628  -0.654  -0.038  0.00  0.00    +0.008 A 
ATOM     28  C   UNL     1       2.394   0.017  -0.008  0.00  0.00    -0.017 A 
ATOM     29  C   UNL     1       2.371   1.433   0.001  0.00  0.00    -0.007 A 
ATOM     30  C   UNL     1       1.144   2.104   0.030  0.00  0.00    +0.009 A 
ATOM     31  C   UNL     1      -0.016   1.388   0.050  0.00  0.00    +0.001 A 
ATOM     32  C   UNL     1       0.003  -0.004   0.042  0.00  0.00    +0.001 A 
ATOM     33  C   UNL     1       1.179  -0.690   0.013  0.00  0.00    +0.008 A 
ENDBRANCH  22  24
ENDBRANCH  21  22
ENDBRANCH   5  21
TORSDOF 4
