REMARK  Name = ZINC39229794
REMARK  6 active torsions:
REMARK  status: ('A' for Active; 'I' for Inactive)
REMARK    1  A    between atoms: C_1  and  C_2
REMARK    2  A    between atoms: C_12  and  C_15
REMARK    3  A    between atoms: N_17  and  C_18
REMARK    4  A    between atoms: C_26  and  C_28
REMARK    5  A    between atoms: C_29  and  C_30
REMARK    6  A    between atoms: C_29  and  C_31
REMARK                            x       y       z     vdW  Elec       q    Type
REMARK                         _______ _______ _______ _____ _____    ______ ____
ROOT
ATOM      1  C   UNL     1      -0.021   1.522  -0.035  0.00  0.00    -0.012 C 
ATOM      2  C   UNL     1      -0.147   0.004   0.098  0.00  0.00    -0.057 C 
ATOM      3  C   UNL     1      -1.618  -0.402  -0.039  0.00  0.00    +0.090 C 
ATOM      4  N   UNL     1      -1.731  -1.845   0.221  0.00  0.00    -0.319 N 
ATOM      5  C   UNL     1      -1.110  -2.379   1.443  0.00  0.00    +0.087 C 
ATOM      6  C   UNL     1       0.337  -1.881   1.511  0.00  0.00    -0.063 C 
ATOM      7  N   UNL     1       0.355  -0.416   1.413  0.00  0.00    +0.383 N 
ATOM      8  C   UNL     1      -2.402  -2.677  -0.658  0.00  0.00    +0.121 A 
ATOM      9  C   UNL     1      -3.166  -2.120  -1.683  0.00  0.00    +0.044 A 
ATOM     10  C   UNL     1      -3.828  -2.946  -2.551  0.00  0.00    +0.018 A 
ATOM     11  C   UNL     1      -3.713  -4.333  -2.375  0.00  0.00    +0.055 A 
ATOM     12  C   UNL     1      -2.931  -4.821  -1.327  0.00  0.00    +0.126 A 
ATOM     13  N   UNL     1      -2.306  -3.992  -0.517  0.00  0.00    -0.240 NA
ATOM     14  H   UNL     1       1.300  -0.083   1.533  0.00  0.00    -0.085 HD
ATOM     15  H   UNL     1      -0.231  -0.025   2.135  0.00  0.00    -0.085 HD
ENDROOT
BRANCH  11  16
ATOM     16  C   UNL     1      -4.409  -5.263  -3.285  0.00  0.00    +0.246 C 
ATOM     17  O   UNL     1      -5.089  -4.829  -4.195  0.00  0.00    -0.270 OA
ATOM     18  N   UNL     1      -4.292  -6.594  -3.107  0.00  0.00    -0.308 N 
ATOM     19  H   UNL     1      -3.750  -6.941  -2.381  0.00  0.00    +0.149 HD
BRANCH  18  20
ATOM     20  C   UNL     1      -4.989  -7.524  -4.017  0.00  0.00    +0.077 C 
ATOM     21  C   UNL     1      -6.427  -7.688  -3.542  0.00  0.00    +0.026 C 
ATOM     22  C   UNL     1      -6.940  -9.120  -3.686  0.00  0.00    -0.003 C 
ATOM     23  C   UNL     1      -6.054 -10.116  -2.908  0.00  0.00    +0.008 C 
ATOM     24  C   UNL     1      -5.149 -10.049  -4.163  0.00  0.00    -0.000 C 
ATOM     25  C   UNL     1      -4.222  -8.840  -4.053  0.00  0.00    +0.010 C 
ATOM     26  C   UNL     1      -3.194  -8.836  -5.189  0.00  0.00    +0.009 C 
ATOM     27  C   UNL     1      -6.442  -9.832  -4.951  0.00  0.00    -0.029 C 
ATOM     28  C   UNL     1      -6.356  -8.963  -6.201  0.00  0.00    +0.011 C 
ATOM     29  C   UNL     1      -7.202 -11.141  -5.243  0.00  0.00    +0.011 C 
ENDBRANCH  18  20
ENDBRANCH  11  16
TORSDOF 2
