REMARK  Name = ZINC35214245
REMARK  12 active torsions:
REMARK  status: ('A' for Active; 'I' for Inactive)
REMARK    1  A    between atoms: C_1  and  C_2
REMARK    2  A    between atoms: C_7  and  C_8
REMARK    3  A    between atoms: C_11  and  C_21
REMARK    4  A    between atoms: C_15  and  C_17
REMARK    5  A    between atoms: C_17  and  C_18
REMARK    6  A    between atoms: C_17  and  C_19
REMARK    7  A    between atoms: C_17  and  C_20
REMARK    8  A    between atoms: N_23  and  C_24
REMARK    9  A    between atoms: C_24  and  C_25
REMARK   10  A    between atoms: C_25  and  C_26
REMARK   11  A    between atoms: C_26  and  C_27
REMARK   12  A    between atoms: C_26  and  C_33
REMARK                            x       y       z     vdW  Elec       q    Type
REMARK                         _______ _______ _______ _____ _____    ______ ____
ROOT
ATOM      1  C   UNL     1      -0.525  -2.058   1.453  0.00  0.00    +0.234 C 
ATOM      2  O   UNL     1      -1.222  -1.199   0.955  0.00  0.00    -0.274 OA
ATOM      3  N   UNL     1      -0.627  -3.335   1.036  0.00  0.00    -0.314 N 
ATOM      4  H   UNL     1      -0.123  -4.033   1.482  0.00  0.00    +0.149 HD
ENDROOT
BRANCH   1   8
ATOM      5  C   UNL     1       0.993   0.214   1.089  0.00  0.00    +0.248 C 
ATOM      6  O   UNL     1       0.759  -0.467   0.109  0.00  0.00    -0.270 OA
ATOM      7  N   UNL     1       0.934  -0.333   2.319  0.00  0.00    -0.273 N 
ATOM      8  C   UNL     1       0.457  -1.696   2.538  0.00  0.00    +0.173 C 
ATOM      9  C   UNL     1      -0.243  -1.822   3.923  0.00  0.00    +0.103 C 
ATOM     10  S   UNL     1       0.888  -0.730   4.897  0.00  0.00    -0.135 S 
ATOM     11  C   UNL     1       1.355   0.407   3.524  0.00  0.00    +0.140 C 
BRANCH   5  18
ATOM     12  C   UNL     1       2.945   0.999  -0.897  0.00  0.00    +0.044 C 
ATOM     13  C   UNL     1       2.281   2.033  -0.024  0.00  0.00    -0.038 A 
ATOM     14  C   UNL     1       2.596   3.368  -0.171  0.00  0.00    +0.004 A 
ATOM     15  C   UNL     1       1.988   4.317   0.629  0.00  0.00    +0.000 A 
ATOM     16  C   UNL     1       1.059   3.936   1.582  0.00  0.00    +0.001 A 
ATOM     17  C   UNL     1       0.734   2.605   1.738  0.00  0.00    +0.013 A 
ATOM     18  C   UNL     1       1.340   1.642   0.930  0.00  0.00    +0.040 A 
ENDBRANCH   5  18
BRANCH  11  19
ATOM     19  C   UNL     1       2.865   0.650   3.509  0.00  0.00    -0.010 C 
ATOM     20  C   UNL     1       3.244   1.429   2.248  0.00  0.00    +0.013 C 
ATOM     21  C   UNL     1       3.264   1.458   4.746  0.00  0.00    +0.013 C 
ATOM     22  C   UNL     1       3.598  -0.693   3.520  0.00  0.00    +0.013 C 
ENDBRANCH  11  19
ENDBRANCH   1   8
BRANCH   3  23
ATOM     23  C   UNL     1      -1.501  -3.669  -0.091  0.00  0.00    +0.105 C 
BRANCH  23  24
ATOM     24  C   UNL     1      -1.529  -5.187  -0.282  0.00  0.00    +0.031 C 
BRANCH  24  25
ATOM     25  C   UNL     1      -2.442  -5.536  -1.460  0.00  0.00    +0.050 C 
BRANCH  25  26
ATOM     26  C   UNL     1      -2.374  -7.018  -1.726  0.00  0.00    -0.040 A 
ATOM     27  C   UNL     1      -2.115  -7.480  -3.003  0.00  0.00    +0.004 A 
ATOM     28  C   UNL     1      -2.052  -8.839  -3.247  0.00  0.00    +0.000 A 
ATOM     29  C   UNL     1      -2.249  -9.736  -2.214  0.00  0.00    +0.000 A 
ATOM     30  C   UNL     1      -2.507  -9.275  -0.937  0.00  0.00    +0.000 A 
ATOM     31  C   UNL     1      -2.565  -7.915  -0.692  0.00  0.00    +0.004 A 
ENDBRANCH  25  26
BRANCH  25  32
ATOM     32  C   UNL     1      -3.860  -5.150  -1.128  0.00  0.00    -0.040 A 
ATOM     33  C   UNL     1      -4.455  -5.629   0.024  0.00  0.00    +0.004 A 
ATOM     34  C   UNL     1      -5.756  -5.275   0.328  0.00  0.00    +0.000 A 
ATOM     35  C   UNL     1      -6.462  -4.441  -0.519  0.00  0.00    +0.000 A 
ATOM     36  C   UNL     1      -5.866  -3.961  -1.670  0.00  0.00    +0.000 A 
ATOM     37  C   UNL     1      -4.564  -4.312  -1.973  0.00  0.00    +0.004 A 
ENDBRANCH  25  32
ENDBRANCH  24  25
ENDBRANCH  23  24
ENDBRANCH   3  23
TORSDOF 8
