REMARK  Name = ZINC24264106
REMARK  10 active torsions:
REMARK  status: ('A' for Active; 'I' for Inactive)
REMARK    1  A    between atoms: C_1  and  C_2
REMARK    2  A    between atoms: C_2  and  C_3
REMARK    3  A    between atoms: C_3  and  C_4
REMARK    4  A    between atoms: C_4  and  N_5
REMARK    5  A    between atoms: C_9  and  C_11
REMARK    6  A    between atoms: C_11  and  C_13
REMARK    7  A    between atoms: C_11  and  N_14
REMARK    8  A    between atoms: N_17  and  S_20
REMARK    9  A    between atoms: S_20  and  C_23
REMARK   10  A    between atoms: C_27  and  N_29
REMARK                            x       y       z     vdW  Elec       q    Type
REMARK                         _______ _______ _______ _____ _____    ______ ____
ROOT
ATOM      1  N   UNL     1      -0.878   5.875  -4.531  0.00  0.00    +0.389 N 
ATOM      2  C   UNL     1      -2.185   5.215  -4.415  0.00  0.00    -0.060 C 
ATOM      3  C   UNL     1      -3.010   5.910  -3.326  0.00  0.00    +0.091 C 
ATOM      4  N   UNL     1      -2.216   5.941  -2.087  0.00  0.00    -0.180 NA
ATOM      5  C   UNL     1      -0.845   6.469  -2.153  0.00  0.00    +0.091 C 
ATOM      6  C   UNL     1      -0.104   5.747  -3.289  0.00  0.00    -0.060 C 
ATOM      7  H   UNL     1      -1.058   6.946  -4.703  0.00  0.00    -0.081 HD
ENDROOT
BRANCH   4   8
ATOM      8  S   UNL     1      -2.853   5.402  -0.657  0.00  0.00    +0.061 S 
ATOM      9  O   UNL     1      -4.265   5.503  -0.776  0.00  0.00    -0.153 OA
ATOM     10  O   UNL     1      -2.127   6.050   0.380  0.00  0.00    -0.153 OA
BRANCH   8  11
ATOM     11  C   UNL     1      -2.479   3.685  -0.534  0.00  0.00    +0.108 A 
ATOM     12  C   UNL     1      -1.305   3.273   0.069  0.00  0.00    +0.028 A 
ATOM     13  C   UNL     1      -1.013   1.926   0.165  0.00  0.00    +0.004 A 
ATOM     14  C   UNL     1      -1.894   0.989  -0.343  0.00  0.00    +0.033 A 
ATOM     15  C   UNL     1      -3.065   1.401  -0.951  0.00  0.00    +0.128 A 
ATOM     16  C   UNL     1      -3.360   2.748  -1.042  0.00  0.00    +0.061 A 
BRANCH  15  17
ATOM     17  N   UNL     1      -4.005   0.398  -1.500  0.00  0.00    +0.056 N 
ATOM     18  O   UNL     1      -3.747  -0.789  -1.416  0.00  0.00    -0.126 OA
ATOM     19  O   UNL     1      -5.037   0.760  -2.036  0.00  0.00    -0.126 OA
ENDBRANCH  15  17
ENDBRANCH   8  11
ENDBRANCH   4   8
BRANCH   1  20
ATOM     20  C   UNL     1      -0.124   5.351  -5.678  0.00  0.00    +0.017 C 
ATOM     21  C   UNL     1       1.284   5.950  -5.678  0.00  0.00    -0.004 C 
BRANCH  20  26
ATOM     22  N   UNL     1       0.278   1.017  -7.718  0.00  0.00    -0.299 N 
ATOM     23  C   UNL     1       0.164   1.763  -6.601  0.00  0.00    +0.306 C 
ATOM     24  O   UNL     1       0.136   1.225  -5.511  0.00  0.00    -0.252 OA
ATOM     25  N   UNL     1       0.082   3.105  -6.692  0.00  0.00    -0.242 N 
ATOM     26  C   UNL     1      -0.032   3.851  -5.575  0.00  0.00    +0.207 C 
ATOM     27  O   UNL     1      -0.060   3.314  -4.488  0.00  0.00    -0.277 OA
ATOM     28  H   UNL     1       0.304   1.504  -8.704  0.00  0.00    +0.150 HD
ATOM     29  H   UNL     1       0.108   3.592  -7.678  0.00  0.00    +0.159 HD
BRANCH  22  30
ATOM     30  C   UNL     1       0.367  -0.442  -7.618  0.00  0.00    +0.106 C 
BRANCH  30  31
ATOM     31  C   UNL     1       0.488  -1.042  -9.020  0.00  0.00    +0.018 C 
BRANCH  31  33
ATOM     32  C   UNL     1       0.702  -3.166 -10.319  0.00  0.00    +0.004 C 
ATOM     33  C   UNL     1       0.582  -2.566  -8.916  0.00  0.00    -0.002 C 
ENDBRANCH  31  33
ENDBRANCH  30  31
ENDBRANCH  22  30
ENDBRANCH  20  26
ENDBRANCH   1  20
TORSDOF 8
