REMARK  Name = ZINC30840606
REMARK  10 active torsions:
REMARK  status: ('A' for Active; 'I' for Inactive)
REMARK    1  A    between atoms: C_1  and  C_2
REMARK    2  A    between atoms: C_2  and  O_3
REMARK    3  A    between atoms: O_3  and  C_4
REMARK    4  A    between atoms: C_6  and  C_12
REMARK    5  A    between atoms: C_9  and  O_10
REMARK    6  A    between atoms: N_13  and  N_14
REMARK    7  A    between atoms: C_15  and  C_17
REMARK    8  A    between atoms: C_17  and  O_18
REMARK    9  A    between atoms: O_18  and  C_19
REMARK   10  A    between atoms: C_22  and  C_25
REMARK                            x       y       z     vdW  Elec       q    Type
REMARK                         _______ _______ _______ _____ _____    ______ ____
ROOT
ATOM      1  N   UNL     1      -2.229   8.640  -0.615  0.00  0.00    -0.204 N 
ATOM      2  C   UNL     1      -1.184   7.790  -0.589  0.00  0.00    +0.270 C 
ATOM      3  O   UNL     1      -0.126   8.144  -0.112  0.00  0.00    -0.270 OA
ATOM      4  H   UNL     1      -3.189   8.318  -1.047  0.00  0.00    +0.177 HD
ENDROOT
BRANCH   1   6
ATOM      5  C   UNL     1      -3.130  10.710  -0.008  0.00  0.00    +0.138 C 
ATOM      6  N   UNL     1      -2.095   9.932  -0.092  0.00  0.00    -0.188 NA
BRANCH   5   9
ATOM      7  C   UNL     1      -6.869  10.408  -0.183  0.00  0.00    +0.164 A 
ATOM      8  C   UNL     1      -5.600  10.956  -0.188  0.00  0.00    +0.059 A 
ATOM      9  C   UNL     1      -4.487  10.132   0.002  0.00  0.00    -0.000 A 
ATOM     10  C   UNL     1      -4.663   8.761   0.206  0.00  0.00    +0.033 A 
ATOM     11  C   UNL     1      -5.933   8.223   0.215  0.00  0.00    +0.087 A 
ATOM     12  C   UNL     1      -7.038   9.041   0.021  0.00  0.00    +0.177 A 
ATOM     13 CL   UNL     1      -6.151   6.519   0.468  0.00  0.00    -0.080 Cl
BRANCH  12  14
ATOM     14  O   UNL     1      -8.288   8.506   0.030  0.00  0.00    -0.502 OA
ATOM     15  H   UNL     1      -8.423   7.426   0.192  0.00  0.00    +0.292 HD
ENDBRANCH  12  14
BRANCH   7  16
ATOM     16  O   UNL     1      -7.954  11.206  -0.374  0.00  0.00    -0.489 OA
BRANCH  16  18
ATOM     17  C   UNL     1      -9.037  13.329  -0.772  0.00  0.00    +0.048 C 
ATOM     18  C   UNL     1      -7.707  12.599  -0.577  0.00  0.00    +0.226 C 
ENDBRANCH  16  18
ENDBRANCH   7  16
ENDBRANCH   5   9
ENDBRANCH   1   6
BRANCH   2  19
ATOM     19  C   UNL     1      -1.329   6.399  -1.151  0.00  0.00    +0.326 C 
BRANCH  19  20
ATOM     20  O   UNL     1      -0.093   5.696  -1.008  0.00  0.00    -0.483 OA
BRANCH  20  21
ATOM     21  C   UNL     1      -0.053   4.419  -1.469  0.00  0.00    +0.121 A 
ATOM     22  C   UNL     1       1.117   3.679  -1.361  0.00  0.00    +0.046 A 
ATOM     23  C   UNL     1       1.160   2.382  -1.828  0.00  0.00    +0.012 A 
ATOM     24  C   UNL     1       0.028   1.814  -2.408  0.00  0.00    -0.018 A 
ATOM     25  C   UNL     1      -1.144   2.560  -2.520  0.00  0.00    +0.012 A 
ATOM     26  C   UNL     1      -1.183   3.855  -2.047  0.00  0.00    +0.046 A 
BRANCH  24  27
ATOM     27  C   UNL     1       0.071   0.419  -2.911  0.00  0.00    -0.018 A 
ATOM     28  C   UNL     1       1.246  -0.325  -2.810  0.00  0.00    +0.008 A 
ATOM     29  C   UNL     1       1.279  -1.624  -3.275  0.00  0.00    +0.001 A 
ATOM     30  C   UNL     1       0.152  -2.185  -3.849  0.00  0.00    +0.000 A 
ATOM     31  C   UNL     1      -1.014  -1.449  -3.958  0.00  0.00    +0.001 A 
ATOM     32  C   UNL     1      -1.060  -0.151  -3.491  0.00  0.00    +0.008 A 
ENDBRANCH  24  27
ENDBRANCH  20  21
ENDBRANCH  19  20
ENDBRANCH   2  19
TORSDOF 9
