REMARK  Name = ZINC43410862
REMARK  4 active torsions:
REMARK  status: ('A' for Active; 'I' for Inactive)
REMARK    1  A    between atoms: C_1  and  C_2
REMARK    2  A    between atoms: C_2  and  C_3
REMARK    3  A    between atoms: C_11  and  C_20
REMARK    4  A    between atoms: C_20  and  N_22
REMARK                            x       y       z     vdW  Elec       q    Type
REMARK                         _______ _______ _______ _____ _____    ______ ____
ROOT
ATOM      1  C   UNL     1      -0.748  -2.408  -1.236  0.00  0.00    +0.135 C 
ATOM      2  C   UNL     1      -0.028  -3.084  -2.408  0.00  0.00    +0.138 C 
ATOM      3  N   UNL     1       1.333  -2.532  -2.498  0.00  0.00    -0.311 N 
ATOM      4  C   UNL     1       1.486  -1.068  -2.509  0.00  0.00    +0.134 C 
ATOM      5  C   UNL     1       0.692  -0.490  -1.332  0.00  0.00    +0.179 C 
ATOM      6  O   UNL     1      -0.647  -0.989  -1.376  0.00  0.00    -0.373 OA
ATOM      7  C   UNL     1       2.436  -3.364  -2.568  0.00  0.00    +0.109 A 
ATOM      8  C   UNL     1       2.868  -3.851  -3.815  0.00  0.00    +0.041 A 
ATOM      9  C   UNL     1       3.983  -4.693  -3.850  0.00  0.00    +0.019 A 
ATOM     10  C   UNL     1       4.621  -5.012  -2.657  0.00  0.00    -0.027 A 
ATOM     11  C   UNL     1       4.145  -4.492  -1.473  0.00  0.00    +0.021 A 
ATOM     12  N   UNL     1       3.084  -3.694  -1.467  0.00  0.00    -0.346 N 
ATOM     13  C   UNL     1       4.799  -4.783  -0.146  0.00  0.00    +0.053 C 
ATOM     14  C   UNL     1       5.697  -6.013  -0.248  0.00  0.00    +0.006 C 
ATOM     15  C   UNL     1       6.639  -5.829  -1.443  0.00  0.00    +0.005 C 
ATOM     16  C   UNL     1       5.814  -5.927  -2.725  0.00  0.00    +0.037 C 
ATOM     17  H   UNL     1       2.770  -3.343  -0.619  0.00  0.00    +0.167 HD
ENDROOT
BRANCH   1  19
ATOM     18  C   UNL     1      -2.913  -2.242   0.000  0.00  0.00    +0.006 C 
ATOM     19  C   UNL     1      -2.222  -2.818  -1.238  0.00  0.00    +0.030 C 
ENDBRANCH   1  19
BRANCH   8  20
ATOM     20  C   UNL     1       2.163  -3.483  -5.054  0.00  0.00    +0.080 C 
ATOM     21  S   UNL     1       0.902  -2.326  -5.009  0.00  0.00    -0.035 S 
BRANCH  20  22
ATOM     22  N   UNL     1       2.509  -4.057  -6.223  0.00  0.00    -0.352 N 
ATOM     23  H   UNL     1       3.224  -4.713  -6.248  0.00  0.00    +0.143 HD
ATOM     24  H   UNL     1       2.045  -3.814  -7.039  0.00  0.00    +0.143 HD
ENDBRANCH  20  22
ENDBRANCH   8  20
TORSDOF 3
