REMARK  Name = ZINC31057616
REMARK  11 active torsions:
REMARK  status: ('A' for Active; 'I' for Inactive)
REMARK    1  A    between atoms: C_1  and  C_2
REMARK    2  A    between atoms: C_5  and  C_8
REMARK    3  A    between atoms: C_8  and  S_9
REMARK    4  A    between atoms: S_9  and  C_10
REMARK    5  A    between atoms: C_10  and  C_11
REMARK    6  A    between atoms: C_11  and  C_12
REMARK    7  A    between atoms: C_12  and  N_13
REMARK    8  A    between atoms: C_14  and  C_16
REMARK    9  A    between atoms: N_21  and  C_23
REMARK   10  A    between atoms: C_23  and  C_24
REMARK   11  A    between atoms: C_26  and  C_29
REMARK                            x       y       z     vdW  Elec       q    Type
REMARK                         _______ _______ _______ _____ _____    ______ ____
ROOT
ATOM      1  C   UNL     1      -3.286   3.573  -2.833  0.00  0.00    +0.058 C 
ATOM      2  C   UNL     1      -3.283   2.335  -3.734  0.00  0.00    +0.009 C 
ATOM      3  C   UNL     1      -1.917   1.649  -3.641  0.00  0.00    -0.018 C 
ATOM      4  C   UNL     1      -1.633   1.285  -2.182  0.00  0.00    -0.078 C 
ATOM      5  N   UNL     1      -1.646   2.503  -1.361  0.00  0.00    +0.386 N 
ATOM      6  C   UNL     1      -2.962   3.153  -1.397  0.00  0.00    -0.065 C 
ATOM      7  H   UNL     1      -0.914   3.203  -1.789  0.00  0.00    -0.081 HD
ENDROOT
BRANCH   1   9
ATOM      8  N   UNL     1      -5.144   4.672  -4.041  0.00  0.00    -0.315 N 
ATOM      9  C   UNL     1      -4.646   4.221  -2.873  0.00  0.00    +0.214 C 
ATOM     10  O   UNL     1      -5.293   4.336  -1.853  0.00  0.00    -0.276 OA
ATOM     11  H   UNL     1      -4.557   4.568  -4.966  0.00  0.00    +0.149 HD
BRANCH   8  12
ATOM     12  C   UNL     1      -6.466   5.302  -4.080  0.00  0.00    +0.105 C 
BRANCH  12  13
ATOM     13  C   UNL     1      -6.789   5.721  -5.516  0.00  0.00    +0.029 C 
BRANCH  13  14
ATOM     14  C   UNL     1      -8.170   6.379  -5.556  0.00  0.00    +0.071 C 
BRANCH  14  15
ATOM     15  S   UNL     1      -8.553   6.876  -7.258  0.00  0.00    -0.156 S 
BRANCH  15  16
ATOM     16  C   UNL     1     -10.199   7.629  -7.135  0.00  0.00    +0.104 C 
BRANCH  16  21
ATOM     17  C   UNL     1     -11.902   9.404 -12.364  0.00  0.00    +0.044 C 
ATOM     18  C   UNL     1     -11.457   8.941 -11.001  0.00  0.00    -0.050 A 
ATOM     19  C   UNL     1     -11.756   7.660 -10.574  0.00  0.00    +0.003 A 
ATOM     20  C   UNL     1     -11.349   7.236  -9.323  0.00  0.00    +0.005 A 
ATOM     21  C   UNL     1     -10.643   8.091  -8.499  0.00  0.00    -0.038 A 
ATOM     22  C   UNL     1     -10.348   9.374  -8.924  0.00  0.00    +0.005 A 
ATOM     23  C   UNL     1     -10.751   9.796 -10.177  0.00  0.00    +0.003 A 
ENDBRANCH  16  21
ENDBRANCH  15  16
ENDBRANCH  14  15
ENDBRANCH  13  14
ENDBRANCH  12  13
ENDBRANCH   8  12
ENDBRANCH   1   9
BRANCH   5  24
ATOM     24  C   UNL     1      -1.241   2.210   0.020  0.00  0.00    +0.022 C 
BRANCH  24  25
ATOM     25  C   UNL     1      -0.016   1.333   0.009  0.00  0.00    +0.211 A 
ATOM     26  N   UNL     1       1.229   1.737  -0.000  0.00  0.00    -0.192 NA
ATOM     27  C   UNL     1       1.978   0.608  -0.014  0.00  0.00    +0.209 A 
ATOM     28  N   UNL     1       1.147  -0.405  -0.011  0.00  0.00    -0.056 NA
ATOM     29  O   UNL     1       0.002  -0.004   0.002  0.00  0.00    -0.340 OA
BRANCH  27  30
ATOM     30  C   UNL     1       3.453   0.534  -0.028  0.00  0.00    +0.060 A 
ATOM     31  C   UNL     1       4.261  -0.572  -0.041  0.00  0.00    +0.019 A 
ATOM     32  C   UNL     1       5.626  -0.395  -0.053  0.00  0.00    +0.008 A 
ATOM     33  C   UNL     1       6.129   0.867  -0.052  0.00  0.00    +0.046 A 
ATOM     34  S   UNL     1       4.646   1.861  -0.041  0.00  0.00    -0.093 S 
ENDBRANCH  27  30
ENDBRANCH  24  25
ENDBRANCH   5  24
TORSDOF 10
