REMARK  Name = ZINC35865623
REMARK  7 active torsions:
REMARK  status: ('A' for Active; 'I' for Inactive)
REMARK    1  A    between atoms: C_1  and  C_2
REMARK    2  A    between atoms: C_2  and  C_3
REMARK    3  A    between atoms: C_3  and  C_5
REMARK    4  A    between atoms: C_3  and  C_6
REMARK    5  A    between atoms: C_16  and  C_20
REMARK    6  A    between atoms: C_27  and  C_29
REMARK    7  A    between atoms: C_29  and  C_31
REMARK                            x       y       z     vdW  Elec       q    Type
REMARK                         _______ _______ _______ _____ _____    ______ ____
ROOT
ATOM      1  C   UNL     1       1.036  -1.641   1.208  0.00  0.00    +0.135 A 
ATOM      2  N   UNL     1       2.206  -2.255   1.202  0.00  0.00    -0.216 NA
ATOM      3  C   UNL     1       2.312  -3.571   1.106  0.00  0.00    +0.133 A 
ATOM      4  C   UNL     1       1.128  -4.354   1.007  0.00  0.00    +0.051 A 
ATOM      5  C   UNL     1       0.998  -5.808   0.891  0.00  0.00    -0.025 A 
ATOM      6  C   UNL     1      -0.252  -6.306   0.812  0.00  0.00    -0.004 A 
ATOM      7  S   UNL     1      -1.319  -4.891   0.885  0.00  0.00    -0.073 S 
ATOM      8  C   UNL     1      -0.080  -3.629   1.021  0.00  0.00    +0.114 A 
ATOM      9  N   UNL     1      -0.095  -2.315   1.125  0.00  0.00    -0.224 NA
ATOM     10  C   UNL     1      -0.650  -7.745   0.688  0.00  0.00    +0.046 C 
ATOM     11  C   UNL     1       0.590  -8.558   0.288  0.00  0.00    -0.009 C 
ATOM     12  C   UNL     1       1.754  -8.155   1.198  0.00  0.00    +0.008 C 
ATOM     13  C   UNL     1       2.210  -6.735   0.860  0.00  0.00    +0.037 C 
ATOM     14  C   UNL     1       0.299 -10.051   0.451  0.00  0.00    +0.008 C 
ATOM     15  N   UNL     1       3.555  -4.176   1.103  0.00  0.00    -0.312 N 
ATOM     16  C   UNL     1       4.222  -4.507  -0.165  0.00  0.00    +0.125 C 
ATOM     17  C   UNL     1       5.610  -3.855  -0.173  0.00  0.00    +0.126 C 
ATOM     18  N   UNL     1       6.289  -4.177   1.090  0.00  0.00    -0.297 N 
ATOM     19  C   UNL     1       5.622  -3.846   2.357  0.00  0.00    +0.126 C 
ATOM     20  C   UNL     1       4.236  -4.494   2.365  0.00  0.00    +0.125 C 
ATOM     21  C   UNL     1       7.500  -4.767   1.087  0.00  0.00    +0.233 C 
ATOM     22  O   UNL     1       8.006  -5.120   2.131  0.00  0.00    -0.274 OA
ENDROOT
BRANCH  21  23
ATOM     23  C   UNL     1       8.227  -4.988  -0.215  0.00  0.00    +0.163 C 
ATOM     24  C   UNL     1       9.700  -4.608  -0.048  0.00  0.00    +0.034 C 
ATOM     25 CL   UNL     1       8.105  -6.725  -0.684  0.00  0.00    -0.112 Cl
ENDBRANCH  21  23
BRANCH   1  26
ATOM     26  C   UNL     1       0.993  -0.139   1.319  0.00  0.00    +0.054 C 
ATOM     27  C   UNL     1       0.222   0.257   2.580  0.00  0.00    +0.015 C 
BRANCH  26  29
ATOM     28  C   UNL     1       0.360   1.971   0.141  0.00  0.00    +0.004 C 
ATOM     29  C   UNL     1       0.294   0.443   0.089  0.00  0.00    +0.007 C 
ENDBRANCH  26  29
ENDBRANCH   1  26
TORSDOF 3
