REMARK  Name = ZINC56230198
REMARK  10 active torsions:
REMARK  status: ('A' for Active; 'I' for Inactive)
REMARK    1  A    between atoms: C_1  and  C_2
REMARK    2  A    between atoms: C_2  and  C_3
REMARK    3  A    between atoms: C_3  and  C_4
REMARK    4  A    between atoms: C_4  and  C_5
REMARK    5  A    between atoms: C_7  and  C_10
REMARK    6  A    between atoms: C_10  and  S_11
REMARK    7  A    between atoms: S_11  and  C_12
REMARK    8  A    between atoms: C_12  and  C_14
REMARK    9  A    between atoms: C_12  and  C_15
REMARK   10  A    between atoms: N_21  and  C_22
REMARK                            x       y       z     vdW  Elec       q    Type
REMARK                         _______ _______ _______ _____ _____    ______ ____
ROOT
ATOM      1  C   UNL     1      -9.125  -1.786   3.429  0.00  0.00    +0.149 A 
ATOM      2  N   UNL     1      -8.702  -0.646   3.948  0.00  0.00    -0.198 NA
ATOM      3  C   UNL     1      -9.578   0.237   4.422  0.00  0.00    +0.217 A 
ATOM      4  N   UNL     1     -10.879  -0.029   4.374  0.00  0.00    -0.181 NA
ATOM      5  C   UNL     1     -11.300  -1.175   3.853  0.00  0.00    +0.224 A 
ATOM      6  N   UNL     1     -10.419  -2.051   3.376  0.00  0.00    -0.198 NA
ATOM      7  N   UNL     1     -12.652  -1.456   3.801  0.00  0.00    -0.284 N 
ATOM      8  N   UNL     1      -9.135   1.427   4.963  0.00  0.00    -0.327 N 
ATOM      9  H   UNL     1     -12.955  -2.326   3.496  0.00  0.00    +0.155 HD
ATOM     10  H   UNL     1      -8.185   1.620   4.998  0.00  0.00    +0.145 HD
ATOM     11  H   UNL     1      -9.773   2.070   5.309  0.00  0.00    +0.145 HD
ENDROOT
BRANCH   7  12
ATOM     12  C   UNL     1     -13.582  -0.487   4.188  0.00  0.00    +0.034 A 
ATOM     13  C   UNL     1     -13.359   0.851   3.891  0.00  0.00    +0.023 A 
ATOM     14  C   UNL     1     -14.280   1.805   4.274  0.00  0.00    +0.002 A 
ATOM     15  C   UNL     1     -15.425   1.430   4.954  0.00  0.00    +0.000 A 
ATOM     16  C   UNL     1     -15.650   0.099   5.252  0.00  0.00    +0.002 A 
ATOM     17  C   UNL     1     -14.736  -0.861   4.866  0.00  0.00    +0.023 A 
ENDBRANCH   7  12
BRANCH   1  18
ATOM     18  C   UNL     1      -8.131  -2.783   2.893  0.00  0.00    +0.112 C 
ATOM     19  C   UNL     1      -7.443  -3.495   4.059  0.00  0.00    +0.027 C 
BRANCH  18  20
ATOM     20  S   UNL     1      -6.887  -1.919   1.894  0.00  0.00    -0.140 S 
BRANCH  20  21
ATOM     21  C   UNL     1      -5.871  -3.255   1.207  0.00  0.00    +0.168 C 
BRANCH  21  24
ATOM     22  C   UNL     1      -2.887  -1.830  -0.279  0.00  0.00    +0.172 A 
ATOM     23  N   UNL     1      -3.595  -2.314   0.747  0.00  0.00    -0.195 NA
ATOM     24  C   UNL     1      -4.784  -2.666   0.344  0.00  0.00    +0.237 A 
ATOM     25  O   UNL     1      -4.874  -2.415  -0.968  0.00  0.00    -0.337 OA
ATOM     26  N   UNL     1      -3.623  -1.863  -1.353  0.00  0.00    -0.061 NA
BRANCH  22  27
ATOM     27  C   UNL     1      -1.470  -1.323  -0.204  0.00  0.00    +0.080 C 
BRANCH  27  28
ATOM     28  C   UNL     1      -1.480   0.173   0.116  0.00  0.00    +0.008 C 
BRANCH  28  30
ATOM     29  C   UNL     1      -0.051   2.184   0.512  0.00  0.00    +0.004 C 
ATOM     30  C   UNL     1      -0.041   0.688   0.192  0.00  0.00    -0.003 C 
ENDBRANCH  28  30
ENDBRANCH  27  28
ENDBRANCH  22  27
ENDBRANCH  21  24
ENDBRANCH  20  21
ENDBRANCH  18  20
ENDBRANCH   1  18
TORSDOF 8
