REMARK  Name = ZINC09357909
REMARK  16 active torsions:
REMARK  status: ('A' for Active; 'I' for Inactive)
REMARK    1  A    between atoms: C_1  and  C_2
REMARK    2  A    between atoms: C_2  and  O_3
REMARK    3  A    between atoms: O_3  and  C_4
REMARK    4  A    between atoms: C_7  and  C_10
REMARK    5  A    between atoms: C_17  and  N_38
REMARK    6  A    between atoms: C_18  and  C_36
REMARK    7  A    between atoms: C_19  and  C_21
REMARK    8  A    between atoms: C_23  and  C_32
REMARK    9  A    between atoms: C_24  and  O_31
REMARK   10  A    between atoms: C_25  and  C_27
REMARK   11  A    between atoms: C_27  and  C_28
REMARK   12  A    between atoms: C_27  and  C_29
REMARK   13  A    between atoms: C_27  and  C_30
REMARK   14  A    between atoms: C_32  and  C_33
REMARK   15  A    between atoms: C_32  and  C_34
REMARK   16  A    between atoms: C_32  and  C_35
REMARK                            x       y       z     vdW  Elec       q    Type
REMARK                         _______ _______ _______ _____ _____    ______ ____
ROOT
ATOM      1  C   UNL     1       1.119  -5.973  -1.823  0.00  0.00    +0.074 A 
ATOM      2  C   UNL     1       2.185  -6.663  -2.293  0.00  0.00    +0.054 A 
ATOM      3  C   UNL     1       1.852  -8.032  -2.298  0.00  0.00    +0.245 A 
ATOM      4  N   UNL     1       0.636  -8.160  -1.850  0.00  0.00    -0.135 NA
ATOM      5  N   UNL     1       0.143  -6.884  -1.534  0.00  0.00    -0.273 N 
ATOM      6  H   UNL     1      -0.737  -6.685  -1.175  0.00  0.00    +0.189 HD
ATOM      7  O   UNL     1       2.728  -8.985  -2.719  0.00  0.00    -0.421 OA
ATOM      8  C   UNL     1       4.016  -8.620  -2.876  0.00  0.00    +0.201 C 
ATOM      9  C   UNL     1       4.451  -7.342  -2.900  0.00  0.00    +0.098 C 
ATOM     10  C   UNL     1       3.528  -6.158  -2.756  0.00  0.00    +0.102 C 
ENDROOT
BRANCH   1  14
ATOM     11  C   UNL     1       0.864  -1.760  -1.319  0.00  0.00    +0.121 A 
ATOM     12  C   UNL     1      -0.173  -2.448  -1.936  0.00  0.00    +0.046 A 
ATOM     13  C   UNL     1      -0.094  -3.815  -2.101  0.00  0.00    +0.013 A 
ATOM     14  C   UNL     1       1.030  -4.506  -1.648  0.00  0.00    +0.000 A 
ATOM     15  C   UNL     1       2.070  -3.812  -1.029  0.00  0.00    +0.013 A 
ATOM     16  C   UNL     1       1.986  -2.445  -0.872  0.00  0.00    +0.046 A 
BRANCH  11  17
ATOM     17  O   UNL     1       0.782  -0.414  -1.159  0.00  0.00    -0.492 OA
BRANCH  17  19
ATOM     18  C   UNL     1      -0.311   1.731  -1.375  0.00  0.00    +0.048 C 
ATOM     19  C   UNL     1      -0.400   0.227  -1.642  0.00  0.00    +0.225 C 
ENDBRANCH  17  19
ENDBRANCH  11  17
ENDBRANCH   1  14
BRANCH  10  20
ATOM     20  C   UNL     1       3.380  -5.463  -4.085  0.00  0.00    -0.034 A 
ATOM     21  C   UNL     1       2.814  -6.132  -5.154  0.00  0.00    +0.012 A 
ATOM     22  C   UNL     1       2.678  -5.497  -6.373  0.00  0.00    -0.000 A 
ATOM     23  C   UNL     1       3.109  -4.187  -6.524  0.00  0.00    +0.124 A 
ATOM     24  C   UNL     1       3.676  -3.518  -5.449  0.00  0.00    -0.000 A 
ATOM     25  C   UNL     1       3.805  -4.156  -4.230  0.00  0.00    +0.012 A 
BRANCH  24  26
ATOM     26  C   UNL     1       4.145  -2.095  -5.609  0.00  0.00    -0.009 C 
ATOM     27  C   UNL     1       4.725  -1.597  -4.284  0.00  0.00    +0.015 C 
ATOM     28  C   UNL     1       5.223  -2.032  -6.693  0.00  0.00    +0.015 C 
ATOM     29  C   UNL     1       2.964  -1.211  -6.013  0.00  0.00    +0.015 C 
ENDBRANCH  24  26
BRANCH  22  30
ATOM     30  C   UNL     1       2.063  -6.227  -7.539  0.00  0.00    -0.009 C 
ATOM     31  C   UNL     1       1.678  -7.644  -7.108  0.00  0.00    +0.015 C 
ATOM     32  C   UNL     1       0.812  -5.479  -8.007  0.00  0.00    +0.015 C 
ATOM     33  C   UNL     1       3.072  -6.300  -8.686  0.00  0.00    +0.015 C 
ENDBRANCH  22  30
BRANCH  23  34
ATOM     34  O   UNL     1       2.977  -3.561  -7.723  0.00  0.00    -0.506 OA
ATOM     35  H   UNL     1       2.139  -3.089  -7.829  0.00  0.00    +0.292 HD
ENDBRANCH  23  34
ENDBRANCH  10  20
BRANCH   8  36
ATOM     36  N   UNL     1       4.949  -9.615  -3.022  0.00  0.00    -0.328 N 
ATOM     37  H   UNL     1       4.673 -10.545  -3.010  0.00  0.00    +0.145 HD
ATOM     38  H   UNL     1       5.885  -9.389  -3.138  0.00  0.00    +0.145 HD
ENDBRANCH   8  36
BRANCH   9  39
ATOM     39  C   UNL     1       5.852  -7.100  -3.071  0.00  0.00    +0.101 C 
ATOM     40  N   UNL     1       6.963  -6.909  -3.207  0.00  0.00    -0.191 NA
ENDBRANCH   9  39
TORSDOF 9
