REMARK  Name = ZINC52717252
REMARK  2 active torsions:
REMARK  status: ('A' for Active; 'I' for Inactive)
REMARK    1  A    between atoms: C_3  and  C_8
REMARK    2  A    between atoms: C_8  and  N_9
REMARK                            x       y       z     vdW  Elec       q    Type
REMARK                         _______ _______ _______ _____ _____    ______ ____
ROOT
ATOM      1  N   UNL     1       4.255   2.062   1.336  0.00  0.00    -0.291 NA
ATOM      2  C   UNL     1       4.710   0.720   1.729  0.00  0.00    +0.113 C 
ATOM      3  C   UNL     1       5.240   0.761   3.164  0.00  0.00    +0.175 C 
ATOM      4  O   UNL     1       6.279   1.740   3.262  0.00  0.00    -0.374 OA
ATOM      5  C   UNL     1       5.859   3.054   2.891  0.00  0.00    +0.135 C 
ATOM      6  C   UNL     1       5.354   3.030   1.446  0.00  0.00    +0.086 C 
ATOM      7  C   UNL     1       4.866   4.426   1.059  0.00  0.00    +0.021 C 
ATOM      8  C   UNL     1       6.029   5.415   1.171  0.00  0.00    +0.002 C 
ATOM      9  C   UNL     1       6.554   5.433   2.607  0.00  0.00    +0.003 C 
ATOM     10  C   UNL     1       7.029   4.031   2.998  0.00  0.00    +0.033 C 
ENDROOT
BRANCH   1  11
ATOM     11  C   UNL     1       3.696   2.051  -0.023  0.00  0.00    +0.123 C 
BRANCH  11  14
ATOM     12  C   UNL     1       1.334  -0.826  -0.637  0.00  0.00    +0.020 A 
ATOM     13  C   UNL     1       2.495  -0.068  -0.634  0.00  0.00    +0.009 A 
ATOM     14  C   UNL     1       2.460   1.189  -0.051  0.00  0.00    +0.003 A 
ATOM     15  C   UNL     1       1.277   1.642   0.505  0.00  0.00    +0.134 A 
ATOM     16  N   UNL     1       0.191   0.892   0.483  0.00  0.00    -0.243 NA
ATOM     17  C   UNL     1       0.189  -0.308  -0.063  0.00  0.00    +0.112 A 
ATOM     18 CL   UNL     1       1.219   3.215   1.238  0.00  0.00    -0.062 Cl
ENDBRANCH  11  14
ENDBRANCH   1  11
TORSDOF 2
