REMARK  Name = ZINC08644924
REMARK  8 active torsions:
REMARK  status: ('A' for Active; 'I' for Inactive)
REMARK    1  A    between atoms: C_1  and  C_2
REMARK    2  A    between atoms: C_8  and  N_10
REMARK    3  A    between atoms: C_11  and  C_13
REMARK    4  A    between atoms: C_13  and  C_15
REMARK    5  A    between atoms: C_13  and  S_16
REMARK    6  A    between atoms: S_16  and  C_17
REMARK    7  A    between atoms: C_20  and  C_23
REMARK    8  A    between atoms: N_21  and  N_22
REMARK                            x       y       z     vdW  Elec       q    Type
REMARK                         _______ _______ _______ _____ _____    ______ ____
ROOT
ATOM      1  C   UNL     1       1.673   1.884  -7.245  0.00  0.00    +0.209 A 
ATOM      2  N   UNL     1       2.162   0.665  -7.190  0.00  0.00    -0.121 NA
ATOM      3  N   UNL     1       2.885   0.433  -8.227  0.00  0.00    -0.127 NA
ATOM      4  C   UNL     1       2.903   1.488  -9.007  0.00  0.00    +0.183 A 
ATOM      5  N   UNL     1       2.122   2.449  -8.405  0.00  0.00    -0.224 N 
ENDROOT
BRANCH   4   6
ATOM      6  C   UNL     1       3.621   1.619 -10.292  0.00  0.00    +0.039 A 
ATOM      7  C   UNL     1       4.386   2.756 -10.555  0.00  0.00    +0.014 A 
ATOM      8  C   UNL     1       5.058   2.870 -11.755  0.00  0.00    +0.021 A 
ATOM      9  C   UNL     1       4.966   1.864 -12.702  0.00  0.00    +0.042 A 
ATOM     10  C   UNL     1       4.205   0.736 -12.450  0.00  0.00    +0.040 A 
ATOM     11  C   UNL     1       3.532   0.607 -11.251  0.00  0.00    +0.053 A 
ATOM     12 CL   UNL     1       2.577  -0.808 -10.937  0.00  0.00    -0.083 Cl
ATOM     13 CL   UNL     1       5.809   2.019 -14.211  0.00  0.00    -0.083 Cl
ENDBRANCH   4   6
BRANCH   5  14
ATOM     14  N   UNL     1       1.855   3.705  -8.870  0.00  0.00    -0.295 N 
ATOM     15  H   UNL     1       2.586   4.350  -8.610  0.00  0.00    +0.163 HD
ATOM     16  H   UNL     1       1.716   3.699  -9.869  0.00  0.00    +0.163 HD
ENDBRANCH   5  14
BRANCH   1  17
ATOM     17  S   UNL     1       0.627   2.646  -6.049  0.00  0.00    -0.072 S 
BRANCH  17  18
ATOM     18  C   UNL     1       0.484   1.296  -4.851  0.00  0.00    +0.137 C 
ATOM     19  C   UNL     1      -0.248   0.117  -5.496  0.00  0.00    +0.029 C 
BRANCH  18  21
ATOM     20  N   UNL     1      -0.111   1.174  -2.454  0.00  0.00    -0.311 N 
ATOM     21  C   UNL     1      -0.289   1.771  -3.649  0.00  0.00    +0.226 C 
ATOM     22  O   UNL     1      -1.072   2.691  -3.756  0.00  0.00    -0.275 OA
ATOM     23  H   UNL     1       0.515   0.438  -2.368  0.00  0.00    +0.149 HD
BRANCH  20  30
ATOM     24  C   UNL     1       1.278   1.967  -0.039  0.00  0.00    +0.009 C 
ATOM     25  C   UNL     1      -0.092   1.285  -0.011  0.00  0.00    +0.006 C 
ATOM     26  C   UNL     1      -0.877   1.767   1.210  0.00  0.00    +0.005 C 
ATOM     27  C   UNL     1      -2.246   1.085   1.239  0.00  0.00    +0.000 C 
ATOM     28  C   UNL     1      -3.017   1.436  -0.035  0.00  0.00    +0.002 C 
ATOM     29  C   UNL     1      -2.232   0.954  -1.256  0.00  0.00    +0.022 C 
ATOM     30  C   UNL     1      -0.863   1.636  -1.284  0.00  0.00    +0.076 C 
ENDBRANCH  20  30
ENDBRANCH  18  21
ENDBRANCH  17  18
ENDBRANCH   1  17
TORSDOF 6
