REMARK  Name = ZINC36231834
REMARK  6 active torsions:
REMARK  status: ('A' for Active; 'I' for Inactive)
REMARK    1  A    between atoms: C_1  and  C_2
REMARK    2  A    between atoms: C_2  and  C_21
REMARK    3  A    between atoms: N_4  and  C_8
REMARK    4  A    between atoms: C_8  and  C_9
REMARK    5  A    between atoms: N_11  and  C_12
REMARK    6  A    between atoms: C_13  and  N_20
REMARK                            x       y       z     vdW  Elec       q    Type
REMARK                         _______ _______ _______ _____ _____    ______ ____
ROOT
ATOM      1  C   UNL     1       2.645  -4.031  -2.687  0.00  0.00    +0.231 C 
ATOM      2  O   UNL     1       3.295  -4.650  -1.870  0.00  0.00    -0.274 OA
ATOM      3  N   UNL     1       1.805  -4.683  -3.514  0.00  0.00    -0.282 N 
ATOM      4  H   UNL     1       1.233  -4.183  -4.117  0.00  0.00    +0.155 HD
ENDROOT
BRANCH   3   5
ATOM      5  C   UNL     1       1.759  -6.085  -3.505  0.00  0.00    +0.073 A 
ATOM      6  C   UNL     1       2.624  -6.818  -4.316  0.00  0.00    +0.049 A 
ATOM      7  C   UNL     1       2.574  -8.204  -4.302  0.00  0.00    +0.044 A 
ATOM      8  C   UNL     1       1.668  -8.856  -3.485  0.00  0.00    +0.044 A 
ATOM      9  C   UNL     1       0.809  -8.128  -2.680  0.00  0.00    +0.042 A 
ATOM     10  C   UNL     1       0.856  -6.745  -2.684  0.00  0.00    +0.065 A 
ATOM     11 CL   UNL     1      -0.218  -5.837  -1.667  0.00  0.00    -0.082 Cl
ATOM     12 CL   UNL     1       1.607 -10.591  -3.470  0.00  0.00    -0.083 Cl
BRANCH   6  13
ATOM     13  N   UNL     1       3.540  -6.158  -5.142  0.00  0.00    -0.356 N 
ATOM     14  H   UNL     1       3.574  -5.189  -5.151  0.00  0.00    +0.142 HD
ATOM     15  H   UNL     1       4.141  -6.669  -5.706  0.00  0.00    +0.142 HD
ENDBRANCH   6  13
ENDBRANCH   3   5
BRANCH   1  16
ATOM     16  C   UNL     1       2.778  -2.532  -2.775  0.00  0.00    +0.181 C 
BRANCH  16  20
ATOM     17  C   UNL     1       4.755   1.365  -0.510  0.00  0.00    +0.042 C 
ATOM     18  C   UNL     1       4.708  -0.163  -0.573  0.00  0.00    +0.077 C 
ATOM     19  C   UNL     1       3.730  -0.601  -1.666  0.00  0.00    +0.119 C 
ATOM     20  N   UNL     1       3.747  -2.067  -1.774  0.00  0.00    -0.289 NA
ATOM     21  C   UNL     1       5.100  -2.550  -2.087  0.00  0.00    +0.113 C 
ATOM     22  C   UNL     1       6.065  -2.093  -0.990  0.00  0.00    +0.176 C 
ATOM     23  O   UNL     1       6.011  -0.668  -0.877  0.00  0.00    -0.371 OA
ATOM     24  C   UNL     1       4.249  -0.716   0.777  0.00  0.00    +0.042 C 
ENDBRANCH  16  20
ENDBRANCH   1  16
TORSDOF 4
