REMARK  Name = ZINC04222104
REMARK  10 active torsions:
REMARK  status: ('A' for Active; 'I' for Inactive)
REMARK    1  A    between atoms: C_1  and  C_2
REMARK    2  A    between atoms: C_10  and  C_12
REMARK    3  A    between atoms: C_19  and  C_43
REMARK    4  A    between atoms: C_22  and  O_42
REMARK    5  A    between atoms: C_24  and  C_28
REMARK    6  A    between atoms: C_28  and  C_30
REMARK    7  A    between atoms: C_28  and  C_31
REMARK    8  A    between atoms: N_33  and  C_34
REMARK    9  A    between atoms: N_33  and  C_35
REMARK   10  A    between atoms: C_35  and  C_36
REMARK                            x       y       z     vdW  Elec       q    Type
REMARK                         _______ _______ _______ _____ _____    ______ ____
ROOT
ATOM      1  C   UNL     1       0.015   1.411   0.008  0.00  0.00    +0.014 C 
ATOM      2  C   UNL     1      -0.645   1.894   1.301  0.00  0.00    +0.042 C 
ATOM      3  C   UNL     1      -0.355   3.377   1.496  0.00  0.00    +0.057 A 
ATOM      4  C   UNL     1       0.603   3.773   2.354  0.00  0.00    +0.015 A 
ATOM      5  S   UNL     1       0.556   5.538   2.191  0.00  0.00    -0.057 S 
ATOM      6  C   UNL     1      -0.700   5.607   0.991  0.00  0.00    +0.165 A 
ATOM      7  N   UNL     1      -0.980   4.333   0.810  0.00  0.00    -0.229 NA
ATOM      8  N   UNL     1      -1.264   6.720   0.380  0.00  0.00    -0.259 N 
ATOM      9  C   UNL     1      -0.835   7.956   0.704  0.00  0.00    +0.270 C 
ATOM     10  O   UNL     1       0.044   8.097   1.531  0.00  0.00    -0.268 OA
ATOM     11  C   UNL     1       1.461   2.926   3.227  0.00  0.00    +0.051 C 
ATOM     12  C   UNL     1       1.386   1.470   2.732  0.00  0.00    -0.022 C 
ATOM     13  C   UNL     1      -0.083   1.112   2.483  0.00  0.00    +0.033 C 
ATOM     14  C   UNL     1      -0.890   1.390   3.750  0.00  0.00    +0.123 C 
ATOM     15  C   UNL     1      -0.358   0.510   4.885  0.00  0.00    +0.029 C 
ATOM     16  C   UNL     1       1.122   0.812   5.123  0.00  0.00    +0.007 C 
ATOM     17  C   UNL     1       1.919   0.553   3.843  0.00  0.00    +0.008 C 
ATOM     18  C   UNL     1       2.206   1.296   1.452  0.00  0.00    +0.012 C 
ATOM     19  H   UNL     1      -1.965   6.608  -0.280  0.00  0.00    +0.157 HD
ENDROOT
BRANCH   9  20
ATOM     20  C   UNL     1      -1.436   9.143   0.053  0.00  0.00    +0.144 A 
ATOM     21  C   UNL     1      -0.994  10.423   0.387  0.00  0.00    +0.143 A 
ATOM     22  N   UNL     1      -1.533  11.478  -0.197  0.00  0.00    -0.259 NA
ATOM     23  C   UNL     1      -2.488  11.321  -1.096  0.00  0.00    +0.130 A 
ATOM     24  C   UNL     1      -2.930  10.049  -1.431  0.00  0.00    +0.131 A 
ATOM     25  N   UNL     1      -2.395   8.991  -0.857  0.00  0.00    -0.247 NA
ENDBRANCH   9  20
BRANCH  15  26
ATOM     26  C   UNL     1      -1.148   0.796   6.163  0.00  0.00    +0.078 C 
ATOM     27  C   UNL     1      -1.000   2.273   6.535  0.00  0.00    +0.017 C 
BRANCH  26  28
ATOM     28  C   UNL     1      -0.617  -0.060   7.284  0.00  0.00    +0.219 C 
ATOM     29  O   UNL     1       0.205   0.390   8.054  0.00  0.00    -0.275 OA
ATOM     30  N   UNL     1      -1.056  -1.325   7.432  0.00  0.00    -0.300 N 
ATOM     31  C   UNL     1      -1.972  -1.903   6.445  0.00  0.00    +0.132 C 
BRANCH  30  32
ATOM     32  C   UNL     1      -0.618  -2.124   8.579  0.00  0.00    +0.142 C 
BRANCH  32  33
ATOM     33  C   UNL     1      -1.577  -1.925   9.725  0.00  0.00    -0.030 A 
ATOM     34  C   UNL     1      -1.357  -0.916  10.644  0.00  0.00    +0.005 A 
ATOM     35  C   UNL     1      -2.239  -0.731  11.692  0.00  0.00    +0.000 A 
ATOM     36  C   UNL     1      -3.336  -1.560  11.827  0.00  0.00    +0.000 A 
ATOM     37  C   UNL     1      -3.553  -2.573  10.911  0.00  0.00    +0.000 A 
ATOM     38  C   UNL     1      -2.674  -2.755   9.860  0.00  0.00    +0.005 A 
ENDBRANCH  32  33
ENDBRANCH  30  32
ENDBRANCH  26  28
ENDBRANCH  15  26
BRANCH  14  39
ATOM     39  O   UNL     1      -2.267   1.087   3.515  0.00  0.00    -0.391 OA
ATOM     40  H   UNL     1      -2.851   1.315   4.252  0.00  0.00    +0.210 HD
ENDBRANCH  14  39
TORSDOF 6
