REMARK  Name = ZINC39231190
REMARK  4 active torsions:
REMARK  status: ('A' for Active; 'I' for Inactive)
REMARK    1  A    between atoms: C_11  and  C_30
REMARK    2  A    between atoms: N_13  and  C_16
REMARK    3  A    between atoms: C_16  and  C_17
REMARK    4  A    between atoms: N_19  and  C_20
REMARK                            x       y       z     vdW  Elec       q    Type
REMARK                         _______ _______ _______ _____ _____    ______ ____
ROOT
ATOM      1  C   UNL     1      -0.013   1.362   0.018  0.00  0.00    +0.001 A 
ATOM      2  C   UNL     1       1.173   2.084   0.002  0.00  0.00    +0.002 A 
ATOM      3  C   UNL     1       2.388   1.436  -0.021  0.00  0.00    +0.026 A 
ATOM      4  C   UNL     1       2.432   0.046  -0.028  0.00  0.00    +0.047 A 
ATOM      5  C   UNL     1       1.226  -0.683  -0.010  0.00  0.00    +0.003 A 
ATOM      6  C   UNL     1       0.006  -0.004   0.012  0.00  0.00    +0.010 A 
ATOM      7  C   UNL     1       1.613  -2.087  -0.021  0.00  0.00    -0.022 A 
ATOM      8  C   UNL     1       2.962  -2.136  -0.045  0.00  0.00    +0.011 A 
ATOM      9  N   UNL     1       3.464  -0.868  -0.048  0.00  0.00    -0.359 N 
ATOM     10  H   UNL     1       4.407  -0.643  -0.062  0.00  0.00    +0.166 HD
ATOM     11  C   UNL     1       3.734  -3.434  -0.068  0.00  0.00    +0.015 C 
ATOM     12  N   UNL     1       2.823  -4.513  -0.482  0.00  0.00    +0.394 N 
ATOM     13  C   UNL     1       1.619  -4.514   0.360  0.00  0.00    -0.072 C 
ATOM     14  C   UNL     1       0.736  -3.313  -0.006  0.00  0.00    +0.019 C 
ATOM     15  H   UNL     1       2.557  -4.374  -1.446  0.00  0.00    -0.080 HD
ENDROOT
BRANCH  11  16
ATOM     16  C   UNL     1       4.876  -3.327  -1.046  0.00  0.00    -0.008 A 
ATOM     17  C   UNL     1       4.718  -3.776  -2.344  0.00  0.00    +0.026 A 
ATOM     18  C   UNL     1       5.763  -3.678  -3.244  0.00  0.00    +0.045 A 
ATOM     19  C   UNL     1       6.971  -3.131  -2.849  0.00  0.00    +0.069 A 
ATOM     20  C   UNL     1       7.135  -2.680  -1.549  0.00  0.00    +0.168 A 
ATOM     21  C   UNL     1       6.080  -2.774  -0.645  0.00  0.00    +0.168 A 
ATOM     22  O   UNL     1       6.486  -2.261   0.554  0.00  0.00    -0.452 OA
ATOM     23  C   UNL     1       7.924  -2.223   0.488  0.00  0.00    +0.466 C 
ATOM     24  O   UNL     1       8.203  -2.112  -0.917  0.00  0.00    -0.453 OA
ATOM     25 CL   UNL     1       5.560  -4.244  -4.873  0.00  0.00    -0.083 Cl
ENDBRANCH  11  16
BRANCH  12  26
ATOM     26  C   UNL     1       3.509  -5.806  -0.352  0.00  0.00    +0.020 C 
BRANCH  26  27
ATOM     27  C   UNL     1       2.624  -6.900  -0.891  0.00  0.00    +0.201 C 
ATOM     28  O   UNL     1       1.530  -6.630  -1.339  0.00  0.00    -0.278 OA
ATOM     29  N   UNL     1       3.049  -8.179  -0.875  0.00  0.00    -0.287 N 
ATOM     30  H   UNL     1       3.949  -8.388  -0.579  0.00  0.00    +0.155 HD
BRANCH  29  31
ATOM     31  C   UNL     1       2.190  -9.208  -1.284  0.00  0.00    +0.037 A 
ATOM     32  C   UNL     1       1.291  -8.990  -2.320  0.00  0.00    +0.027 A 
ATOM     33  C   UNL     1       0.444 -10.004  -2.724  0.00  0.00    +0.051 A 
ATOM     34  C   UNL     1       0.489 -11.241  -2.098  0.00  0.00    +0.162 A 
ATOM     35  C   UNL     1       1.390 -11.462  -1.063  0.00  0.00    +0.164 A 
ATOM     36  C   UNL     1       2.243 -10.446  -0.660  0.00  0.00    +0.072 A 
ATOM     37  O   UNL     1       1.454 -12.672  -0.442  0.00  0.00    -0.485 OA
ATOM     38  C   UNL     1       0.337 -13.548  -0.623  0.00  0.00    +0.270 C 
ATOM     39  C   UNL     1      -0.026 -13.563  -2.114  0.00  0.00    +0.270 C 
ATOM     40  O   UNL     1      -0.357 -12.227  -2.507  0.00  0.00    -0.485 OA
ENDBRANCH  29  31
ENDBRANCH  26  27
ENDBRANCH  12  26
TORSDOF 4
