REMARK  Name = ZINC14383240
REMARK  10 active torsions:
REMARK  status: ('A' for Active; 'I' for Inactive)
REMARK    1  A    between atoms: C_1  and  C_2
REMARK    2  A    between atoms: C_2  and  O_3
REMARK    3  A    between atoms: O_3  and  C_4
REMARK    4  A    between atoms: C_9  and  C_10
REMARK    5  A    between atoms: N_12  and  C_13
REMARK    6  A    between atoms: N_12  and  C_20
REMARK    7  A    between atoms: C_13  and  C_14
REMARK    8  A    between atoms: C_21  and  N_36
REMARK    9  A    between atoms: N_22  and  C_29
REMARK   10  A    between atoms: C_29  and  C_30
REMARK                            x       y       z     vdW  Elec       q    Type
REMARK                         _______ _______ _______ _____ _____    ______ ____
ROOT
ATOM      1  C   UNL     1       3.443   2.996   3.502  0.00  0.00    +0.255 C 
ATOM      2  O   UNL     1       4.223   2.759   4.404  0.00  0.00    -0.269 OA
ATOM      3  N   UNL     1       3.864   3.649   2.401  0.00  0.00    -0.256 N 
ENDROOT
BRANCH   3   4
ATOM      4  C   UNL     1       2.947   3.970   1.378  0.00  0.00    +0.140 A 
ATOM      5  C   UNL     1       3.178   3.568   0.078  0.00  0.00    +0.128 A 
ATOM      6  N   UNL     1       2.268   3.901  -0.899  0.00  0.00    -0.276 N 
ATOM      7  C   UNL     1       1.162   4.601  -0.589  0.00  0.00    +0.331 A 
ATOM      8  O   UNL     1       0.367   4.881  -1.466  0.00  0.00    -0.246 OA
ATOM      9  N   UNL     1       0.918   4.997   0.673  0.00  0.00    -0.273 N 
ATOM     10  H   UNL     1       0.089   5.517   0.876  0.00  0.00    +0.173 HD
ATOM     11  C   UNL     1       1.780   4.702   1.666  0.00  0.00    +0.277 A 
ATOM     12  O   UNL     1       1.550   5.066   2.807  0.00  0.00    -0.266 OA
BRANCH   5  13
ATOM     13  N   UNL     1       4.305   2.848  -0.238  0.00  0.00    -0.343 N 
ATOM     14  H   UNL     1       4.517   2.661  -1.166  0.00  0.00    +0.144 HD
ATOM     15  H   UNL     1       4.888   2.527   0.467  0.00  0.00    +0.144 HD
ENDBRANCH   5  13
BRANCH   6  16
ATOM     16  C   UNL     1       2.502   3.484  -2.284  0.00  0.00    +0.163 C 
BRANCH  16  17
ATOM     17  C   UNL     1       3.280   4.554  -3.005  0.00  0.00    -0.028 A 
ATOM     18  C   UNL     1       2.613   5.565  -3.671  0.00  0.00    +0.005 A 
ATOM     19  C   UNL     1       3.327   6.549  -4.329  0.00  0.00    +0.000 A 
ATOM     20  C   UNL     1       4.709   6.516  -4.329  0.00  0.00    +0.000 A 
ATOM     21  C   UNL     1       5.377   5.503  -3.668  0.00  0.00    +0.000 A 
ATOM     22  C   UNL     1       4.662   4.522  -3.006  0.00  0.00    +0.005 A 
ENDBRANCH  16  17
ENDBRANCH   6  16
ENDBRANCH   3   4
BRANCH   1  28
ATOM     23  C   UNL     1       1.440   2.425   4.874  0.00  0.00    +0.133 A 
ATOM     24  C   UNL     1       0.115   2.024   4.967  0.00  0.00    +0.046 A 
ATOM     25  C   UNL     1      -0.612   1.768   3.822  0.00  0.00    +0.004 A 
ATOM     26  C   UNL     1      -0.028   1.909   2.574  0.00  0.00    +0.001 A 
ATOM     27  C   UNL     1       1.286   2.312   2.463  0.00  0.00    +0.017 A 
ATOM     28  C   UNL     1       2.035   2.570   3.614  0.00  0.00    +0.079 A 
BRANCH  23  29
ATOM     29  O   UNL     1       2.156   2.678   5.998  0.00  0.00    -0.491 OA
BRANCH  29  31
ATOM     30  C   UNL     1       2.443   2.838   8.393  0.00  0.00    +0.048 C 
ATOM     31  C   UNL     1       1.482   2.510   7.248  0.00  0.00    +0.226 C 
ENDBRANCH  29  31
ENDBRANCH  23  29
ENDBRANCH   1  28
BRANCH   3  32
ATOM     32  C   UNL     1       5.273   4.026   2.267  0.00  0.00    +0.149 C 
BRANCH  32  33
ATOM     33  C   UNL     1       5.512   5.337   2.970  0.00  0.00    -0.030 A 
ATOM     34  C   UNL     1       5.263   6.528   2.315  0.00  0.00    +0.005 A 
ATOM     35  C   UNL     1       5.477   7.731   2.962  0.00  0.00    +0.000 A 
ATOM     36  C   UNL     1       5.951   7.742   4.261  0.00  0.00    +0.000 A 
ATOM     37  C   UNL     1       6.206   6.551   4.914  0.00  0.00    +0.000 A 
ATOM     38  C   UNL     1       5.986   5.348   4.268  0.00  0.00    +0.005 A 
ENDBRANCH  32  33
ENDBRANCH   3  32
TORSDOF 9
