REMARK  Name = ZINC65286719
REMARK  4 active torsions:
REMARK  status: ('A' for Active; 'I' for Inactive)
REMARK    1  A    between atoms: C_1  and  C_2
REMARK    2  A    between atoms: C_4  and  C_8
REMARK    3  A    between atoms: N_13  and  C_15
REMARK    4  A    between atoms: C_15  and  C_16
REMARK                            x       y       z     vdW  Elec       q    Type
REMARK                         _______ _______ _______ _____ _____    ______ ____
ROOT
ATOM      1  C   UNL     1      -1.137  -2.862   1.248  0.00  0.00    +0.011 C 
ATOM      2  C   UNL     1      -2.666  -2.805   1.292  0.00  0.00    +0.003 C 
ATOM      3  C   UNL     1      -3.162  -3.593   2.508  0.00  0.00    -0.018 C 
ATOM      4  C   UNL     1      -2.637  -5.028   2.427  0.00  0.00    -0.078 C 
ATOM      5  N   UNL     1      -1.169  -5.016   2.415  0.00  0.00    +0.385 N 
ATOM      6  C   UNL     1      -0.686  -4.324   1.214  0.00  0.00    -0.071 C 
ATOM      7  H   UNL     1      -0.831  -4.537   3.236  0.00  0.00    -0.081 HD
ENDROOT
BRANCH   1  11
ATOM      8  C   UNL     1      -0.018   1.503   0.010  0.00  0.00    +0.082 C 
ATOM      9  C   UNL     1       0.002  -0.004   0.002  0.00  0.00    +0.080 C 
ATOM     10  N   UNL     1      -1.059  -0.735   0.003  0.00  0.00    -0.359 N 
ATOM     11  C   UNL     1      -0.635  -2.143  -0.006  0.00  0.00    +0.166 C 
ATOM     12  N   UNL     1       0.841  -2.080  -0.013  0.00  0.00    -0.220 NA
ATOM     13  N   UNL     1       1.144  -0.746  -0.013  0.00  0.00    -0.268 N 
ATOM     14  H   UNL     1       1.218  -2.533  -0.832  0.00  0.00    +0.146 HD
ATOM     15  H   UNL     1       2.043  -0.382  -0.020  0.00  0.00    +0.167 HD
ATOM     16  H   UNL     1      -1.974  -0.414   0.010  0.00  0.00    +0.162 HD
ENDBRANCH   1  11
BRANCH   5  17
ATOM     17  C   UNL     1      -0.669  -6.397   2.416  0.00  0.00    -0.003 C 
BRANCH  17  18
ATOM     18  C   UNL     1      -1.052  -7.069   3.709  0.00  0.00    +0.090 A 
ATOM     19  C   UNL     1      -2.183  -7.762   3.931  0.00  0.00    +0.044 A 
ATOM     20  C   UNL     1      -2.131  -8.214   5.270  0.00  0.00    +0.057 A 
ATOM     21  C   UNL     1      -0.971  -7.770   5.787  0.00  0.00    +0.170 A 
ATOM     22  O   UNL     1      -0.319  -7.082   4.835  0.00  0.00    -0.455 OA
ATOM     23 BR   UNL     1      -0.358  -8.070   7.550  0.00  0.00    -0.008 Br
ENDBRANCH  17  18
ENDBRANCH   5  17
TORSDOF 3
