REMARK  Name = ZINC38872605
REMARK  10 active torsions:
REMARK  status: ('A' for Active; 'I' for Inactive)
REMARK    1  A    between atoms: C_3  and  C_6
REMARK    2  A    between atoms: C_6  and  S_7
REMARK    3  A    between atoms: S_7  and  C_8
REMARK    4  A    between atoms: C_8  and  C_9
REMARK    5  A    between atoms: C_9  and  C_10
REMARK    6  A    between atoms: C_10  and  N_11
REMARK    7  A    between atoms: C_12  and  C_14
REMARK    8  A    between atoms: N_17  and  C_20
REMARK    9  A    between atoms: C_20  and  C_21
REMARK   10  A    between atoms: C_23  and  C_26
REMARK                            x       y       z     vdW  Elec       q    Type
REMARK                         _______ _______ _______ _____ _____    ______ ____
ROOT
ATOM      1  C   UNL     1      10.826   0.430   5.491  0.00  0.00    +0.071 C 
ATOM      2  C   UNL     1      10.432   1.690   6.266  0.00  0.00    -0.006 C 
ATOM      3  C   UNL     1      11.157   1.701   7.614  0.00  0.00    -0.077 C 
ATOM      4  N   UNL     1      12.608   1.693   7.394  0.00  0.00    +0.386 N 
ATOM      5  C   UNL     1      13.002   0.454   6.714  0.00  0.00    -0.077 C 
ATOM      6  C   UNL     1      12.349   0.395   5.332  0.00  0.00    -0.006 C 
ATOM      7  H   UNL     1      12.865   2.485   6.823  0.00  0.00    -0.081 HD
ENDROOT
BRANCH   1   9
ATOM      8  N   UNL     1       8.834   0.483   4.026  0.00  0.00    -0.315 N 
ATOM      9  C   UNL     1      10.177   0.452   4.131  0.00  0.00    +0.216 C 
ATOM     10  O   UNL     1      10.864   0.441   3.131  0.00  0.00    -0.276 OA
ATOM     11  H   UNL     1       8.285   0.492   4.825  0.00  0.00    +0.149 HD
BRANCH   8  12
ATOM     12  C   UNL     1       8.203   0.504   2.704  0.00  0.00    +0.105 C 
BRANCH  12  13
ATOM     13  C   UNL     1       6.682   0.539   2.865  0.00  0.00    +0.029 C 
BRANCH  13  14
ATOM     14  C   UNL     1       6.024   0.561   1.484  0.00  0.00    +0.071 C 
BRANCH  14  15
ATOM     15  S   UNL     1       4.220   0.602   1.675  0.00  0.00    -0.153 S 
BRANCH  15  16
ATOM     16  C   UNL     1       3.599   0.625  -0.029  0.00  0.00    +0.143 C 
BRANCH  16  19
ATOM     17  C   UNL     1      -0.016   1.341   0.009  0.00  0.00    +0.041 A 
ATOM     18  C   UNL     1       1.331   1.769  -0.001  0.00  0.00    +0.045 A 
ATOM     19  C   UNL     1       2.092   0.660  -0.014  0.00  0.00    +0.115 A 
ATOM     20  O   UNL     1       1.282  -0.411  -0.012  0.00  0.00    -0.467 OA
ATOM     21  C   UNL     1       0.002  -0.004   0.002  0.00  0.00    +0.195 A 
ENDBRANCH  16  19
ENDBRANCH  15  16
ENDBRANCH  14  15
ENDBRANCH  13  14
ENDBRANCH  12  13
ENDBRANCH   8  12
ENDBRANCH   1   9
BRANCH   4  22
ATOM     22  C   UNL     1      13.299   1.782   8.687  0.00  0.00    +0.022 C 
BRANCH  22  23
ATOM     23  C   UNL     1      14.784   1.898   8.457  0.00  0.00    +0.211 A 
ATOM     24  N   UNL     1      15.448   3.010   8.319  0.00  0.00    -0.193 NA
ATOM     25  C   UNL     1      16.753   2.747   8.129  0.00  0.00    +0.203 A 
ATOM     26  N   UNL     1      16.924   1.448   8.144  0.00  0.00    -0.056 NA
ATOM     27  O   UNL     1      15.644   0.876   8.364  0.00  0.00    -0.340 OA
BRANCH  25  28
ATOM     28  C   UNL     1      17.821   3.758   7.933  0.00  0.00    +0.041 A 
ATOM     29  C   UNL     1      17.508   5.116   7.943  0.00  0.00    +0.014 A 
ATOM     30  C   UNL     1      18.504   6.053   7.761  0.00  0.00    +0.021 A 
ATOM     31  C   UNL     1      19.814   5.647   7.569  0.00  0.00    +0.042 A 
ATOM     32  C   UNL     1      20.131   4.300   7.557  0.00  0.00    +0.040 A 
ATOM     33  C   UNL     1      19.142   3.354   7.744  0.00  0.00    +0.053 A 
ATOM     34 CL   UNL     1      19.542   1.664   7.737  0.00  0.00    -0.083 Cl
ATOM     35 CL   UNL     1      21.062   6.831   7.340  0.00  0.00    -0.083 Cl
ENDBRANCH  25  28
ENDBRANCH  22  23
ENDBRANCH   4  22
TORSDOF 10
