REMARK  Name = ZINC34942400
REMARK  5 active torsions:
REMARK  status: ('A' for Active; 'I' for Inactive)
REMARK    1  A    between atoms: C_7  and  C_11
REMARK    2  A    between atoms: C_11  and  C_12
REMARK    3  A    between atoms: C_12  and  C_14
REMARK    4  A    between atoms: C_12  and  N_22
REMARK    5  A    between atoms: C_23  and  C_25
REMARK                            x       y       z     vdW  Elec       q    Type
REMARK                         _______ _______ _______ _____ _____    ______ ____
ROOT
ATOM      1  C   UNL     1       0.236  -3.589  -1.456  0.00  0.00    +0.164 C 
ENDROOT
BRANCH   1   2
ATOM      2  C   UNL     1      -0.497  -4.906  -1.483  0.00  0.00    +0.236 C 
ATOM      3  O   UNL     1      -1.703  -4.926  -1.606  0.00  0.00    -0.274 OA
ATOM      4  N   UNL     1       0.189  -6.061  -1.372  0.00  0.00    -0.300 N 
ATOM      5  C   UNL     1       1.634  -6.051  -1.108  0.00  0.00    +0.108 C 
ATOM      6  C   UNL     1       1.916  -6.923   0.120  0.00  0.00    +0.019 C 
ATOM      7  C   UNL     1       1.327  -8.318  -0.103  0.00  0.00    +0.003 C 
ATOM      8  C   UNL     1      -0.189  -8.210  -0.281  0.00  0.00    +0.019 C 
ATOM      9  C   UNL     1      -0.497  -7.354  -1.507  0.00  0.00    +0.108 C 
ENDBRANCH   1   2
BRANCH   1  10
ATOM     10  N   UNL     1      -0.536  -2.585  -2.191  0.00  0.00    -0.300 N 
ATOM     11  C   UNL     1      -0.407  -2.481  -3.528  0.00  0.00    +0.245 C 
ATOM     12  O   UNL     1       0.351  -3.221  -4.124  0.00  0.00    -0.270 OA
ATOM     13  H   UNL     1      -1.141  -1.994  -1.715  0.00  0.00    +0.150 HD
BRANCH  11  14
ATOM     14  C   UNL     1      -1.186  -1.467  -4.270  0.00  0.00    +0.038 A 
ATOM     15  C   UNL     1      -2.053  -0.612  -3.587  0.00  0.00    +0.013 A 
ATOM     16  C   UNL     1      -2.778   0.332  -4.285  0.00  0.00    +0.002 A 
ATOM     17  C   UNL     1      -2.647   0.432  -5.659  0.00  0.00    +0.015 A 
ATOM     18  C   UNL     1      -1.790  -0.413  -6.343  0.00  0.00    +0.019 A 
ATOM     19  C   UNL     1      -1.054  -1.357  -5.655  0.00  0.00    +0.028 A 
ATOM     20 BR   UNL     1      -1.621  -0.268  -8.220  0.00  0.00    -0.050 Br
ENDBRANCH  11  14
ENDBRANCH   1  10
BRANCH   1  21
ATOM     21  C   UNL     1       0.414  -3.135  -0.005  0.00  0.00    +0.069 C 
BRANCH  21  28
ATOM     22  C   UNL     1      -0.536   1.430  -0.488  0.00  0.00    +0.001 A 
ATOM     23  C   UNL     1       0.591   2.232  -0.376  0.00  0.00    +0.002 A 
ATOM     24  C   UNL     1       1.830   1.674  -0.148  0.00  0.00    +0.026 A 
ATOM     25  C   UNL     1       1.955   0.294  -0.027  0.00  0.00    +0.047 A 
ATOM     26  C   UNL     1       0.809  -0.514  -0.140  0.00  0.00    +0.003 A 
ATOM     27  C   UNL     1      -0.437   0.072  -0.372  0.00  0.00    +0.010 A 
ATOM     28  C   UNL     1       1.268  -1.895   0.032  0.00  0.00    -0.020 A 
ATOM     29  C   UNL     1       2.595  -1.845   0.228  0.00  0.00    +0.087 A 
ATOM     30  N   UNL     1       3.023  -0.545   0.197  0.00  0.00    -0.360 N 
ATOM     31  H   UNL     1       3.942  -0.258   0.315  0.00  0.00    +0.165 HD
ENDBRANCH  21  28
ENDBRANCH   1  21
TORSDOF 5
