REMARK  Name = ZINC19791845
REMARK  7 active torsions:
REMARK  status: ('A' for Active; 'I' for Inactive)
REMARK    1  A    between atoms: C_1  and  C_2
REMARK    2  A    between atoms: C_2  and  C_21
REMARK    3  A    between atoms: C_8  and  O_10
REMARK    4  A    between atoms: O_10  and  C_11
REMARK    5  A    between atoms: C_12  and  C_19
REMARK    6  A    between atoms: C_13  and  O_17
REMARK    7  A    between atoms: O_17  and  C_18
REMARK                            x       y       z     vdW  Elec       q    Type
REMARK                         _______ _______ _______ _____ _____    ______ ____
ROOT
ATOM      1  C   UNL     1      -1.003   7.795  -0.083  0.00  0.00    +0.058 C 
ATOM      2  C   UNL     1      -1.080   6.323  -0.494  0.00  0.00    +0.122 C 
ATOM      3  N   UNL     1      -2.303   5.715   0.058  0.00  0.00    -0.304 N 
ATOM      4  C   UNL     1      -2.400   4.331   0.048  0.00  0.00    +0.135 A 
ATOM      5  C   UNL     1      -1.206   3.582   0.034  0.00  0.00    +0.063 A 
ATOM      6  C   UNL     1      -1.277   2.169   0.020  0.00  0.00    +0.016 A 
ATOM      7  C   UNL     1      -2.537   1.568   0.019  0.00  0.00    +0.077 A 
ATOM      8  C   UNL     1      -3.656   2.382   0.027  0.00  0.00    +0.217 A 
ATOM      9  N   UNL     1      -3.561   3.709   0.052  0.00  0.00    -0.197 NA
ATOM     10  C   UNL     1      -0.017   1.428   0.010  0.00  0.00    +0.121 A 
ATOM     11  C   UNL     1       1.172   2.172   0.003  0.00  0.00    +0.235 A 
ATOM     12  N   UNL     1       1.162   3.498   0.010  0.00  0.00    -0.196 NA
ATOM     13  C   UNL     1       0.055   4.215   0.027  0.00  0.00    +0.135 A 
ATOM     14  N   UNL     1       0.086   5.599   0.039  0.00  0.00    -0.304 N 
ATOM     15  H   UNL     1      -3.103   6.355   0.460  0.00  0.00    +0.150 HD
ATOM     16  H   UNL     1       0.949   6.159   0.432  0.00  0.00    +0.150 HD
ENDROOT
BRANCH   2  17
ATOM     17  C   UNL     1      -1.097   6.218  -1.998  0.00  0.00    -0.007 A 
ATOM     18  C   UNL     1       0.091   6.109  -2.696  0.00  0.00    +0.008 A 
ATOM     19  C   UNL     1       0.076   6.008  -4.074  0.00  0.00    +0.015 A 
ATOM     20  C   UNL     1      -1.127   6.027  -4.756  0.00  0.00    +0.018 A 
ATOM     21  C   UNL     1      -2.315   6.142  -4.057  0.00  0.00    +0.015 A 
ATOM     22  C   UNL     1      -2.300   6.238  -2.678  0.00  0.00    +0.008 A 
ATOM     23 BR   UNL     1      -1.148   5.895  -6.642  0.00  0.00    -0.050 Br
ENDBRANCH   2  17
BRANCH   8  24
ATOM     24  O   UNL     1      -4.886   1.810   0.026  0.00  0.00    -0.480 OA
ATOM     25  C   UNL     1      -6.011   2.690   0.035  0.00  0.00    +0.279 C 
ENDBRANCH   8  24
BRANCH  11  26
ATOM     26  O   UNL     1       2.358   1.520  -0.013  0.00  0.00    -0.479 OA
ATOM     27  C   UNL     1       3.540   2.324  -0.020  0.00  0.00    +0.279 C 
ENDBRANCH  11  26
BRANCH  10  28
ATOM     28  C   UNL     1       0.002  -0.004   0.002  0.00  0.00    +0.105 C 
ATOM     29  N   UNL     1       0.018  -1.140  -0.004  0.00  0.00    -0.191 NA
ENDBRANCH  10  28
TORSDOF 4
