REMARK  Name = ZINC21539189
REMARK  3 active torsions:
REMARK  status: ('A' for Active; 'I' for Inactive)
REMARK    1  A    between atoms: C_17  and  C_19
REMARK    2  A    between atoms: N_28  and  C_29
REMARK    3  A    between atoms: C_29  and  C_30
REMARK                            x       y       z     vdW  Elec       q    Type
REMARK                         _______ _______ _______ _____ _____    ______ ____
ROOT
ATOM      1  C   UNL     1       1.146   1.123  -4.092  0.00  0.00    +0.020 A 
ATOM      2  C   UNL     1       0.796  -0.015  -3.334  0.00  0.00    +0.025 A 
ATOM      3  C   UNL     1       1.130   0.233  -2.059  0.00  0.00    +0.049 A 
ATOM      4  N   UNL     1       1.633   1.512  -1.993  0.00  0.00    -0.312 N 
ATOM      5  C   UNL     1       1.668   2.035  -3.240  0.00  0.00    +0.092 A 
ATOM      6  C   UNL     1       1.959   2.054  -0.757  0.00  0.00    +0.090 A 
ATOM      7  C   UNL     1       1.177   1.955   0.351  0.00  0.00    +0.005 A 
ATOM      8  C   UNL     1       1.677   2.530   1.537  0.00  0.00    -0.030 A 
ATOM      9  C   UNL     1       2.878   3.163   1.474  0.00  0.00    -0.005 A 
ATOM     10  S   UNL     1       3.369   2.974  -0.222  0.00  0.00    -0.075 S 
ATOM     11  C   UNL     1       3.605   3.853   2.581  0.00  0.00    +0.043 C 
ATOM     12  C   UNL     1       2.627   4.054   3.749  0.00  0.00    +0.005 C 
ATOM     13  C   UNL     1       1.890   2.736   4.004  0.00  0.00    +0.005 C 
ATOM     14  C   UNL     1       0.916   2.453   2.858  0.00  0.00    +0.036 C 
ATOM     15  C   UNL     1      -0.164   1.258   0.275  0.00  0.00    +0.148 C 
ATOM     16  N   UNL     1      -0.038  -0.197   0.075  0.00  0.00    -0.269 N 
ATOM     17  C   UNL     1       1.022  -0.654  -0.855  0.00  0.00    +0.155 C 
ATOM     18  C   UNL     1      -0.848  -1.070   0.706  0.00  0.00    +0.304 C 
ATOM     19  O   UNL     1      -0.718  -2.264   0.519  0.00  0.00    -0.253 OA
ATOM     20  N   UNL     1      -1.801  -0.618   1.545  0.00  0.00    -0.295 N 
ATOM     21  H   UNL     1      -1.919   0.462   1.715  0.00  0.00    +0.151 HD
ENDROOT
BRANCH  17  22
ATOM     22  C   UNL     1       2.343  -0.656  -0.130  0.00  0.00    -0.021 A 
ATOM     23  C   UNL     1       3.525  -0.612  -0.846  0.00  0.00    +0.008 A 
ATOM     24  C   UNL     1       4.737  -0.608  -0.182  0.00  0.00    +0.038 A 
ATOM     25  C   UNL     1       4.767  -0.660   1.201  0.00  0.00    +0.123 A 
ATOM     26  C   UNL     1       3.584  -0.710   1.918  0.00  0.00    +0.038 A 
ATOM     27  C   UNL     1       2.373  -0.707   1.251  0.00  0.00    +0.008 A 
ATOM     28  F   UNL     1       5.952  -0.663   1.852  0.00  0.00    -0.205 F 
ENDBRANCH  17  22
BRANCH  20  29
ATOM     29  C   UNL     1      -2.682  -1.567   2.232  0.00  0.00    +0.141 C 
BRANCH  29  30
ATOM     30  C   UNL     1      -3.651  -0.812   3.104  0.00  0.00    -0.030 A 
ATOM     31  C   UNL     1      -3.323  -0.530   4.417  0.00  0.00    +0.008 A 
ATOM     32  C   UNL     1      -4.210   0.167   5.217  0.00  0.00    +0.038 A 
ATOM     33  C   UNL     1      -5.431   0.573   4.705  0.00  0.00    +0.123 A 
ATOM     34  C   UNL     1      -5.760   0.285   3.392  0.00  0.00    +0.038 A 
ATOM     35  C   UNL     1      -4.870  -0.407   2.592  0.00  0.00    +0.008 A 
ATOM     36  F   UNL     1      -6.300   1.250   5.487  0.00  0.00    -0.205 F 
ENDBRANCH  29  30
ENDBRANCH  20  29
TORSDOF 3
