REMARK  Name = ZINC36765604
REMARK  4 active torsions:
REMARK  status: ('A' for Active; 'I' for Inactive)
REMARK    1  A    between atoms: C_1  and  C_2
REMARK    2  A    between atoms: C_2  and  C_4
REMARK    3  A    between atoms: C_6  and  C_9
REMARK    4  A    between atoms: C_9  and  C_10
REMARK                            x       y       z     vdW  Elec       q    Type
REMARK                         _______ _______ _______ _____ _____    ______ ____
ROOT
ATOM      1  C   UNL     1       0.731  -0.503   1.223  0.00  0.00    +0.245 A 
ATOM      2  N   UNL     1       1.939  -0.995   1.244  0.00  0.00    -0.195 NA
ATOM      3  C   UNL     1       2.272  -1.339   2.493  0.00  0.00    +0.176 A 
ATOM      4  N   UNL     1       1.275  -1.069   3.286  0.00  0.00    -0.061 NA
ATOM      5  O   UNL     1       0.252  -0.513   2.473  0.00  0.00    -0.336 OA
ENDROOT
BRANCH   1   7
ATOM      6  C   UNL     1      -0.019   1.526   0.010  0.00  0.00    +0.034 C 
ATOM      7  C   UNL     1       0.002  -0.004   0.002  0.00  0.00    +0.166 C 
ATOM      8 CL   UNL     1      -1.689  -0.628   0.015  0.00  0.00    -0.112 Cl
ENDBRANCH   1   7
BRANCH   3   9
ATOM      9  C   UNL     1       3.588  -1.942   2.914  0.00  0.00    +0.114 C 
BRANCH   9  10
ATOM     10  C   UNL     1       4.553  -0.841   3.272  0.00  0.00    -0.039 A 
ATOM     11  C   UNL     1       5.371  -0.296   2.300  0.00  0.00    +0.004 A 
ATOM     12  C   UNL     1       6.257   0.714   2.629  0.00  0.00    +0.001 A 
ATOM     13  C   UNL     1       6.324   1.178   3.929  0.00  0.00    +0.015 A 
ATOM     14  C   UNL     1       5.505   0.634   4.901  0.00  0.00    +0.018 A 
ATOM     15  C   UNL     1       4.616  -0.373   4.571  0.00  0.00    +0.019 A 
ATOM     16 BR   UNL     1       5.598   1.269   6.680  0.00  0.00    -0.050 Br
ENDBRANCH   9  10
ENDBRANCH   3   9
TORSDOF 3
