REMARK  Name = ZINC35854731
REMARK  9 active torsions:
REMARK  status: ('A' for Active; 'I' for Inactive)
REMARK    1  A    between atoms: C_1  and  C_2
REMARK    2  A    between atoms: C_2  and  C_3
REMARK    3  A    between atoms: C_11  and  O_22
REMARK    4  A    between atoms: C_14  and  C_16
REMARK    5  A    between atoms: O_22  and  C_23
REMARK    6  A    between atoms: C_23  and  C_24
REMARK    7  A    between atoms: N_26  and  C_27
REMARK    8  A    between atoms: C_27  and  C_28
REMARK    9  A    between atoms: C_27  and  C_29
REMARK                            x       y       z     vdW  Elec       q    Type
REMARK                         _______ _______ _______ _____ _____    ______ ____
ROOT
ATOM      1  C   UNL     1       0.868  -0.249  -1.511  0.00  0.00    +0.216 C 
ATOM      2  O   UNL     1       1.292   0.389  -2.451  0.00  0.00    -0.276 OA
ATOM      3  N   UNL     1       0.941  -1.595  -1.523  0.00  0.00    -0.290 N 
ATOM      4  C   UNL     1       0.430  -2.399  -0.400  0.00  0.00    +0.113 C 
ATOM      5  C   UNL     1      -0.733  -3.243  -0.918  0.00  0.00    +0.054 C 
ATOM      6  C   UNL     1      -0.367  -3.925  -2.210  0.00  0.00    -0.040 A 
ATOM      7  C   UNL     1      -1.116  -5.035  -2.587  0.00  0.00    +0.007 A 
ATOM      8  C   UNL     1      -0.842  -5.702  -3.761  0.00  0.00    +0.046 A 
ATOM      9  C   UNL     1       0.190  -5.263  -4.578  0.00  0.00    +0.122 A 
ATOM     10  C   UNL     1       0.938  -4.160  -4.202  0.00  0.00    +0.051 A 
ATOM     11  C   UNL     1       0.663  -3.494  -3.016  0.00  0.00    -0.016 A 
ATOM     12  C   UNL     1       1.528  -2.317  -2.656  0.00  0.00    +0.137 C 
ENDROOT
BRANCH  12  13
ATOM     13  C   UNL     1       2.903  -2.808  -2.281  0.00  0.00    -0.023 A 
ATOM     14  C   UNL     1       4.016  -2.306  -2.930  0.00  0.00    +0.006 A 
ATOM     15  C   UNL     1       5.277  -2.755  -2.586  0.00  0.00    +0.000 A 
ATOM     16  C   UNL     1       5.425  -3.706  -1.593  0.00  0.00    +0.000 A 
ATOM     17  C   UNL     1       4.312  -4.207  -0.944  0.00  0.00    +0.000 A 
ATOM     18  C   UNL     1       3.051  -3.754  -1.285  0.00  0.00    +0.006 A 
ENDBRANCH  12  13
BRANCH   1  20
ATOM     19  C   UNL     1       0.299   1.973  -0.570  0.00  0.00    +0.013 C 
ATOM     20  C   UNL     1       0.259   0.463  -0.331  0.00  0.00    +0.092 C 
ENDBRANCH   1  20
BRANCH   9  21
ATOM     21  O   UNL     1       0.465  -5.912  -5.740  0.00  0.00    -0.483 OA
BRANCH  21  22
ATOM     22  C   UNL     1      -0.349  -7.042  -6.061  0.00  0.00    +0.324 C 
BRANCH  22  23
ATOM     23  C   UNL     1       0.100  -7.628  -7.374  0.00  0.00    +0.251 C 
ATOM     24  O   UNL     1       1.026  -7.127  -7.977  0.00  0.00    -0.272 OA
ATOM     25  N   UNL     1      -0.527  -8.708  -7.880  0.00  0.00    -0.310 N 
ATOM     26  H   UNL     1      -1.268  -9.108  -7.398  0.00  0.00    +0.149 HD
BRANCH  25  27
ATOM     27  C   UNL     1      -0.091  -9.278  -9.157  0.00  0.00    +0.067 C 
ATOM     28  C   UNL     1      -0.477 -10.757  -9.214  0.00  0.00    +0.027 C 
ATOM     29  C   UNL     1      -0.767  -8.530 -10.307  0.00  0.00    +0.027 C 
ENDBRANCH  25  27
ENDBRANCH  22  23
ENDBRANCH  21  22
ENDBRANCH   9  21
TORSDOF 6
