REMARK  Name = ZINC22023011
REMARK  7 active torsions:
REMARK  status: ('A' for Active; 'I' for Inactive)
REMARK    1  A    between atoms: C_1  and  C_2
REMARK    2  A    between atoms: C_3  and  O_23
REMARK    3  A    between atoms: C_6  and  C_10
REMARK    4  A    between atoms: C_7  and  O_8
REMARK    5  A    between atoms: O_8  and  C_9
REMARK    6  A    between atoms: C_18  and  O_22
REMARK    7  A    between atoms: O_23  and  C_24
REMARK                            x       y       z     vdW  Elec       q    Type
REMARK                         _______ _______ _______ _____ _____    ______ ____
ROOT
ATOM      1  C   UNL     1      -4.205   2.590   1.863  0.00  0.00    -0.031 C 
ATOM      2  C   UNL     1      -4.486   4.072   1.611  0.00  0.00    +0.011 C 
ATOM      3  C   UNL     1      -3.885   4.499   0.272  0.00  0.00    +0.005 C 
ATOM      4  C   UNL     1      -4.183   5.981   0.034  0.00  0.00    +0.000 C 
ATOM      5  C   UNL     1      -3.572   6.816   1.160  0.00  0.00    +0.003 C 
ATOM      6  C   UNL     1      -4.163   6.381   2.505  0.00  0.00    +0.035 C 
ATOM      7  C   UNL     1      -3.857   4.901   2.736  0.00  0.00    +0.066 C 
ATOM      8  C   UNL     1      -4.439   4.449   4.076  0.00  0.00    +0.016 C 
ATOM      9  C   UNL     1      -4.167   2.954   4.262  0.00  0.00    -0.079 C 
ATOM     10  N   UNL     1      -4.776   2.200   3.159  0.00  0.00    +0.384 N 
ATOM     11  H   UNL     1      -5.858   2.396   3.158  0.00  0.00    -0.085 HD
ATOM     12  H   UNL     1      -4.598   1.127   3.330  0.00  0.00    -0.085 HD
ENDROOT
BRANCH   1  18
ATOM     13  C   UNL     1      -0.112   0.537  -0.177  0.00  0.00    +0.051 C 
ATOM     14  C   UNL     1      -0.756   1.372   0.899  0.00  0.00    +0.033 A 
ATOM     15  C   UNL     1       0.020   1.926   1.906  0.00  0.00    +0.126 A 
ATOM     16  C   UNL     1      -0.576   2.694   2.897  0.00  0.00    +0.046 A 
ATOM     17  C   UNL     1      -1.941   2.907   2.880  0.00  0.00    +0.009 A 
ATOM     18  C   UNL     1      -2.716   2.356   1.878  0.00  0.00    -0.019 A 
ATOM     19  C   UNL     1      -2.125   1.592   0.882  0.00  0.00    +0.128 A 
BRANCH  19  20
ATOM     20  O   UNL     1      -2.887   1.055  -0.107  0.00  0.00    -0.495 OA
ATOM     21  C   UNL     1      -3.428  -0.247   0.125  0.00  0.00    +0.277 C 
ENDBRANCH  19  20
BRANCH  15  22
ATOM     22  O   UNL     1       1.362   1.716   1.923  0.00  0.00    -0.495 OA
ATOM     23  C   UNL     1       2.099   2.317   2.990  0.00  0.00    +0.277 C 
ENDBRANCH  15  22
ENDBRANCH   1  18
BRANCH   7  24
ATOM     24  O   UNL     1      -2.442   4.702   2.739  0.00  0.00    -0.388 OA
ATOM     25  H   UNL     1      -1.815   5.219   3.481  0.00  0.00    +0.210 HD
ENDBRANCH   7  24
TORSDOF 4
