REMARK  Name = ZINC21256556
REMARK  3 active torsions:
REMARK  status: ('A' for Active; 'I' for Inactive)
REMARK    1  A    between atoms: C_1  and  C_2
REMARK    2  A    between atoms: C_7  and  C_8
REMARK    3  A    between atoms: C_13  and  C_18
REMARK                            x       y       z     vdW  Elec       q    Type
REMARK                         _______ _______ _______ _____ _____    ______ ____
ROOT
ATOM      1  C   UNL     1      -4.455   4.916  -0.444  0.00  0.00    +0.136 C 
ATOM      2  C   UNL     1      -3.139   4.217  -0.687  0.00  0.00    +0.036 C 
ATOM      3  C   UNL     1      -2.282   3.796   0.260  0.00  0.00    +0.017 C 
ATOM      4  C   UNL     1      -0.985   3.106  -0.126  0.00  0.00    +0.059 C 
ATOM      5  C   UNL     1      -1.183   2.307  -1.413  0.00  0.00    +0.032 C 
ATOM      6  C   UNL     1      -1.611   3.288  -2.510  0.00  0.00    +0.088 C 
ATOM      7  C   UNL     1      -2.847   4.004  -2.055  0.00  0.00    +0.163 C 
ATOM      8  O   UNL     1      -3.627   4.417  -2.891  0.00  0.00    -0.292 OA
ATOM      9  N   UNL     1      -2.470   3.949   1.596  0.00  0.00    -0.316 N 
ATOM     10  C   UNL     1      -3.654   3.668   2.269  0.00  0.00    +0.052 A 
ATOM     11  C   UNL     1      -3.748   2.661   3.214  0.00  0.00    +0.025 A 
ATOM     12  C   UNL     1      -4.945   2.467   3.882  0.00  0.00    +0.002 A 
ATOM     13  C   UNL     1      -6.035   3.273   3.610  0.00  0.00    +0.002 A 
ATOM     14  C   UNL     1      -5.948   4.268   2.652  0.00  0.00    +0.025 A 
ATOM     15  C   UNL     1      -4.757   4.451   1.967  0.00  0.00    +0.049 A 
ATOM     16  N   UNL     1      -4.655   5.364   0.918  0.00  0.00    -0.331 N 
ATOM     17  H   UNL     1      -1.650   4.319   2.228  0.00  0.00    +0.152 HD
ATOM     18  H   UNL     1      -4.728   6.439   1.138  0.00  0.00    +0.147 HD
ENDROOT
BRANCH   1  25
ATOM     19  C   UNL     1      -7.071   5.947  -1.105  0.00  0.00    +0.044 C 
ATOM     20  C   UNL     1      -6.821   4.461  -1.119  0.00  0.00    -0.045 A 
ATOM     21  C   UNL     1      -7.844   3.591  -1.450  0.00  0.00    +0.004 A 
ATOM     22  C   UNL     1      -7.614   2.228  -1.463  0.00  0.00    +0.000 A 
ATOM     23  C   UNL     1      -6.362   1.735  -1.147  0.00  0.00    +0.000 A 
ATOM     24  C   UNL     1      -5.339   2.605  -0.822  0.00  0.00    +0.006 A 
ATOM     25  C   UNL     1      -5.569   3.968  -0.803  0.00  0.00    -0.020 A 
ENDBRANCH   1  25
BRANCH   5  26
ATOM     26  C   UNL     1       0.110   1.638  -1.802  0.00  0.00    -0.043 A 
ATOM     27  C   UNL     1       1.232   2.402  -2.064  0.00  0.00    +0.007 A 
ATOM     28  C   UNL     1       2.416   1.790  -2.427  0.00  0.00    +0.038 A 
ATOM     29  C   UNL     1       2.479   0.410  -2.528  0.00  0.00    +0.123 A 
ATOM     30  C   UNL     1       1.355  -0.354  -2.266  0.00  0.00    +0.038 A 
ATOM     31  C   UNL     1       0.172   0.260  -1.903  0.00  0.00    +0.007 A 
ATOM     32  F   UNL     1       3.637  -0.190  -2.883  0.00  0.00    -0.205 F 
ENDBRANCH   5  26
TORSDOF 2
