REMARK  Name = ZINC12890426
REMARK  16 active torsions:
REMARK  status: ('A' for Active; 'I' for Inactive)
REMARK    1  A    between atoms: C_1  and  C_2
REMARK    2  A    between atoms: C_6  and  C_30
REMARK    3  A    between atoms: C_7  and  C_11
REMARK    4  A    between atoms: C_11  and  C_12
REMARK    5  A    between atoms: N_14  and  C_15
REMARK    6  A    between atoms: C_15  and  C_16
REMARK    7  A    between atoms: N_18  and  C_19
REMARK    8  A    between atoms: C_19  and  C_21
REMARK    9  A    between atoms: C_19  and  C_24
REMARK   10  A    between atoms: C_21  and  C_22
REMARK   11  A    between atoms: C_21  and  C_23
REMARK   12  A    between atoms: N_26  and  C_27
REMARK   13  A    between atoms: C_27  and  C_28
REMARK   14  A    between atoms: C_27  and  C_29
REMARK   15  A    between atoms: C_33  and  C_37
REMARK   16  A    between atoms: C_34  and  C_36
REMARK                            x       y       z     vdW  Elec       q    Type
REMARK                         _______ _______ _______ _____ _____    ______ ____
ROOT
ATOM      1  C   UNL     1      -0.597   5.816   6.949  0.00  0.00    +0.218 C 
ATOM      2  O   UNL     1      -1.342   5.362   7.791  0.00  0.00    -0.275 OA
ATOM      3  N   UNL     1      -0.293   5.090   5.856  0.00  0.00    -0.306 N 
ATOM      4  H   UNL     1       0.304   5.453   5.182  0.00  0.00    +0.149 HD
ENDROOT
BRANCH   1   5
ATOM      5  C   UNL     1      -0.011   7.194   7.125  0.00  0.00    +0.138 C 
BRANCH   5  12
ATOM      6  C   UNL     1      -3.288  10.665  13.524  0.00  0.00    +0.044 C 
ATOM      7  C   UNL     1      -2.866  10.107  12.190  0.00  0.00    -0.036 A 
ATOM      8  C   UNL     1      -1.727   9.361  12.096  0.00  0.00    +0.051 A 
ATOM      9  C   UNL     1      -1.322   8.838  10.870  0.00  0.00    +0.143 A 
ATOM     10  C   UNL     1      -2.090   9.078   9.719  0.00  0.00    +0.064 A 
ATOM     11  C   UNL     1      -1.646   8.526   8.439  0.00  0.00    -0.026 A 
ATOM     12  C   UNL     1      -0.505   7.788   8.419  0.00  0.00    +0.049 A 
ATOM     13  C   UNL     1       0.217   7.586   9.612  0.00  0.00    +0.341 A 
ATOM     14  O   UNL     1       1.242   6.928   9.582  0.00  0.00    -0.245 OA
ATOM     15  O   UNL     1      -0.194   8.101  10.781  0.00  0.00    -0.422 OA
ATOM     16  C   UNL     1      -2.436   8.764   7.178  0.00  0.00    +0.045 C 
ATOM     17  C   UNL     1      -3.264   9.845   9.808  0.00  0.00    +0.147 A 
ATOM     18  C   UNL     1      -3.645  10.358  11.056  0.00  0.00    +0.027 A 
ATOM     19  C   UNL     1      -4.889  11.098  10.812  0.00  0.00    -0.002 A 
ATOM     20  C   UNL     1      -5.144  10.978   9.502  0.00  0.00    +0.106 A 
ATOM     21  O   UNL     1      -4.187  10.240   8.912  0.00  0.00    -0.459 OA
ATOM     22  C   UNL     1      -6.330  11.581   8.793  0.00  0.00    +0.086 C 
ATOM     23  C   UNL     1      -5.713  11.844  11.830  0.00  0.00    +0.048 C 
ENDBRANCH   5  12
ENDBRANCH   1   5
BRANCH   3  24
ATOM     24  C   UNL     1      -0.862   3.751   5.684  0.00  0.00    +0.200 C 
BRANCH  24  25
ATOM     25  C   UNL     1      -0.368   3.156   4.390  0.00  0.00    +0.231 C 
ATOM     26  O   UNL     1       0.386   3.789   3.681  0.00  0.00    -0.274 OA
ATOM     27  N   UNL     1      -0.764   1.922   4.021  0.00  0.00    -0.302 N 
ATOM     28  H   UNL     1      -1.367   1.416   4.588  0.00  0.00    +0.150 HD
BRANCH  27  29
ATOM     29  C   UNL     1      -0.283   1.344   2.764  0.00  0.00    +0.161 C 
BRANCH  29  30
ATOM     30  C   UNL     1      -0.329  -0.160   2.852  0.00  0.00    +0.234 C 
ATOM     31  O   UNL     1      -0.931  -0.696   3.758  0.00  0.00    -0.274 OA
ATOM     32  N   UNL     1       0.300  -0.908   1.925  0.00  0.00    -0.311 N 
ATOM     33  H   UNL     1       0.843  -0.482   1.243  0.00  0.00    +0.149 HD
BRANCH  32  34
ATOM     34  C   UNL     1       0.165  -2.367   1.946  0.00  0.00    +0.067 C 
ATOM     35  C   UNL     1      -1.107  -2.772   1.197  0.00  0.00    +0.027 C 
ATOM     36  C   UNL     1       1.380  -3.002   1.267  0.00  0.00    +0.027 C 
ENDBRANCH  32  34
ENDBRANCH  29  30
BRANCH  29  37
ATOM     37  C   UNL     1      -1.175   1.815   1.613  0.00  0.00    +0.012 C 
ATOM     38  C   UNL     1      -1.048   3.331   1.456  0.00  0.00    +0.009 C 
ATOM     39  C   UNL     1      -2.631   1.453   1.915  0.00  0.00    +0.009 C 
ENDBRANCH  29  37
ENDBRANCH  27  29
ENDBRANCH  24  25
ENDBRANCH   3  24
TORSDOF 8
