REMARK  Name = ZINC21250586
REMARK  11 active torsions:
REMARK  status: ('A' for Active; 'I' for Inactive)
REMARK    1  A    between atoms: C_1  and  C_2
REMARK    2  A    between atoms: C_2  and  C_3
REMARK    3  A    between atoms: C_2  and  O_4
REMARK    4  A    between atoms: O_4  and  C_5
REMARK    5  A    between atoms: C_8  and  C_11
REMARK    6  A    between atoms: C_16  and  C_26
REMARK    7  A    between atoms: C_29  and  O_34
REMARK    8  A    between atoms: C_30  and  O_32
REMARK    9  A    between atoms: O_32  and  C_33
REMARK   10  A    between atoms: O_34  and  C_35
REMARK   11  A    between atoms: C_35  and  C_37
REMARK                            x       y       z     vdW  Elec       q    Type
REMARK                         _______ _______ _______ _____ _____    ______ ____
ROOT
ATOM      1  C   UNL     1       2.311   1.284   1.163  0.00  0.00    +0.032 C 
ATOM      2  C   UNL     1       1.480   2.121   0.191  0.00  0.00    +0.059 C 
ATOM      3  C   UNL     1       0.113   1.483  -0.002  0.00  0.00    +0.017 C 
ATOM      4  C   UNL     1      -0.024   0.149   0.042  0.00  0.00    +0.036 C 
ATOM      5  C   UNL     1      -1.310  -0.618  -0.162  0.00  0.00    +0.136 C 
ATOM      6  N   UNL     1      -2.500   0.206  -0.161  0.00  0.00    -0.331 N 
ATOM      7  C   UNL     1      -2.711   1.166  -1.147  0.00  0.00    +0.049 A 
ATOM      8  C   UNL     1      -3.748   1.046  -2.060  0.00  0.00    +0.025 A 
ATOM      9  C   UNL     1      -3.893   1.996  -3.055  0.00  0.00    +0.002 A 
ATOM     10  C   UNL     1      -3.012   3.058  -3.143  0.00  0.00    +0.002 A 
ATOM     11  C   UNL     1      -1.986   3.192  -2.223  0.00  0.00    +0.025 A 
ATOM     12  C   UNL     1      -1.854   2.254  -1.215  0.00  0.00    +0.052 A 
ATOM     13  N   UNL     1      -0.896   2.368  -0.208  0.00  0.00    -0.316 N 
ATOM     14  C   UNL     1       1.096  -0.677   0.299  0.00  0.00    +0.163 C 
ATOM     15  O   UNL     1       0.945  -1.883   0.309  0.00  0.00    -0.292 OA
ATOM     16  C   UNL     1       2.463  -0.117   0.558  0.00  0.00    +0.088 C 
ATOM     17  H   UNL     1      -3.256   0.080   0.629  0.00  0.00    +0.147 HD
ATOM     18  H   UNL     1      -0.998   3.248   0.445  0.00  0.00    +0.152 HD
ENDROOT
BRANCH   1  22
ATOM     19  C   UNL     1       6.161   3.063   1.682  0.00  0.00    +0.121 A 
ATOM     20  C   UNL     1       5.336   2.861   2.779  0.00  0.00    +0.046 A 
ATOM     21  C   UNL     1       4.091   2.285   2.608  0.00  0.00    +0.007 A 
ATOM     22  C   UNL     1       3.669   1.911   1.346  0.00  0.00    -0.043 A 
ATOM     23  C   UNL     1       4.492   2.106   0.252  0.00  0.00    +0.007 A 
ATOM     24  C   UNL     1       5.735   2.687   0.417  0.00  0.00    +0.046 A 
BRANCH  19  25
ATOM     25  O   UNL     1       7.386   3.629   1.847  0.00  0.00    -0.489 OA
BRANCH  25  27
ATOM     26  C   UNL     1       9.267   4.088   3.293  0.00  0.00    +0.051 C 
ATOM     27  C   UNL     1       7.743   4.027   3.172  0.00  0.00    +0.167 C 
ATOM     28  C   UNL     1       7.153   5.408   3.467  0.00  0.00    +0.051 C 
ENDBRANCH  25  27
ENDBRANCH  19  25
ENDBRANCH   1  22
BRANCH   5  29
ATOM     29  C   UNL     1      -1.232  -1.343  -1.480  0.00  0.00    -0.019 A 
ATOM     30  C   UNL     1      -1.156  -0.624  -2.659  0.00  0.00    +0.009 A 
ATOM     31  C   UNL     1      -1.083  -1.285  -3.872  0.00  0.00    +0.050 A 
ATOM     32  C   UNL     1      -1.086  -2.670  -3.907  0.00  0.00    +0.173 A 
ATOM     33  C   UNL     1      -1.161  -3.393  -2.720  0.00  0.00    +0.163 A 
ATOM     34  C   UNL     1      -1.229  -2.725  -1.508  0.00  0.00    +0.055 A 
BRANCH  33  35
ATOM     35  O   UNL     1      -1.164  -4.753  -2.750  0.00  0.00    -0.491 OA
ATOM     36  C   UNL     1      -1.244  -5.429  -1.493  0.00  0.00    +0.277 C 
ENDBRANCH  33  35
BRANCH  32  37
ATOM     37  O   UNL     1      -1.014  -3.321  -5.099  0.00  0.00    -0.422 OA
BRANCH  37  38
ATOM     38  C   UNL     1      -2.168  -3.759  -5.625  0.00  0.00    +0.309 C 
ATOM     39  O   UNL     1      -3.217  -3.492  -5.087  0.00  0.00    -0.251 OA
ATOM     40  C   UNL     1      -2.157  -4.582  -6.887  0.00  0.00    +0.136 C 
ENDBRANCH  37  38
ENDBRANCH  32  37
ENDBRANCH   5  29
TORSDOF 7
