REMARK  Name = ZINC63563018
REMARK  8 active torsions:
REMARK  status: ('A' for Active; 'I' for Inactive)
REMARK    1  A    between atoms: C_1  and  C_2
REMARK    2  A    between atoms: C_2  and  C_3
REMARK    3  A    between atoms: C_3  and  N_4
REMARK    4  A    between atoms: N_14  and  C_19
REMARK    5  A    between atoms: C_19  and  C_20
REMARK    6  A    between atoms: N_22  and  C_23
REMARK    7  A    between atoms: C_23  and  C_24
REMARK    8  A    between atoms: C_24  and  C_25
REMARK                            x       y       z     vdW  Elec       q    Type
REMARK                         _______ _______ _______ _____ _____    ______ ____
ROOT
ATOM      1  N   UNL     1      -1.413  -1.998   0.005  0.00  0.00    -0.314 N 
ATOM      2  C   UNL     1      -1.407  -2.809  -1.138  0.00  0.00    +0.038 A 
ATOM      3  C   UNL     1      -1.264  -2.463  -2.477  0.00  0.00    +0.024 A 
ATOM      4  C   UNL     1      -1.269  -3.436  -3.456  0.00  0.00    +0.002 A 
ATOM      5  C   UNL     1      -1.419  -4.770  -3.116  0.00  0.00    +0.001 A 
ATOM      6  C   UNL     1      -1.571  -5.135  -1.795  0.00  0.00    +0.010 A 
ATOM      7  C   UNL     1      -1.575  -4.161  -0.794  0.00  0.00    +0.003 A 
ATOM      8  C   UNL     1      -1.750  -4.238   0.655  0.00  0.00    +0.006 C 
ATOM      9  C   UNL     1      -2.159  -5.215   1.471  0.00  0.00    +0.094 C 
ATOM     10  N   UNL     1      -2.279  -4.802   2.813  0.00  0.00    -0.268 N 
ATOM     11  N   UNL     1      -2.847  -3.524   3.025  0.00  0.00    -0.212 N 
ATOM     12  C   UNL     1      -2.452  -2.505   2.204  0.00  0.00    +0.257 C 
ATOM     13  O   UNL     1      -2.920  -1.389   2.291  0.00  0.00    -0.272 OA
ATOM     14  C   UNL     1      -1.391  -2.853   1.183  0.00  0.00    +0.194 C 
ATOM     15  H   UNL     1      -1.988  -5.362   3.550  0.00  0.00    +0.170 HD
ENDROOT
BRANCH   1  16
ATOM     16  C   UNL     1      -1.433  -0.534   0.013  0.00  0.00    +0.106 C 
BRANCH  16  18
ATOM     17  C   UNL     1      -0.019   1.526   0.010  0.00  0.00    +0.005 C 
ATOM     18  C   UNL     1       0.002  -0.004   0.002  0.00  0.00    +0.015 C 
ENDBRANCH  16  18
ENDBRANCH   1  16
BRANCH  11  19
ATOM     19  C   UNL     1      -3.829  -3.300   4.088  0.00  0.00    +0.226 C 
BRANCH  19  20
ATOM     20  C   UNL     1      -5.216  -3.541   3.551  0.00  0.00    +0.232 C 
ATOM     21  O   UNL     1      -5.370  -3.868   2.393  0.00  0.00    -0.274 OA
ATOM     22  N   UNL     1      -6.286  -3.393   4.357  0.00  0.00    -0.314 N 
ATOM     23  H   UNL     1      -6.164  -3.132   5.283  0.00  0.00    +0.149 HD
BRANCH  22  24
ATOM     24  C   UNL     1      -7.635  -3.628   3.835  0.00  0.00    +0.108 C 
BRANCH  24  25
ATOM     25  C   UNL     1      -8.660  -3.394   4.946  0.00  0.00    +0.052 C 
BRANCH  25  26
ATOM     26  C   UNL     1     -10.047  -3.635   4.409  0.00  0.00    -0.040 C 
ATOM     27  C   UNL     1     -10.764  -4.779   4.491  0.00  0.00    -0.001 A 
ATOM     28  C   UNL     1     -10.476  -6.092   5.082  0.00  0.00    +0.010 A 
ATOM     29  C   UNL     1     -11.412  -7.065   5.005  0.00  0.00    +0.001 A 
ATOM     30  C   UNL     1     -12.647  -6.852   4.376  0.00  0.00    +0.002 A 
ATOM     31  C   UNL     1     -12.983  -5.674   3.810  0.00  0.00    +0.026 A 
ATOM     32  C   UNL     1     -12.075  -4.580   3.833  0.00  0.00    +0.043 A 
ATOM     33  N   UNL     1     -12.165  -3.360   3.362  0.00  0.00    -0.380 N 
ATOM     34  C   UNL     1     -10.923  -2.645   3.674  0.00  0.00    +0.144 C 
ATOM     35  H   UNL     1     -12.928  -2.991   2.889  0.00  0.00    +0.160 HD
ENDBRANCH  25  26
ENDBRANCH  24  25
ENDBRANCH  22  24
ENDBRANCH  19  20
ENDBRANCH  11  19
TORSDOF 7
