REMARK  Name = ZINC58264014
REMARK  9 active torsions:
REMARK  status: ('A' for Active; 'I' for Inactive)
REMARK    1  A    between atoms: C_1  and  C_2
REMARK    2  A    between atoms: C_2  and  C_3
REMARK    3  A    between atoms: C_3  and  C_4
REMARK    4  A    between atoms: C_3  and  N_6
REMARK    5  A    between atoms: C_4  and  C_5
REMARK    6  A    between atoms: C_9  and  C_10
REMARK    7  A    between atoms: C_14  and  O_16
REMARK    8  A    between atoms: C_20  and  C_21
REMARK    9  A    between atoms: C_25  and  O_27
REMARK                            x       y       z     vdW  Elec       q    Type
REMARK                         _______ _______ _______ _____ _____    ______ ____
ROOT
ATOM      1  N   UNL     1       2.117   0.431   0.894  0.00  0.00    -0.291 NA
ATOM      2  C   UNL     1       2.373  -0.360  -0.318  0.00  0.00    +0.124 C 
ATOM      3  C   UNL     1       3.831  -0.208  -0.704  0.00  0.00    +0.014 C 
ATOM      4  C   UNL     1       4.208   0.089  -1.965  0.00  0.00    +0.016 C 
ATOM      5  C   UNL     1       4.818  -0.404   0.385  0.00  0.00    +0.188 C 
ATOM      6  O   UNL     1       5.894  -0.949   0.211  0.00  0.00    -0.287 OA
ATOM      7  C   UNL     1       4.386   0.119   1.704  0.00  0.00    +0.014 C 
ATOM      8  C   UNL     1       5.251   0.704   2.559  0.00  0.00    +0.016 C 
ATOM      9  C   UNL     1       2.915  -0.041   2.035  0.00  0.00    +0.124 C 
ENDROOT
BRANCH   4  10
ATOM     10  C   UNL     1       3.211   0.109  -3.047  0.00  0.00    -0.021 A 
ATOM     11  C   UNL     1       3.346   1.007  -4.111  0.00  0.00    +0.008 A 
ATOM     12  C   UNL     1       2.408   1.022  -5.122  0.00  0.00    +0.004 A 
ATOM     13  C   UNL     1       1.333   0.152  -5.088  0.00  0.00    +0.045 A 
ATOM     14  C   UNL     1       1.189  -0.743  -4.036  0.00  0.00    +0.117 A 
ATOM     15  C   UNL     1       2.127  -0.773  -3.018  0.00  0.00    +0.053 A 
BRANCH  14  16
ATOM     16  O   UNL     1       0.130  -1.595  -4.008  0.00  0.00    -0.507 OA
ATOM     17  H   UNL     1       0.294  -2.441  -4.447  0.00  0.00    +0.292 HD
ENDBRANCH  14  16
ENDBRANCH   4  10
BRANCH   8  18
ATOM     18  C   UNL     1       6.632   0.983   2.133  0.00  0.00    -0.021 A 
ATOM     19  C   UNL     1       6.902   1.315   0.800  0.00  0.00    +0.008 A 
ATOM     20  C   UNL     1       8.198   1.575   0.406  0.00  0.00    +0.004 A 
ATOM     21  C   UNL     1       9.232   1.509   1.322  0.00  0.00    +0.045 A 
ATOM     22  C   UNL     1       8.974   1.180   2.647  0.00  0.00    +0.117 A 
ATOM     23  C   UNL     1       7.678   0.923   3.058  0.00  0.00    +0.053 A 
BRANCH  22  24
ATOM     24  O   UNL     1       9.995   1.116   3.541  0.00  0.00    -0.507 OA
ATOM     25  H   UNL     1      10.178   1.953   3.990  0.00  0.00    +0.292 HD
ENDBRANCH  22  24
ENDBRANCH   8  18
BRANCH   1  26
ATOM     26  C   UNL     1       0.685   0.443   1.223  0.00  0.00    +0.057 C 
BRANCH  26  28
ATOM     27  C   UNL     1       0.291   2.524  -0.103  0.00  0.00    +0.005 C 
ATOM     28  C   UNL     1      -0.099   1.054   0.060  0.00  0.00    +0.015 C 
ENDBRANCH  26  28
BRANCH  26  29
ATOM     29  C   UNL     1       0.205  -0.989   1.465  0.00  0.00    +0.015 C 
ATOM     30  C   UNL     1      -1.265  -0.970   1.888  0.00  0.00    +0.005 C 
ENDBRANCH  26  29
ENDBRANCH   1  26
TORSDOF 7
