REMARK  Name = ZINC12243963
REMARK  7 active torsions:
REMARK  status: ('A' for Active; 'I' for Inactive)
REMARK    1  A    between atoms: C_4  and  C_19
REMARK    2  A    between atoms: C_19  and  N_20
REMARK    3  A    between atoms: N_20  and  C_21
REMARK    4  A    between atoms: C_21  and  C_22
REMARK    5  A    between atoms: C_22  and  C_23
REMARK    6  A    between atoms: C_23  and  N_24
REMARK    7  A    between atoms: C_30  and  C_32
REMARK                            x       y       z     vdW  Elec       q    Type
REMARK                         _______ _______ _______ _____ _____    ______ ____
ROOT
ATOM      1  C   UNL     1       1.237  -5.949  -4.296  0.00  0.00    +0.014 A 
ATOM      2  C   UNL     1       2.303  -5.345  -3.617  0.00  0.00    -0.001 A 
ATOM      3  C   UNL     1       2.192  -4.971  -2.262  0.00  0.00    +0.018 A 
ATOM      4  C   UNL     1       3.266  -4.383  -1.665  0.00  0.00    +0.008 A 
ATOM      5  C   UNL     1       4.445  -4.176  -2.395  0.00  0.00    +0.104 A 
ATOM      6  C   UNL     1       3.520  -5.107  -4.300  0.00  0.00    +0.048 A 
ATOM      7  C   UNL     1       3.629  -5.483  -5.649  0.00  0.00    +0.030 A 
ATOM      8  C   UNL     1       2.572  -6.069  -6.284  0.00  0.00    -0.042 A 
ATOM      9  C   UNL     1       1.376  -6.304  -5.607  0.00  0.00    -0.043 A 
ATOM     10  C   UNL     1       0.384  -6.962  -6.545  0.00  0.00    +0.036 C 
ATOM     11  C   UNL     1       0.934  -6.702  -7.963  0.00  0.00    +0.009 C 
ATOM     12  C   UNL     1       2.450  -6.556  -7.713  0.00  0.00    +0.036 C 
ATOM     13  N   UNL     1       5.533  -3.582  -1.772  0.00  0.00    -0.312 N 
ATOM     14  C   UNL     1       6.222  -2.657  -2.683  0.00  0.00    +0.134 C 
ATOM     15  C   UNL     1       7.377  -1.981  -1.938  0.00  0.00    +0.178 C 
ATOM     16  O   UNL     1       8.254  -2.984  -1.419  0.00  0.00    -0.377 OA
ATOM     17  C   UNL     1       7.616  -3.902  -0.527  0.00  0.00    +0.178 C 
ATOM     18  C   UNL     1       6.464  -4.597  -1.258  0.00  0.00    +0.134 C 
ATOM     19  N   UNL     1       4.610  -4.519  -3.697  0.00  0.00    -0.343 N 
ATOM     20  H   UNL     1       5.490  -4.352  -4.199  0.00  0.00    +0.167 HD
ENDROOT
BRANCH   4  21
ATOM     21  C   UNL     1       3.189  -3.961  -0.220  0.00  0.00    +0.146 C 
BRANCH  21  22
ATOM     22  N   UNL     1       2.854  -2.537  -0.143  0.00  0.00    -0.293 N 
ATOM     23  C   UNL     1       1.569  -2.153  -0.018  0.00  0.00    +0.255 C 
ATOM     24  O   UNL     1       0.693  -2.990   0.105  0.00  0.00    -0.269 OA
BRANCH  23  25
ATOM     25  C   UNL     1       1.225  -0.727  -0.028  0.00  0.00    +0.093 A 
ATOM     26  C   UNL     1      -0.011  -0.120  -0.048  0.00  0.00    +0.131 A 
ATOM     27  N   UNL     1      -0.052   1.188  -0.053  0.00  0.00    -0.255 NA
ATOM     28  C   UNL     1       1.046   1.915  -0.041  0.00  0.00    +0.156 A 
ATOM     29  S   UNL     1       2.292   0.706  -0.019  0.00  0.00    -0.071 S 
ENDBRANCH  23  25
BRANCH  22  30
ATOM     30  C   UNL     1       3.917  -1.530  -0.204  0.00  0.00    +0.110 C 
BRANCH  30  31
ATOM     31  C   UNL     1       4.293  -1.100   1.215  0.00  0.00    +0.038 C 
BRANCH  31  32
ATOM     32  C   UNL     1       5.318   0.034   1.149  0.00  0.00    +0.109 C 
BRANCH  32  33
ATOM     33  N   UNL     1       5.767   0.366   2.503  0.00  0.00    -0.301 N 
ATOM     34  C   UNL     1       5.130   1.371   3.364  0.00  0.00    +0.108 C 
ATOM     35  C   UNL     1       5.637   1.067   4.793  0.00  0.00    +0.028 C 
ATOM     36  C   UNL     1       6.987   0.369   4.505  0.00  0.00    +0.097 C 
ATOM     37  C   UNL     1       6.818  -0.206   3.116  0.00  0.00    +0.216 C 
ATOM     38  O   UNL     1       7.528  -1.058   2.625  0.00  0.00    -0.276 OA
ENDBRANCH  32  33
ENDBRANCH  31  32
ENDBRANCH  30  31
ENDBRANCH  22  30
ENDBRANCH  21  22
ENDBRANCH   4  21
TORSDOF 7
