REMARK  Name = ZINC39528025
REMARK  10 active torsions:
REMARK  status: ('A' for Active; 'I' for Inactive)
REMARK    1  A    between atoms: C_1  and  C_2
REMARK    2  A    between atoms: C_2  and  C_3
REMARK    3  A    between atoms: C_2  and  S_4
REMARK    4  A    between atoms: S_4  and  C_7
REMARK    5  A    between atoms: N_13  and  S_14
REMARK    6  A    between atoms: S_14  and  C_17
REMARK    7  A    between atoms: C_17  and  C_18
REMARK    8  A    between atoms: C_17  and  C_19
REMARK    9  A    between atoms: C_23  and  C_26
REMARK   10  A    between atoms: C_31  and  O_32
REMARK                            x       y       z     vdW  Elec       q    Type
REMARK                         _______ _______ _______ _____ _____    ______ ____
ROOT
ATOM      1  C   UNL     1       0.372  -0.420   1.696  0.00  0.00    +0.221 C 
ATOM      2  C   UNL     1       1.520  -0.720   2.665  0.00  0.00    +0.044 C 
ATOM      3  C   UNL     1       1.160  -0.192   4.056  0.00  0.00    +0.005 C 
ATOM      4  C   UNL     1      -0.097  -0.901   4.563  0.00  0.00    +0.024 C 
ATOM      5  C   UNL     1      -1.262  -0.606   3.615  0.00  0.00    +0.045 C 
ATOM      6  N   UNL     1      -0.872  -0.973   2.247  0.00  0.00    -0.151 NA
ATOM      7  C   UNL     1      -1.598   0.884   3.663  0.00  0.00    +0.024 C 
ATOM      8  C   UNL     1      -2.759   1.177   2.710  0.00  0.00    +0.002 C 
ATOM      9  C   UNL     1      -3.983   0.362   3.132  0.00  0.00    +0.008 C 
ATOM     10  C   UNL     1      -3.646  -1.129   3.080  0.00  0.00    +0.024 C 
ATOM     11  C   UNL     1      -2.485  -1.423   4.033  0.00  0.00    +0.032 C 
ENDROOT
BRANCH  10  12
ATOM     12  C   UNL     1      -4.852  -1.931   3.495  0.00  0.00    -0.003 A 
ATOM     13  C   UNL     1      -5.435  -1.715   4.729  0.00  0.00    +0.007 A 
ATOM     14  C   UNL     1      -6.542  -2.451   5.110  0.00  0.00    +0.001 A 
ATOM     15  C   UNL     1      -7.068  -3.405   4.259  0.00  0.00    +0.004 A 
ATOM     16  C   UNL     1      -6.489  -3.625   3.024  0.00  0.00    +0.046 A 
ATOM     17  C   UNL     1      -5.381  -2.884   2.637  0.00  0.00    +0.120 A 
BRANCH  17  18
ATOM     18  O   UNL     1      -4.813  -3.094   1.420  0.00  0.00    -0.506 OA
ATOM     19  H   UNL     1      -4.195  -3.838   1.398  0.00  0.00    +0.292 HD
ENDBRANCH  17  18
ENDBRANCH  10  12
BRANCH   1  20
ATOM     20  S   UNL     1       0.719  -1.185   0.088  0.00  0.00    -0.011 S 
ATOM     21  O   UNL     1      -0.479  -1.185  -0.677  0.00  0.00    -0.173 OA
ATOM     22  O   UNL     1       1.396  -2.413   0.311  0.00  0.00    -0.173 OA
BRANCH  20  24
ATOM     23  C   UNL     1       3.187  -0.006   0.131  0.00  0.00    +0.031 C 
ATOM     24  C   UNL     1       1.882  -0.017  -0.669  0.00  0.00    +0.126 C 
ATOM     25  C   UNL     1       2.171  -0.446  -2.109  0.00  0.00    +0.031 C 
ENDBRANCH  20  24
ENDBRANCH   1  20
BRANCH   6  26
ATOM     26  S   UNL     1      -1.814  -1.994   1.345  0.00  0.00    +0.036 S 
ATOM     27  O   UNL     1      -0.892  -2.847   0.681  0.00  0.00    -0.158 OA
ATOM     28  O   UNL     1      -2.759  -2.524   2.265  0.00  0.00    -0.158 OA
BRANCH  26  29
ATOM     29  C   UNL     1      -2.647  -0.919   0.144  0.00  0.00    +0.142 C 
ATOM     30  C   UNL     1      -2.966  -1.720  -1.121  0.00  0.00    +0.033 C 
ATOM     31  C   UNL     1      -3.947  -0.387   0.751  0.00  0.00    +0.033 C 
ENDBRANCH  26  29
ENDBRANCH   6  26
TORSDOF 6
