REMARK  Name = ZINC38658496
REMARK  13 active torsions:
REMARK  status: ('A' for Active; 'I' for Inactive)
REMARK    1  A    between atoms: C_1  and  O_2
REMARK    2  A    between atoms: O_2  and  C_3
REMARK    3  A    between atoms: C_6  and  C_11
REMARK    4  A    between atoms: C_8  and  O_9
REMARK    5  A    between atoms: O_9  and  C_10
REMARK    6  A    between atoms: C_16  and  O_25
REMARK    7  A    between atoms: C_20  and  N_24
REMARK    8  A    between atoms: C_21  and  C_22
REMARK    9  A    between atoms: O_25  and  C_26
REMARK   10  A    between atoms: C_26  and  C_28
REMARK   11  A    between atoms: C_28  and  O_29
REMARK   12  A    between atoms: O_29  and  C_30
REMARK   13  A    between atoms: C_33  and  N_36
REMARK                            x       y       z     vdW  Elec       q    Type
REMARK                         _______ _______ _______ _____ _____    ______ ____
ROOT
ATOM      1  C   UNL     1       2.539  -2.444  -4.387  0.00  0.00    +0.098 C 
ATOM      2  C   UNL     1       1.829  -2.053  -5.656  0.00  0.00    +0.008 A 
ATOM      3  C   UNL     1       0.662  -2.706  -6.012  0.00  0.00    +0.012 A 
ATOM      4  C   UNL     1      -0.002  -2.361  -7.172  0.00  0.00    +0.047 A 
ATOM      5  C   UNL     1       0.501  -1.355  -7.986  0.00  0.00    +0.135 A 
ATOM      6  C   UNL     1       1.669  -0.700  -7.633  0.00  0.00    +0.093 A 
ATOM      7  C   UNL     1       2.336  -1.048  -6.465  0.00  0.00    +0.138 A 
ATOM      8  O   UNL     1       3.478  -0.398  -6.134  0.00  0.00    -0.441 OA
ATOM      9  C   UNL     1       4.333  -0.949  -5.256  0.00  0.00    +0.199 C 
ATOM     10  C   UNL     1       3.948  -1.922  -4.401  0.00  0.00    +0.098 C 
ENDROOT
BRANCH   1  14
ATOM     11  C   UNL     1       0.454  -0.797  -1.036  0.00  0.00    +0.162 A 
ATOM     12  C   UNL     1       0.978   0.039  -2.010  0.00  0.00    +0.050 A 
ATOM     13  C   UNL     1       1.651  -0.496  -3.091  0.00  0.00    +0.008 A 
ATOM     14  C   UNL     1       1.804  -1.866  -3.205  0.00  0.00    -0.031 A 
ATOM     15  C   UNL     1       1.284  -2.705  -2.238  0.00  0.00    +0.054 A 
ATOM     16  C   UNL     1       0.613  -2.175  -1.148  0.00  0.00    +0.162 A 
BRANCH  11  18
ATOM     17  C   UNL     1      -0.333   1.151   0.078  0.00  0.00    +0.277 C 
ATOM     18  O   UNL     1      -0.208  -0.271   0.029  0.00  0.00    -0.491 OA
ENDBRANCH  11  18
BRANCH  16  19
ATOM     19  O   UNL     1       0.106  -2.999  -0.193  0.00  0.00    -0.491 OA
ATOM     20  C   UNL     1       0.307  -4.402  -0.373  0.00  0.00    +0.277 C 
ENDBRANCH  16  19
ENDBRANCH   1  14
BRANCH   9  21
ATOM     21  N   UNL     1       5.633  -0.511  -5.227  0.00  0.00    -0.328 N 
ATOM     22  H   UNL     1       5.923   0.188  -5.835  0.00  0.00    +0.145 HD
ATOM     23  H   UNL     1       6.262  -0.899  -4.599  0.00  0.00    +0.145 HD
ENDBRANCH   9  21
BRANCH  10  24
ATOM     24  C   UNL     1       4.908  -2.467  -3.489  0.00  0.00    +0.101 C 
ATOM     25  N   UNL     1       5.669  -2.899  -2.765  0.00  0.00    -0.191 NA
ENDBRANCH  10  24
BRANCH   5  26
ATOM     26  O   UNL     1      -0.152  -1.015  -9.129  0.00  0.00    -0.423 OA
BRANCH  26  27
ATOM     27  C   UNL     1       0.429  -1.317 -10.301  0.00  0.00    +0.350 C 
ATOM     28  O   UNL     1       1.448  -1.966 -10.320  0.00  0.00    -0.247 OA
BRANCH  27  29
ATOM     29  C   UNL     1      -0.189  -0.847 -11.592  0.00  0.00    +0.349 C 
BRANCH  29  30
ATOM     30  O   UNL     1       0.608  -1.291 -12.692  0.00  0.00    -0.481 OA
BRANCH  30  31
ATOM     31  C   UNL     1       0.186  -0.949 -13.938  0.00  0.00    +0.121 A 
ATOM     32  C   UNL     1      -0.968  -0.196 -14.098  0.00  0.00    +0.048 A 
ATOM     33  C   UNL     1      -1.394   0.151 -15.365  0.00  0.00    +0.036 A 
ATOM     34  C   UNL     1      -0.671  -0.251 -16.473  0.00  0.00    +0.126 A 
ATOM     35  C   UNL     1       0.479  -1.002 -16.316  0.00  0.00    +0.036 A 
ATOM     36  C   UNL     1       0.913  -1.347 -15.051  0.00  0.00    +0.048 A 
BRANCH  34  37
ATOM     37  N   UNL     1      -1.130   0.122 -17.830  0.00  0.00    +0.056 N 
ATOM     38  O   UNL     1      -2.136   0.778 -17.969  0.00  0.00    -0.126 OA
ATOM     39  O   UNL     1      -0.499  -0.230 -18.800  0.00  0.00    -0.126 OA
ENDBRANCH  34  37
ENDBRANCH  30  31
ENDBRANCH  29  30
ENDBRANCH  27  29
ENDBRANCH  26  27
ENDBRANCH   5  26
TORSDOF 11
