REMARK  Name = ZINC28069130
REMARK  5 active torsions:
REMARK  status: ('A' for Active; 'I' for Inactive)
REMARK    1  A    between atoms: C_1  and  C_2
REMARK    2  A    between atoms: C_3  and  C_23
REMARK    3  A    between atoms: N_9  and  C_12
REMARK    4  A    between atoms: C_12  and  C_13
REMARK    5  A    between atoms: C_16  and  C_18
REMARK                            x       y       z     vdW  Elec       q    Type
REMARK                         _______ _______ _______ _____ _____    ______ ____
ROOT
ATOM      1  C   UNL     1      -6.339   9.152   4.161  0.00  0.00    +0.045 C 
ATOM      2  C   UNL     1      -4.877   9.281   4.505  0.00  0.00    -0.026 A 
ATOM      3  C   UNL     1      -4.501   9.706   5.721  0.00  0.00    -0.008 A 
ATOM      4  S   UNL     1      -2.720   9.687   5.633  0.00  0.00    -0.073 S 
ATOM      5  C   UNL     1      -2.534   9.108   3.965  0.00  0.00    +0.116 A 
ATOM      6  C   UNL     1      -3.860   8.947   3.525  0.00  0.00    +0.075 A 
ATOM      7  C   UNL     1      -4.013   8.485   2.177  0.00  0.00    +0.263 A 
ATOM      8  O   UNL     1      -5.124   8.319   1.702  0.00  0.00    -0.267 OA
ATOM      9  N   UNL     1      -2.912   8.232   1.446  0.00  0.00    -0.293 N 
ATOM     10  C   UNL     1      -1.668   8.417   1.957  0.00  0.00    +0.203 A 
ATOM     11  N   UNL     1      -1.495   8.842   3.180  0.00  0.00    -0.230 NA
ATOM     12  C   UNL     1      -5.374  10.105   6.883  0.00  0.00    +0.052 C 
ENDROOT
BRANCH   9  13
ATOM     13  C   UNL     1      -3.059   7.754   0.069  0.00  0.00    +0.182 C 
BRANCH  13  14
ATOM     14  C   UNL     1      -3.101   6.247   0.063  0.00  0.00    +0.069 A 
ATOM     15  C   UNL     1      -4.295   5.601   0.071  0.00  0.00    +0.072 A 
ATOM     16  S   UNL     1      -3.749   3.898   0.049  0.00  0.00    -0.075 S 
ATOM     17  C   UNL     1      -1.992   4.232   0.042  0.00  0.00    +0.109 A 
ATOM     18  N   UNL     1      -1.982   5.558   0.049  0.00  0.00    -0.242 NA
BRANCH  17  19
ATOM     19  C   UNL     1      -0.858   3.285   0.026  0.00  0.00    +0.014 A 
ATOM     20  C   UNL     1      -1.076   1.909   0.017  0.00  0.00    +0.018 A 
ATOM     21  C   UNL     1      -0.013   1.076   0.008  0.00  0.00    +0.046 A 
ATOM     22  S   UNL     1       1.362   2.214   0.001  0.00  0.00    -0.104 S 
ATOM     23  C   UNL     1       0.434   3.739   0.017  0.00  0.00    +0.055 A 
ENDBRANCH  17  19
ENDBRANCH  13  14
ENDBRANCH   9  13
TORSDOF 3
