REMARK  Name = ZINC04826575
REMARK  7 active torsions:
REMARK  status: ('A' for Active; 'I' for Inactive)
REMARK    1  A    between atoms: C_1  and  C_2
REMARK    2  A    between atoms: C_5  and  C_9
REMARK    3  A    between atoms: C_6  and  C_8
REMARK    4  A    between atoms: C_9  and  O_11
REMARK    5  A    between atoms: O_11  and  C_12
REMARK    6  A    between atoms: C_12  and  C_13
REMARK    7  A    between atoms: N_18  and  C_19
REMARK                            x       y       z     vdW  Elec       q    Type
REMARK                         _______ _______ _______ _____ _____    ______ ____
ROOT
ATOM      1  C   UNL     1      -6.986   0.199   2.670  0.00  0.00    +0.258 C 
ATOM      2  O   UNL     1      -6.582   0.939   3.542  0.00  0.00    -0.272 OA
ATOM      3  N   UNL     1      -6.123  -0.321   1.774  0.00  0.00    -0.237 N 
ATOM      4  C   UNL     1      -4.812  -0.018   1.848  0.00  0.00    +0.306 C 
ATOM      5  O   UNL     1      -4.407   0.723   2.722  0.00  0.00    -0.252 OA
ATOM      6  N   UNL     1      -3.949  -0.538   0.952  0.00  0.00    -0.294 N 
ATOM      7  H   UNL     1      -6.446  -0.912   1.077  0.00  0.00    +0.159 HD
ATOM      8  H   UNL     1      -4.272  -1.129   0.254  0.00  0.00    +0.151 HD
ENDROOT
BRANCH   6   9
ATOM      9  C   UNL     1      -2.524  -0.209   1.032  0.00  0.00    +0.037 C 
ATOM     10  C   UNL     1      -1.772  -0.924  -0.093  0.00  0.00    +0.029 C 
ATOM     11  C   UNL     1      -0.283  -0.580  -0.010  0.00  0.00    -0.008 C 
ATOM     12  C   UNL     1       0.270  -1.034   1.343  0.00  0.00    +0.007 C 
ATOM     13  C   UNL     1      -0.482  -0.320   2.467  0.00  0.00    -0.008 C 
ATOM     14  C   UNL     1      -1.971  -0.663   2.384  0.00  0.00    +0.029 C 
ATOM     15  C   UNL     1      -0.298   1.192   2.323  0.00  0.00    +0.007 C 
ATOM     16  C   UNL     1      -0.852   1.647   0.970  0.00  0.00    -0.008 C 
ATOM     17  C   UNL     1      -0.100   0.932  -0.154  0.00  0.00    +0.007 C 
ATOM     18  C   UNL     1      -2.340   1.303   0.887  0.00  0.00    +0.029 C 
ENDBRANCH   6   9
BRANCH   1  19
ATOM     19  C   UNL     1      -8.452  -0.139   2.588  0.00  0.00    +0.328 C 
BRANCH  19  20
ATOM     20  O   UNL     1      -9.166   0.539   3.655  0.00  0.00    -0.452 OA
BRANCH  20  21
ATOM     21  C   UNL     1     -10.496   0.341   3.724  0.00  0.00    +0.340 C 
ATOM     22  O   UNL     1     -11.045  -0.379   2.914  0.00  0.00    -0.245 OA
BRANCH  21  27
ATOM     23  C   UNL     1     -13.579   2.905   7.851  0.00  0.00    +0.044 C 
ATOM     24  C   UNL     1     -12.771   2.233   6.770  0.00  0.00    -0.050 A 
ATOM     25  C   UNL     1     -11.391   2.333   6.778  0.00  0.00    +0.004 A 
ATOM     26  C   UNL     1     -10.646   1.721   5.792  0.00  0.00    +0.015 A 
ATOM     27  C   UNL     1     -11.288   0.999   4.784  0.00  0.00    +0.062 A 
ATOM     28  C   UNL     1     -12.681   0.906   4.778  0.00  0.00    -0.036 A 
ATOM     29  C   UNL     1     -13.413   1.520   5.774  0.00  0.00    +0.007 A 
ATOM     30  C   UNL     1     -13.382   0.134   3.691  0.00  0.00    +0.044 C 
ENDBRANCH  21  27
ENDBRANCH  20  21
ENDBRANCH  19  20
ENDBRANCH   1  19
TORSDOF 5
