REMARK  Name = ZINC45607179
REMARK  9 active torsions:
REMARK  status: ('A' for Active; 'I' for Inactive)
REMARK    1  A    between atoms: C_1  and  C_2
REMARK    2  A    between atoms: C_2  and  C_4
REMARK    3  A    between atoms: C_2  and  N_13
REMARK    4  A    between atoms: C_4  and  C_5
REMARK    5  A    between atoms: C_5  and  C_6
REMARK    6  A    between atoms: C_9  and  O_12
REMARK    7  A    between atoms: N_16  and  C_17
REMARK    8  A    between atoms: N_16  and  C_18
REMARK    9  A    between atoms: C_18  and  C_19
REMARK                            x       y       z     vdW  Elec       q    Type
REMARK                         _______ _______ _______ _____ _____    ______ ____
ROOT
ATOM      1  N   UNL     1      -1.573  -0.671   0.333  0.00  0.00    -0.297 N 
ATOM      2  C   UNL     1      -2.065  -0.694  -0.921  0.00  0.00    +0.302 C 
ATOM      3  O   UNL     1      -1.382  -0.306  -1.849  0.00  0.00    -0.253 OA
ATOM      4  N   UNL     1      -3.314  -1.147  -1.147  0.00  0.00    -0.284 N 
ATOM      5  C   UNL     1      -4.137  -1.614  -0.029  0.00  0.00    +0.134 C 
ATOM      6  H   UNL     1      -2.118  -0.981   1.074  0.00  0.00    +0.151 HD
ENDROOT
BRANCH   1   8
ATOM      7  C   UNL     1      -0.242   1.344   0.719  0.00  0.00    +0.028 C 
ATOM      8  C   UNL     1      -0.215  -0.179   0.579  0.00  0.00    +0.072 C 
BRANCH   8   9
ATOM      9  C   UNL     1       0.328  -0.800   1.868  0.00  0.00    +0.026 C 
BRANCH   9  10
ATOM     10  C   UNL     1       0.472  -2.312   1.684  0.00  0.00    +0.037 C 
BRANCH  10  11
ATOM     11  C   UNL     1       1.006  -2.924   2.953  0.00  0.00    -0.047 A 
ATOM     12  C   UNL     1       2.371  -3.044   3.140  0.00  0.00    +0.007 A 
ATOM     13  C   UNL     1       2.863  -3.605   4.303  0.00  0.00    +0.045 A 
ATOM     14  C   UNL     1       1.987  -4.048   5.283  0.00  0.00    +0.117 A 
ATOM     15  C   UNL     1       0.618  -3.926   5.093  0.00  0.00    +0.045 A 
ATOM     16  C   UNL     1       0.131  -3.360   3.931  0.00  0.00    +0.007 A 
BRANCH  14  17
ATOM     17  O   UNL     1       2.468  -4.600   6.428  0.00  0.00    -0.507 OA
ATOM     18  H   UNL     1       2.627  -3.962   7.136  0.00  0.00    +0.292 HD
ENDBRANCH  14  17
ENDBRANCH  10  11
ENDBRANCH   9  10
ENDBRANCH   8   9
ENDBRANCH   1   8
BRANCH   4  19
ATOM     19  C   UNL     1      -3.849  -1.171  -2.510  0.00  0.00    +0.145 C 
BRANCH  19  20
ATOM     20  C   UNL     1      -3.624  -2.534  -3.114  0.00  0.00    -0.012 A 
ATOM     21  C   UNL     1      -3.086  -3.549  -2.346  0.00  0.00    +0.006 A 
ATOM     22  C   UNL     1      -2.879  -4.799  -2.899  0.00  0.00    +0.000 A 
ATOM     23  C   UNL     1      -3.210  -5.034  -4.221  0.00  0.00    +0.001 A 
ATOM     24  C   UNL     1      -3.748  -4.019  -4.989  0.00  0.00    +0.020 A 
ATOM     25  C   UNL     1      -3.961  -2.770  -4.434  0.00  0.00    +0.046 A 
ATOM     26 CL   UNL     1      -4.643  -1.496  -5.397  0.00  0.00    -0.083 Cl
ENDBRANCH  19  20
ENDBRANCH   4  19
TORSDOF 7
