REMARK  Name = ZINC09254260
REMARK  8 active torsions:
REMARK  status: ('A' for Active; 'I' for Inactive)
REMARK    1  A    between atoms: C_1  and  C_2
REMARK    2  A    between atoms: C_5  and  N_8
REMARK    3  A    between atoms: C_9  and  C_30
REMARK    4  A    between atoms: C_11  and  C_16
REMARK    5  A    between atoms: N_18  and  C_19
REMARK    6  A    between atoms: C_19  and  C_20
REMARK    7  A    between atoms: C_23  and  S_26
REMARK    8  A    between atoms: S_26  and  N_29
REMARK                            x       y       z     vdW  Elec       q    Type
REMARK                         _______ _______ _______ _____ _____    ______ ____
ROOT
ATOM      1  N   UNL     1       3.544  -0.499   0.073  0.00  0.00    -0.263 N 
ATOM      2  C   UNL     1       4.878   0.099  -0.061  0.00  0.00    +0.130 C 
ATOM      3  C   UNL     1       5.785  -1.029  -0.598  0.00  0.00    +0.109 C 
ATOM      4  C   UNL     1       5.041  -2.293  -0.110  0.00  0.00    +0.111 C 
ATOM      5  C   UNL     1       3.606  -1.841   0.051  0.00  0.00    +0.221 C 
ATOM      6  O   UNL     1       2.651  -2.583   0.146  0.00  0.00    -0.275 OA
ENDROOT
BRANCH   1  11
ATOM      7  C   UNL     1      -1.259   2.476   0.588  0.00  0.00    +0.044 C 
ATOM      8  C   UNL     1       0.017   1.685   0.456  0.00  0.00    -0.050 A 
ATOM      9  C   UNL     1       1.237   2.336   0.475  0.00  0.00    +0.005 A 
ATOM     10  C   UNL     1       2.408   1.615   0.348  0.00  0.00    +0.024 A 
ATOM     11  C   UNL     1       2.359   0.235   0.201  0.00  0.00    +0.037 A 
ATOM     12  C   UNL     1       1.133  -0.416   0.182  0.00  0.00    +0.024 A 
ATOM     13  C   UNL     1      -0.035   0.311   0.309  0.00  0.00    +0.005 A 
ENDBRANCH   1  11
BRANCH   2  14
ATOM     14  C   UNL     1       4.839   1.247  -1.036  0.00  0.00    +0.011 A 
ATOM     15  C   UNL     1       5.517   2.421  -1.000  0.00  0.00    +0.013 A 
ATOM     16  C   UNL     1       5.325   3.337  -2.017  0.00  0.00    +0.008 A 
ATOM     17  C   UNL     1       4.457   3.040  -3.014  0.00  0.00    +0.045 A 
ATOM     18  S   UNL     1       3.883   1.419  -2.534  0.00  0.00    -0.100 S 
ENDBRANCH   2  14
BRANCH   3  19
ATOM     19  C   UNL     1       5.852  -0.989  -2.103  0.00  0.00    +0.219 C 
ATOM     20  O   UNL     1       4.940  -1.442  -2.762  0.00  0.00    -0.275 OA
ATOM     21  N   UNL     1       6.925  -0.451  -2.715  0.00  0.00    -0.311 N 
ATOM     22  H   UNL     1       7.654  -0.089  -2.188  0.00  0.00    +0.149 HD
BRANCH  21  23
ATOM     23  C   UNL     1       6.990  -0.413  -4.178  0.00  0.00    +0.139 C 
BRANCH  23  24
ATOM     24  C   UNL     1       8.282   0.234  -4.607  0.00  0.00    -0.030 A 
ATOM     25  C   UNL     1       8.338   1.601  -4.805  0.00  0.00    +0.007 A 
ATOM     26  C   UNL     1       9.524   2.195  -5.193  0.00  0.00    +0.029 A 
ATOM     27  C   UNL     1      10.652   1.421  -5.394  0.00  0.00    +0.105 A 
ATOM     28  C   UNL     1      10.594   0.053  -5.201  0.00  0.00    +0.029 A 
ATOM     29  C   UNL     1       9.409  -0.540  -4.808  0.00  0.00    +0.007 A 
BRANCH  27  30
ATOM     30  S   UNL     1      12.162   2.177  -5.896  0.00  0.00    +0.056 S 
ATOM     31  O   UNL     1      12.095   3.534  -5.479  0.00  0.00    -0.153 OA
ATOM     32  O   UNL     1      13.207   1.306  -5.488  0.00  0.00    -0.153 OA
BRANCH  30  33
ATOM     33  N   UNL     1      12.176   2.190  -7.552  0.00  0.00    -0.204 NA
ATOM     34  H   UNL     1      12.643   2.895  -8.027  0.00  0.00    +0.144 HD
ATOM     35  H   UNL     1      11.717   1.493  -8.046  0.00  0.00    +0.144 HD
ENDBRANCH  30  33
ENDBRANCH  27  30
ENDBRANCH  23  24
ENDBRANCH  21  23
ENDBRANCH   3  19
TORSDOF 7
