REMARK  Name = ZINC35174075
REMARK  12 active torsions:
REMARK  status: ('A' for Active; 'I' for Inactive)
REMARK    1  A    between atoms: C_1  and  C_2
REMARK    2  A    between atoms: C_2  and  O_3
REMARK    3  A    between atoms: O_3  and  C_4
REMARK    4  A    between atoms: C_4  and  C_6
REMARK    5  A    between atoms: C_6  and  N_7
REMARK    6  A    between atoms: N_7  and  C_8
REMARK    7  A    between atoms: C_9  and  C_18
REMARK    8  A    between atoms: C_15  and  C_17
REMARK    9  A    between atoms: C_21  and  O_24
REMARK   10  A    between atoms: O_24  and  S_25
REMARK   11  A    between atoms: S_25  and  C_28
REMARK   12  A    between atoms: C_31  and  N_34
REMARK                            x       y       z     vdW  Elec       q    Type
REMARK                         _______ _______ _______ _____ _____    ______ ____
ROOT
ATOM      1  C   UNL     1      -3.945  -4.665   0.015  0.00  0.00    +0.129 A 
ATOM      2  C   UNL     1      -4.012  -6.042   0.013  0.00  0.00    +0.087 A 
ATOM      3  N   UNL     1      -5.310  -6.395   0.023  0.00  0.00    -0.338 N 
ATOM      4  C   UNL     1      -6.060  -5.305   0.029  0.00  0.00    +0.117 A 
ATOM      5  N   UNL     1      -5.232  -4.205   0.030  0.00  0.00    -0.289 N 
ATOM      6  C   UNL     1      -5.761  -2.942   0.041  0.00  0.00    +0.094 A 
ATOM      7  C   UNL     1      -7.096  -2.757   0.055  0.00  0.00    +0.021 A 
ATOM      8  C   UNL     1      -7.967  -3.861   0.059  0.00  0.00    -0.046 A 
ATOM      9  C   UNL     1      -7.459  -5.122   0.040  0.00  0.00    +0.048 A 
ATOM     10  C   UNL     1      -9.458  -3.647   0.075  0.00  0.00    +0.044 C 
ATOM     11  H   UNL     1      -5.644  -7.306   0.024  0.00  0.00    +0.167 HD
ENDROOT
BRANCH   2  12
ATOM     12  C   UNL     1      -2.857  -6.970   0.003  0.00  0.00    +0.002 A 
ATOM     13  C   UNL     1      -1.782  -6.738  -0.854  0.00  0.00    +0.014 A 
ATOM     14  C   UNL     1      -0.708  -7.604  -0.860  0.00  0.00    +0.049 A 
ATOM     15  C   UNL     1      -0.697  -8.705  -0.015  0.00  0.00    +0.157 A 
ATOM     16  C   UNL     1      -1.766  -8.939   0.840  0.00  0.00    +0.049 A 
ATOM     17  C   UNL     1      -2.840  -8.074   0.855  0.00  0.00    +0.014 A 
BRANCH  15  18
ATOM     18  O   UNL     1       0.363  -9.556  -0.024  0.00  0.00    -0.342 OA
BRANCH  18  19
ATOM     19  S   UNL     1       1.466  -9.182   0.956  0.00  0.00    +0.151 S 
ATOM     20  O   UNL     1       2.566 -10.035   0.674  0.00  0.00    -0.131 OA
ATOM     21  O   UNL     1       1.573  -7.765   0.925  0.00  0.00    -0.131 OA
BRANCH  19  22
ATOM     22  C   UNL     1       0.897  -9.609   2.568  0.00  0.00    +0.128 A 
ATOM     23  C   UNL     1       0.192  -8.688   3.319  0.00  0.00    +0.033 A 
ATOM     24  C   UNL     1      -0.254  -9.023   4.584  0.00  0.00    +0.035 A 
ATOM     25  C   UNL     1       0.005 -10.280   5.098  0.00  0.00    +0.126 A 
ATOM     26  C   UNL     1       0.710 -11.202   4.346  0.00  0.00    +0.035 A 
ATOM     27  C   UNL     1       1.152 -10.868   3.080  0.00  0.00    +0.033 A 
BRANCH  25  28
ATOM     28  N   UNL     1      -0.471 -10.638   6.452  0.00  0.00    +0.056 N 
ATOM     29  O   UNL     1      -1.087  -9.832   7.110  0.00  0.00    -0.126 OA
ATOM     30  O   UNL     1      -0.245 -11.738   6.902  0.00  0.00    -0.126 OA
ENDBRANCH  25  28
ENDBRANCH  19  22
ENDBRANCH  18  19
ENDBRANCH  15  18
ENDBRANCH   2  12
BRANCH   1  31
ATOM     31  N   UNL     1      -2.784  -3.888   0.008  0.00  0.00    -0.318 N 
ATOM     32  H   UNL     1      -1.914  -4.317  -0.003  0.00  0.00    +0.148 HD
BRANCH  31  33
ATOM     33  C   UNL     1      -2.881  -2.427   0.017  0.00  0.00    +0.224 C 
BRANCH  33  34
ATOM     34  C   UNL     1      -1.496  -1.832   0.006  0.00  0.00    +0.324 C 
ATOM     35  O   UNL     1      -0.528  -2.555  -0.007  0.00  0.00    -0.249 OA
BRANCH  34  36
ATOM     36  O   UNL     1      -1.339  -0.499   0.012  0.00  0.00    -0.464 OA
BRANCH  36  38
ATOM     37  C   UNL     1      -0.019   1.526   0.010  0.00  0.00    +0.048 C 
ATOM     38  C   UNL     1       0.002  -0.004   0.002  0.00  0.00    +0.229 C 
ENDBRANCH  36  38
ENDBRANCH  34  36
ENDBRANCH  33  34
ENDBRANCH  31  33
ENDBRANCH   1  31
TORSDOF 10
