REMARK  Name = ZINC02395345
REMARK  4 active torsions:
REMARK  status: ('A' for Active; 'I' for Inactive)
REMARK    1  A    between atoms: C_6  and  C_7
REMARK    2  A    between atoms: C_13  and  C_15
REMARK    3  A    between atoms: C_15  and  O_16
REMARK    4  A    between atoms: O_16  and  C_17
REMARK                            x       y       z     vdW  Elec       q    Type
REMARK                         _______ _______ _______ _____ _____    ______ ____
ROOT
ATOM      1  C   UNL     1      -5.661   5.269   1.637  0.00  0.00    +0.186 A 
ATOM      2  N   UNL     1      -6.605   5.648   0.806  0.00  0.00    -0.126 NA
ATOM      3  N   UNL     1      -6.208   5.494  -0.409  0.00  0.00    -0.120 NA
ATOM      4  C   UNL     1      -5.000   5.013  -0.415  0.00  0.00    +0.218 A 
ATOM      5  N   UNL     1      -4.579   4.840   0.880  0.00  0.00    -0.186 N 
ATOM      6  N   UNL     1      -3.301   4.325   1.052  0.00  0.00    -0.157 NA
ATOM      7  C   UNL     1      -2.546   4.033   0.036  0.00  0.00    +0.140 A 
ATOM      8  S   UNL     1      -3.595   4.456  -1.347  0.00  0.00    -0.028 S 
ENDROOT
BRANCH   1  14
ATOM      9  C   UNL     1      -4.576   5.159   3.876  0.00  0.00    +0.013 A 
ATOM     10  C   UNL     1      -4.652   5.188   5.253  0.00  0.00    +0.021 A 
ATOM     11  C   UNL     1      -5.879   5.340   5.878  0.00  0.00    +0.041 A 
ATOM     12  C   UNL     1      -7.034   5.469   5.126  0.00  0.00    +0.021 A 
ATOM     13  C   UNL     1      -6.970   5.447   3.748  0.00  0.00    +0.013 A 
ATOM     14  C   UNL     1      -5.737   5.294   3.112  0.00  0.00    +0.021 A 
ATOM     15 CL   UNL     1      -5.968   5.369   7.611  0.00  0.00    -0.084 Cl
ENDBRANCH   1  14
BRANCH   7  16
ATOM     16  C   UNL     1      -1.146   3.475   0.026  0.00  0.00    +0.293 C 
BRANCH  16  17
ATOM     17  O   UNL     1      -1.202   2.047   0.019  0.00  0.00    -0.485 OA
BRANCH  17  18
ATOM     18  C   UNL     1      -0.017   1.383   0.010  0.00  0.00    +0.121 A 
ATOM     19  C   UNL     1       1.176   2.091   0.002  0.00  0.00    +0.047 A 
ATOM     20  C   UNL     1       2.380   1.414  -0.012  0.00  0.00    +0.023 A 
ATOM     21  C   UNL     1       2.397   0.030  -0.020  0.00  0.00    +0.041 A 
ATOM     22  C   UNL     1       1.208  -0.677  -0.013  0.00  0.00    +0.023 A 
ATOM     23  C   UNL     1       0.002  -0.004   0.002  0.00  0.00    +0.047 A 
ATOM     24 CL   UNL     1       3.911  -0.818  -0.039  0.00  0.00    -0.084 Cl
ENDBRANCH  17  18
ENDBRANCH  16  17
ENDBRANCH   7  16
TORSDOF 4
