REMARK  Name = ZINC63778169
REMARK  6 active torsions:
REMARK  status: ('A' for Active; 'I' for Inactive)
REMARK    1  A    between atoms: C_1  and  O_2
REMARK    2  A    between atoms: O_2  and  C_3
REMARK    3  A    between atoms: C_6  and  C_11
REMARK    4  A    between atoms: C_8  and  O_9
REMARK    5  A    between atoms: O_9  and  C_10
REMARK    6  A    between atoms: C_23  and  C_27
REMARK                            x       y       z     vdW  Elec       q    Type
REMARK                         _______ _______ _______ _____ _____    ______ ____
ROOT
ATOM      1  C   UNL     1      -4.987  -2.627   0.035  0.00  0.00    +0.111 C 
ATOM      2  C   UNL     1      -5.556  -2.634   1.456  0.00  0.00    +0.128 C 
ATOM      3  C   UNL     1      -6.968  -3.199   1.347  0.00  0.00    -0.028 C 
ATOM      4  C   UNL     1      -7.034  -4.211   2.201  0.00  0.00    -0.000 A 
ATOM      5  C   UNL     1      -8.148  -5.084   2.604  0.00  0.00    +0.010 A 
ATOM      6  C   UNL     1      -7.853  -6.051   3.513  0.00  0.00    +0.001 A 
ATOM      7  C   UNL     1      -6.577  -6.234   4.055  0.00  0.00    +0.002 A 
ATOM      8  C   UNL     1      -5.496  -5.474   3.746  0.00  0.00    +0.026 A 
ATOM      9  C   UNL     1      -5.682  -4.421   2.804  0.00  0.00    +0.043 A 
ATOM     10  N   UNL     1      -4.823  -3.528   2.351  0.00  0.00    -0.376 N 
ATOM     11  C   UNL     1      -7.957  -2.668   0.338  0.00  0.00    +0.063 C 
ATOM     12  C   UNL     1      -7.208  -2.603  -1.006  0.00  0.00    +0.094 C 
ATOM     13  N   UNL     1      -5.929  -1.908  -0.838  0.00  0.00    -0.307 NA
ATOM     14  H   UNL     1      -6.071  -0.963  -0.515  0.00  0.00    +0.123 HD
ATOM     15  H   UNL     1      -3.878  -3.470   2.562  0.00  0.00    +0.160 HD
ENDROOT
BRANCH  11  16
ATOM     16  C   UNL     1      -9.137  -3.599   0.231  0.00  0.00    -0.021 A 
ATOM     17  C   UNL     1      -8.949  -4.913  -0.153  0.00  0.00    +0.006 A 
ATOM     18  C   UNL     1     -10.031  -5.767  -0.251  0.00  0.00    +0.000 A 
ATOM     19  C   UNL     1     -11.303  -5.308   0.035  0.00  0.00    +0.001 A 
ATOM     20  C   UNL     1     -11.493  -3.994   0.420  0.00  0.00    +0.020 A 
ATOM     21  C   UNL     1     -10.409  -3.140   0.523  0.00  0.00    +0.045 A 
ATOM     22 CL   UNL     1     -10.646  -1.491   1.012  0.00  0.00    -0.083 Cl
ENDBRANCH  11  16
BRANCH   1  26
ATOM     23  C   UNL     1      -1.201  -0.638   0.010  0.00  0.00    +0.162 A 
ATOM     24  C   UNL     1      -2.374   0.099   0.019  0.00  0.00    +0.050 A 
ATOM     25  C   UNL     1      -3.596  -0.546   0.027  0.00  0.00    +0.009 A 
ATOM     26  C   UNL     1      -3.652  -1.928   0.026  0.00  0.00    -0.024 A 
ATOM     27  C   UNL     1      -2.485  -2.669   0.017  0.00  0.00    +0.054 A 
ATOM     28  C   UNL     1      -1.257  -2.028   0.003  0.00  0.00    +0.162 A 
BRANCH  23  30
ATOM     29  C   UNL     1      -0.017   1.425   0.010  0.00  0.00    +0.277 C 
ATOM     30  O   UNL     1       0.002  -0.004   0.002  0.00  0.00    -0.491 OA
ENDBRANCH  23  30
BRANCH  28  31
ATOM     31  O   UNL     1      -0.108  -2.756  -0.012  0.00  0.00    -0.491 OA
ATOM     32  C   UNL     1      -0.242  -4.179  -0.018  0.00  0.00    +0.277 C 
ENDBRANCH  28  31
ENDBRANCH   1  26
TORSDOF 4
