REMARK  Name = ZINC38926119
REMARK  10 active torsions:
REMARK  status: ('A' for Active; 'I' for Inactive)
REMARK    1  A    between atoms: C_1  and  C_2
REMARK    2  A    between atoms: C_5  and  N_8
REMARK    3  A    between atoms: N_8  and  C_9
REMARK    4  A    between atoms: C_9  and  C_10
REMARK    5  A    between atoms: C_15  and  C_22
REMARK    6  A    between atoms: C_23  and  C_25
REMARK    7  A    between atoms: C_28  and  C_31
REMARK    8  A    between atoms: C_31  and  C_32
REMARK    9  A    between atoms: C_31  and  C_33
REMARK   10  A    between atoms: C_31  and  C_34
REMARK                            x       y       z     vdW  Elec       q    Type
REMARK                         _______ _______ _______ _____ _____    ______ ____
ROOT
ATOM      1  N   UNL     1       0.702  -4.081  -0.144  0.00  0.00    -0.266 N 
ATOM      2  C   UNL     1       0.245  -4.718  -1.241  0.00  0.00    +0.251 C 
ATOM      3  O   UNL     1      -0.326  -4.092  -2.113  0.00  0.00    -0.270 OA
ENDROOT
BRANCH   1   8
ATOM      4  C   UNL     1       0.091   1.538   0.335  0.00  0.00    +0.044 C 
ATOM      5  C   UNL     1       0.253   0.045   0.208  0.00  0.00    -0.050 A 
ATOM      6  C   UNL     1      -0.491  -0.653  -0.726  0.00  0.00    +0.005 A 
ATOM      7  C   UNL     1      -0.345  -2.021  -0.845  0.00  0.00    +0.024 A 
ATOM      8  C   UNL     1       0.551  -2.696  -0.026  0.00  0.00    +0.037 A 
ATOM      9  C   UNL     1       1.298  -1.992   0.910  0.00  0.00    +0.024 A 
ATOM     10  C   UNL     1       1.150  -0.623   1.021  0.00  0.00    +0.005 A 
ENDBRANCH   1   8
BRANCH   2  11
ATOM     11  C   UNL     1       0.438  -6.176  -1.383  0.00  0.00    +0.037 A 
ATOM     12  C   UNL     1       0.518  -6.987  -0.250  0.00  0.00    +0.013 A 
ATOM     13  C   UNL     1       0.698  -8.347  -0.390  0.00  0.00    +0.005 A 
ATOM     14  C   UNL     1       0.800  -8.909  -1.650  0.00  0.00    -0.042 A 
ATOM     15  C   UNL     1       0.722  -8.111  -2.778  0.00  0.00    +0.005 A 
ATOM     16  C   UNL     1       0.536  -6.750  -2.652  0.00  0.00    +0.013 A 
BRANCH  14  17
ATOM     17  C   UNL     1       0.998 -10.396  -1.795  0.00  0.00    -0.013 C 
ATOM     18  C   UNL     1      -0.181 -11.132  -1.155  0.00  0.00    +0.015 C 
ATOM     19  C   UNL     1       1.078 -10.757  -3.280  0.00  0.00    +0.015 C 
ATOM     20  C   UNL     1       2.296 -10.808  -1.099  0.00  0.00    +0.015 C 
ENDBRANCH  14  17
ENDBRANCH   2  11
BRANCH   1  21
ATOM     21  C   UNL     1       1.355  -4.841   0.924  0.00  0.00    +0.131 C 
BRANCH  21  22
ATOM     22  C   UNL     1       0.362  -5.076   2.064  0.00  0.00    +0.116 C 
ATOM     23  C   UNL     1       0.998  -6.043   3.043  0.00  0.00    -0.003 C 
ATOM     24  C   UNL     1       1.141  -5.624   4.332  0.00  0.00    -0.007 A 
ATOM     25  C   UNL     1       1.744  -6.494   5.342  0.00  0.00    +0.012 A 
ATOM     26  C   UNL     1       1.866  -6.034   6.614  0.00  0.00    -0.050 A 
ATOM     27  C   UNL     1       1.430  -4.758   6.971  0.00  0.00    +0.005 A 
ATOM     28  C   UNL     1       0.862  -3.903   6.081  0.00  0.00    +0.024 A 
ATOM     29  C   UNL     1       0.690  -4.281   4.736  0.00  0.00    +0.040 A 
ATOM     30  N   UNL     1       0.132  -3.434   3.872  0.00  0.00    -0.284 N 
ATOM     31  C   UNL     1      -0.060  -3.726   2.597  0.00  0.00    +0.226 C 
ATOM     32  O   UNL     1      -0.575  -2.910   1.856  0.00  0.00    -0.275 OA
ATOM     33  C   UNL     1       2.486  -6.922   7.663  0.00  0.00    +0.044 C 
ATOM     34  H   UNL     1      -0.146  -2.562   4.194  0.00  0.00    +0.155 HD
ENDBRANCH  21  22
ENDBRANCH   1  21
TORSDOF 5
