REMARK  Name = ZINC40729332
REMARK  6 active torsions:
REMARK  status: ('A' for Active; 'I' for Inactive)
REMARK    1  A    between atoms: C_1  and  C_2
REMARK    2  A    between atoms: C_3  and  C_28
REMARK    3  A    between atoms: C_9  and  N_27
REMARK    4  A    between atoms: C_10  and  N_14
REMARK    5  A    between atoms: C_17  and  C_20
REMARK    6  A    between atoms: C_20  and  C_21
REMARK                            x       y       z     vdW  Elec       q    Type
REMARK                         _______ _______ _______ _____ _____    ______ ____
ROOT
ATOM      1  C   UNL     1      -0.120   1.439  -0.033  0.00  0.00    +0.066 C 
ATOM      2  C   UNL     1      -1.321   0.873   0.681  0.00  0.00    +0.050 A 
ATOM      3  C   UNL     1      -2.581   1.111   0.243  0.00  0.00    +0.011 A 
ATOM      4  S   UNL     1      -3.532   0.210   1.456  0.00  0.00    -0.057 S 
ATOM      5  C   UNL     1      -2.247  -0.366   2.378  0.00  0.00    +0.164 A 
ATOM      6  N   UNL     1      -1.192   0.119   1.758  0.00  0.00    -0.230 NA
ATOM      7  N   UNL     1      -2.288  -1.163   3.513  0.00  0.00    -0.277 N 
ATOM      8  C   UNL     1      -1.107  -1.540   4.142  0.00  0.00    +0.150 A 
ATOM      9  C   UNL     1      -1.136  -2.346   5.281  0.00  0.00    +0.106 A 
ATOM     10  C   UNL     1       0.080  -2.695   5.873  0.00  0.00    +0.147 A 
ATOM     11  N   UNL     1       1.211  -2.249   5.333  0.00  0.00    -0.219 NA
ATOM     12  C   UNL     1       1.194  -1.489   4.257  0.00  0.00    +0.225 A 
ATOM     13  N   UNL     1       0.070  -1.141   3.664  0.00  0.00    -0.219 NA
ATOM     14  C   UNL     1      -3.051   1.916  -0.941  0.00  0.00    +0.053 C 
ATOM     15  H   UNL     1      -3.142  -1.458   3.867  0.00  0.00    +0.156 HD
ENDROOT
BRANCH  10  16
ATOM     16  N   UNL     1       0.107  -3.496   7.009  0.00  0.00    -0.314 N 
ATOM     17  C   UNL     1       0.264  -4.952   6.894  0.00  0.00    +0.107 C 
ATOM     18  C   UNL     1       1.442  -5.392   7.770  0.00  0.00    +0.023 C 
ATOM     19  C   UNL     1       1.223  -4.893   9.200  0.00  0.00    -0.004 C 
ATOM     20  C   UNL     1       1.161  -3.364   9.206  0.00  0.00    +0.023 C 
ATOM     21  C   UNL     1      -0.014  -2.901   8.347  0.00  0.00    +0.107 C 
BRANCH  19  22
ATOM     22  C   UNL     1       2.381  -5.360  10.085  0.00  0.00    +0.038 C 
BRANCH  22  23
ATOM     23  C   UNL     1       2.106  -4.976  11.516  0.00  0.00    -0.047 A 
ATOM     24  C   UNL     1       2.529  -3.751  11.996  0.00  0.00    +0.003 A 
ATOM     25  C   UNL     1       2.277  -3.398  13.309  0.00  0.00    +0.000 A 
ATOM     26  C   UNL     1       1.601  -4.270  14.141  0.00  0.00    +0.000 A 
ATOM     27  C   UNL     1       1.176  -5.495  13.661  0.00  0.00    +0.000 A 
ATOM     28  C   UNL     1       1.424  -5.846  12.347  0.00  0.00    +0.003 A 
ENDBRANCH  22  23
ENDBRANCH  19  22
ENDBRANCH  10  16
BRANCH   9  29
ATOM     29  N   UNL     1      -2.354  -2.794   5.817  0.00  0.00    -0.353 N 
ATOM     30  H   UNL     1      -3.192  -2.471   5.451  0.00  0.00    +0.143 HD
ATOM     31  H   UNL     1      -2.357  -3.426   6.553  0.00  0.00    +0.143 HD
ENDBRANCH   9  29
TORSDOF 4
