REMARK  Name = ZINC10062241
REMARK  4 active torsions:
REMARK  status: ('A' for Active; 'I' for Inactive)
REMARK    1  A    between atoms: C_2  and  C_3
REMARK    2  A    between atoms: C_3  and  N_4
REMARK    3  A    between atoms: N_13  and  C_14
REMARK    4  A    between atoms: C_14  and  C_16
REMARK                            x       y       z     vdW  Elec       q    Type
REMARK                         _______ _______ _______ _____ _____    ______ ____
ROOT
ATOM      1  N   UNL     1       7.461   4.931  -0.044  0.00  0.00    -0.317 N 
ATOM      2  C   UNL     1       8.835   4.779  -0.052  0.00  0.00    +0.058 A 
ATOM      3  C   UNL     1       9.822   5.777  -0.056  0.00  0.00    +0.027 A 
ATOM      4  C   UNL     1      11.156   5.447  -0.069  0.00  0.00    +0.002 A 
ATOM      5  C   UNL     1      11.568   4.125  -0.079  0.00  0.00    +0.001 A 
ATOM      6  C   UNL     1      10.616   3.120  -0.075  0.00  0.00    +0.017 A 
ATOM      7  C   UNL     1       9.282   3.450  -0.062  0.00  0.00    +0.039 A 
ATOM      8  S   UNL     1       7.774   2.513  -0.053  0.00  0.00    -0.052 S 
ATOM      9  C   UNL     1       6.654   3.837  -0.037  0.00  0.00    +0.167 A 
ATOM     10  N   UNL     1       5.325   3.793  -0.026  0.00  0.00    -0.148 NA
ENDROOT
BRANCH  10  11
ATOM     11  C   UNL     1       4.696   2.614  -0.026  0.00  0.00    +0.325 C 
ATOM     12  O   UNL     1       5.340   1.579  -0.037  0.00  0.00    -0.263 OA
BRANCH  11  13
ATOM     13  C   UNL     1       3.216   2.565  -0.014  0.00  0.00    +0.287 A 
ATOM     14  N   UNL     1       2.432   3.610  -0.002  0.00  0.00    -0.205 NA
ATOM     15  C   UNL     1       1.149   3.194   0.008  0.00  0.00    +0.110 A 
ATOM     16  C   UNL     1      -0.083   3.859   0.023  0.00  0.00    +0.031 A 
ATOM     17  C   UNL     1      -1.243   3.139   0.030  0.00  0.00    +0.002 A 
ATOM     18  C   UNL     1      -1.214   1.752   0.017  0.00  0.00    +0.004 A 
ATOM     19  C   UNL     1      -0.013   1.076   0.008  0.00  0.00    +0.048 A 
ATOM     20  C   UNL     1       1.178   1.788   0.000  0.00  0.00    +0.156 A 
ATOM     21  O   UNL     1       2.481   1.436  -0.013  0.00  0.00    -0.432 OA
ENDBRANCH  11  13
ENDBRANCH  10  11
BRANCH   1  22
ATOM     22  C   UNL     1       6.874   6.274  -0.040  0.00  0.00    +0.151 C 
BRANCH  22  24
ATOM     23  C   UNL     1       4.468   6.677  -0.124  0.00  0.00    +0.005 C 
ATOM     24  C   UNL     1       5.539   6.240  -0.738  0.00  0.00    -0.013 C 
ENDBRANCH  22  24
ENDBRANCH   1  22
TORSDOF 4
