REMARK  Name = ZINC15947091
REMARK  10 active torsions:
REMARK  status: ('A' for Active; 'I' for Inactive)
REMARK    1  A    between atoms: C_1  and  C_2
REMARK    2  A    between atoms: C_2  and  C_3
REMARK    3  A    between atoms: C_2  and  N_4
REMARK    4  A    between atoms: C_12  and  O_34
REMARK    5  A    between atoms: C_14  and  C_17
REMARK    6  A    between atoms: C_20  and  O_23
REMARK    7  A    between atoms: O_23  and  C_24
REMARK    8  A    between atoms: C_24  and  C_26
REMARK    9  A    between atoms: C_29  and  O_32
REMARK   10  A    between atoms: O_32  and  C_33
REMARK                            x       y       z     vdW  Elec       q    Type
REMARK                         _______ _______ _______ _____ _____    ______ ____
ROOT
ATOM      1  N   UNL     1      -1.118  -0.128  -0.229  0.00  0.00    +0.384 N 
ATOM      2  C   UNL     1      -1.331  -1.569  -0.039  0.00  0.00    -0.073 C 
ATOM      3  C   UNL     1      -2.754  -1.830   0.466  0.00  0.00    +0.018 C 
ATOM      4  C   UNL     1      -3.722  -1.123  -0.474  0.00  0.00    -0.027 A 
ATOM      5  C   UNL     1      -3.271  -0.156  -1.308  0.00  0.00    -0.021 A 
ATOM      6  S   UNL     1      -4.705   0.375  -2.199  0.00  0.00    -0.080 S 
ATOM      7  C   UNL     1      -5.838  -0.623  -1.514  0.00  0.00    +0.080 A 
ATOM      8  C   UNL     1      -5.142  -1.392  -0.572  0.00  0.00    +0.067 A 
ATOM      9  C   UNL     1      -5.923  -2.380   0.216  0.00  0.00    +0.220 C 
ATOM     10  N   UNL     1      -7.137  -2.649  -0.180  0.00  0.00    -0.223 NA
ATOM     11  C   UNL     1      -7.757  -2.096  -1.378  0.00  0.00    +0.224 C 
ATOM     12  N   UNL     1      -7.190  -0.780  -1.724  0.00  0.00    -0.313 N 
ATOM     13  C   UNL     1      -1.861   0.330  -1.418  0.00  0.00    -0.035 C 
ATOM     14  H   UNL     1      -7.739  -0.064  -2.081  0.00  0.00    +0.149 HD
ATOM     15  H   UNL     1      -1.447   0.370   0.584  0.00  0.00    -0.081 HD
ENDROOT
BRANCH  11  16
ATOM     16  C   UNL     1      -7.536  -3.044  -2.528  0.00  0.00    -0.005 A 
ATOM     17  C   UNL     1      -7.437  -2.553  -3.817  0.00  0.00    +0.011 A 
ATOM     18  C   UNL     1      -7.234  -3.420  -4.874  0.00  0.00    +0.047 A 
ATOM     19  C   UNL     1      -7.130  -4.784  -4.640  0.00  0.00    +0.132 A 
ATOM     20  C   UNL     1      -7.229  -5.273  -3.346  0.00  0.00    +0.047 A 
ATOM     21  C   UNL     1      -7.426  -4.402  -2.292  0.00  0.00    +0.011 A 
BRANCH  19  22
ATOM     22  O   UNL     1      -6.931  -5.639  -5.678  0.00  0.00    -0.422 OA
BRANCH  22  23
ATOM     23  C   UNL     1      -5.692  -5.720  -6.202  0.00  0.00    +0.344 C 
ATOM     24  O   UNL     1      -4.815  -4.978  -5.806  0.00  0.00    -0.245 OA
BRANCH  23  25
ATOM     25  C   UNL     1      -5.400  -6.710  -7.255  0.00  0.00    +0.060 A 
ATOM     26  C   UNL     1      -6.409  -7.561  -7.716  0.00  0.00    +0.018 A 
ATOM     27  C   UNL     1      -6.133  -8.484  -8.700  0.00  0.00    +0.046 A 
ATOM     28  C   UNL     1      -4.853  -8.570  -9.235  0.00  0.00    +0.120 A 
ATOM     29  C   UNL     1      -3.847  -7.726  -8.780  0.00  0.00    +0.046 A 
ATOM     30  C   UNL     1      -4.116  -6.796  -7.800  0.00  0.00    +0.018 A 
BRANCH  28  31
ATOM     31  O   UNL     1      -4.585  -9.480 -10.205  0.00  0.00    -0.495 OA
ATOM     32  C   UNL     1      -3.249  -9.515 -10.711  0.00  0.00    +0.277 C 
ENDBRANCH  28  31
ENDBRANCH  23  25
ENDBRANCH  22  23
ENDBRANCH  19  22
ENDBRANCH  11  16
BRANCH   1  34
ATOM     33  C   UNL     1       0.528   1.619  -0.714  0.00  0.00    -0.014 C 
ATOM     34  C   UNL     1       0.315   0.134  -0.417  0.00  0.00    -0.074 C 
ATOM     35  C   UNL     1       1.074  -0.245   0.857  0.00  0.00    -0.014 C 
ENDBRANCH   1  34
BRANCH   9  36
ATOM     36  O   UNL     1      -5.393  -2.980   1.308  0.00  0.00    -0.492 OA
ATOM     37  H   UNL     1      -5.991  -3.604   1.742  0.00  0.00    +0.294 HD
ENDBRANCH   9  36
TORSDOF 7
