REMARK  Name = ZINC12528531
REMARK  8 active torsions:
REMARK  status: ('A' for Active; 'I' for Inactive)
REMARK    1  A    between atoms: C_1  and  C_2
REMARK    2  A    between atoms: C_8  and  N_10
REMARK    3  A    between atoms: C_11  and  C_13
REMARK    4  A    between atoms: C_13  and  S_14
REMARK    5  A    between atoms: S_14  and  C_15
REMARK    6  A    between atoms: C_15  and  C_17
REMARK    7  A    between atoms: C_15  and  C_18
REMARK    8  A    between atoms: N_24  and  C_25
REMARK                            x       y       z     vdW  Elec       q    Type
REMARK                         _______ _______ _______ _____ _____    ______ ____
ROOT
ATOM      1  C   UNL     1       2.278   0.029   0.302  0.00  0.00    +0.149 A 
ATOM      2  N   UNL     1       1.143  -0.625   0.482  0.00  0.00    -0.198 NA
ATOM      3  C   UNL     1      -0.011   0.037   0.507  0.00  0.00    +0.217 A 
ATOM      4  N   UNL     1      -0.022   1.357   0.351  0.00  0.00    -0.181 NA
ATOM      5  C   UNL     1       1.120   2.010   0.172  0.00  0.00    +0.224 A 
ATOM      6  N   UNL     1       2.271   1.341   0.148  0.00  0.00    -0.198 NA
ATOM      7  N   UNL     1       1.114   3.382   0.009  0.00  0.00    -0.284 N 
ATOM      8  N   UNL     1      -1.195  -0.646   0.694  0.00  0.00    -0.327 N 
ATOM      9  H   UNL     1       1.952   3.868  -0.042  0.00  0.00    +0.155 HD
ATOM     10  H   UNL     1      -2.037  -0.163   0.713  0.00  0.00    +0.145 HD
ATOM     11  H   UNL     1      -1.187  -1.610   0.807  0.00  0.00    +0.145 HD
ENDROOT
BRANCH   7  12
ATOM     12  C   UNL     1      -0.100   4.070  -0.082  0.00  0.00    +0.034 A 
ATOM     13  C   UNL     1      -1.197   3.469  -0.686  0.00  0.00    +0.023 A 
ATOM     14  C   UNL     1      -2.396   4.149  -0.770  0.00  0.00    +0.002 A 
ATOM     15  C   UNL     1      -2.502   5.431  -0.262  0.00  0.00    +0.000 A 
ATOM     16  C   UNL     1      -1.411   6.035   0.335  0.00  0.00    +0.002 A 
ATOM     17  C   UNL     1      -0.210   5.358   0.427  0.00  0.00    +0.023 A 
ENDBRANCH   7  12
BRANCH   1  18
ATOM     18  C   UNL     1       3.583  -0.724   0.275  0.00  0.00    +0.112 C 
ATOM     19  C   UNL     1       3.717  -1.462  -1.058  0.00  0.00    +0.027 C 
BRANCH  18  20
ATOM     20  S   UNL     1       3.618  -1.922   1.636  0.00  0.00    -0.141 S 
BRANCH  20  21
ATOM     21  C   UNL     1       5.288  -2.626   1.558  0.00  0.00    +0.165 C 
BRANCH  21  23
ATOM     22  N   UNL     1       6.622  -4.309   2.786  0.00  0.00    -0.312 N 
ATOM     23  C   UNL     1       5.453  -3.651   2.650  0.00  0.00    +0.223 C 
ATOM     24  O   UNL     1       4.535  -3.884   3.407  0.00  0.00    -0.275 OA
ATOM     25  H   UNL     1       7.356  -4.123   2.180  0.00  0.00    +0.149 HD
BRANCH  22  32
ATOM     26  C   UNL     1       8.801  -4.092   4.682  0.00  0.00    +0.009 C 
ATOM     27  C   UNL     1       8.265  -5.441   4.200  0.00  0.00    +0.006 C 
ATOM     28  C   UNL     1       8.432  -6.482   5.309  0.00  0.00    +0.005 C 
ATOM     29  C   UNL     1       7.897  -7.832   4.827  0.00  0.00    +0.000 C 
ATOM     30  C   UNL     1       6.414  -7.696   4.476  0.00  0.00    +0.002 C 
ATOM     31  C   UNL     1       6.246  -6.655   3.366  0.00  0.00    +0.022 C 
ATOM     32  C   UNL     1       6.782  -5.305   3.848  0.00  0.00    +0.076 C 
ENDBRANCH  22  32
ENDBRANCH  21  23
ENDBRANCH  20  21
ENDBRANCH  18  20
ENDBRANCH   1  18
TORSDOF 6
