REMARK  Name = ZINC15013624
REMARK  7 active torsions:
REMARK  status: ('A' for Active; 'I' for Inactive)
REMARK    1  A    between atoms: C_1  and  C_2
REMARK    2  A    between atoms: C_5  and  N_9
REMARK    3  A    between atoms: C_6  and  C_8
REMARK    4  A    between atoms: C_13  and  C_14
REMARK    5  A    between atoms: C_17  and  N_22
REMARK    6  A    between atoms: C_19  and  O_20
REMARK    7  A    between atoms: O_20  and  C_21
REMARK                            x       y       z     vdW  Elec       q    Type
REMARK                         _______ _______ _______ _____ _____    ______ ____
ROOT
ATOM      1  N   UNL     1      -3.498   0.230   6.264  0.00  0.00    -0.217 N 
ATOM      2  C   UNL     1      -2.964   1.039   5.326  0.00  0.00    +0.262 C 
ATOM      3  O   UNL     1      -2.322   0.583   4.399  0.00  0.00    -0.269 OA
ATOM      4  C   UNL     1      -3.175   2.493   5.458  0.00  0.00    +0.100 C 
ATOM      5  C   UNL     1      -2.652   3.386   4.537  0.00  0.00    +0.029 C 
ATOM      6  C   UNL     1      -3.972   2.954   6.611  0.00  0.00    +0.255 C 
ATOM      7  O   UNL     1      -4.193   4.137   6.785  0.00  0.00    -0.270 OA
ATOM      8  N   UNL     1      -4.449   2.027   7.467  0.00  0.00    -0.263 N 
ATOM      9  C   UNL     1      -4.213   0.720   7.287  0.00  0.00    +0.150 C 
ATOM     10  S   UNL     1      -4.859  -0.384   8.425  0.00  0.00    -0.018 S 
ATOM     11  H   UNL     1      -4.976   2.313   8.230  0.00  0.00    +0.157 HD
ENDROOT
BRANCH   1  16
ATOM     12  C   UNL     1      -2.725  -5.377   5.855  0.00  0.00    +0.044 C 
ATOM     13  C   UNL     1      -2.930  -3.888   5.964  0.00  0.00    -0.050 A 
ATOM     14  C   UNL     1      -4.024  -3.296   5.358  0.00  0.00    +0.005 A 
ATOM     15  C   UNL     1      -4.218  -1.932   5.460  0.00  0.00    +0.024 A 
ATOM     16  C   UNL     1      -3.308  -1.154   6.163  0.00  0.00    +0.046 A 
ATOM     17  C   UNL     1      -2.211  -1.751   6.770  0.00  0.00    -0.028 A 
ATOM     18  C   UNL     1      -2.025  -3.116   6.669  0.00  0.00    +0.008 A 
ATOM     19  C   UNL     1      -1.223  -0.910   7.537  0.00  0.00    +0.046 C 
ENDBRANCH   1  16
BRANCH   5  20
ATOM     20  C   UNL     1      -1.732   2.937   3.561  0.00  0.00    +0.018 A 
ATOM     21  C   UNL     1      -0.647   2.126   3.933  0.00  0.00    +0.013 A 
ATOM     22  C   UNL     1       0.235   1.692   2.989  0.00  0.00    +0.024 A 
ATOM     23  C   UNL     1       0.074   2.056   1.651  0.00  0.00    +0.033 A 
ATOM     24  C   UNL     1      -0.994   2.858   1.264  0.00  0.00    +0.069 A 
ATOM     25  C   UNL     1      -1.900   3.302   2.209  0.00  0.00    +0.129 A 
BRANCH  23  26
ATOM     26  N   UNL     1       0.983   1.610   0.701  0.00  0.00    -0.330 N 
ATOM     27  C   UNL     1       0.321   0.733  -0.298  0.00  0.00    +0.105 C 
ATOM     28  C   UNL     1       1.291   0.775  -1.506  0.00  0.00    +0.020 C 
ATOM     29  C   UNL     1       1.781   2.241  -1.504  0.00  0.00    +0.020 C 
ATOM     30  C   UNL     1       1.545   2.743  -0.067  0.00  0.00    +0.105 C 
ENDBRANCH  23  26
BRANCH  25  31
ATOM     31  O   UNL     1      -2.943   4.085   1.837  0.00  0.00    -0.494 OA
ATOM     32  C   UNL     1      -3.046   4.413   0.451  0.00  0.00    +0.277 C 
ENDBRANCH  25  31
ENDBRANCH   5  20
TORSDOF 4
