REMARK  Name = ZINC13791807
REMARK  11 active torsions:
REMARK  status: ('A' for Active; 'I' for Inactive)
REMARK    1  A    between atoms: C_1  and  C_2
REMARK    2  A    between atoms: C_2  and  O_3
REMARK    3  A    between atoms: O_3  and  C_4
REMARK    4  A    between atoms: C_4  and  C_6
REMARK    5  A    between atoms: C_6  and  N_7
REMARK    6  A    between atoms: C_11  and  S_30
REMARK    7  A    between atoms: N_16  and  C_17
REMARK    8  A    between atoms: C_17  and  C_19
REMARK    9  A    between atoms: N_24  and  S_26
REMARK   10  A    between atoms: S_26  and  C_29
REMARK   11  A    between atoms: S_30  and  N_33
REMARK                            x       y       z     vdW  Elec       q    Type
REMARK                         _______ _______ _______ _____ _____    ______ ____
ROOT
ATOM      1  N   UNL     1       1.508  -3.851   2.445  0.00  0.00    -0.310 N 
ATOM      2  C   UNL     1       2.531  -4.523   1.801  0.00  0.00    +0.058 A 
ATOM      3  C   UNL     1       3.661  -3.986   1.164  0.00  0.00    +0.029 A 
ATOM      4  C   UNL     1       4.589  -4.806   0.569  0.00  0.00    +0.030 A 
ATOM      5  C   UNL     1       4.440  -6.183   0.577  0.00  0.00    +0.106 A 
ATOM      6  C   UNL     1       3.335  -6.740   1.197  0.00  0.00    +0.045 A 
ATOM      7  C   UNL     1       2.406  -5.920   1.793  0.00  0.00    +0.041 A 
ATOM      8  S   UNL     1       0.890  -6.198   2.674  0.00  0.00    -0.052 S 
ATOM      9  C   UNL     1       0.488  -4.546   3.014  0.00  0.00    +0.167 A 
ATOM     10  N   UNL     1      -0.568  -4.072   3.672  0.00  0.00    -0.156 NA
ENDROOT
BRANCH   5  11
ATOM     11  S   UNL     1       5.644  -7.215  -0.192  0.00  0.00    +0.056 S 
ATOM     12  O   UNL     1       4.987  -8.433  -0.516  0.00  0.00    -0.153 OA
ATOM     13  O   UNL     1       6.295  -6.417  -1.171  0.00  0.00    -0.153 OA
BRANCH  11  14
ATOM     14  N   UNL     1       6.781  -7.580   0.955  0.00  0.00    -0.204 NA
ATOM     15  H   UNL     1       6.692  -7.229   1.855  0.00  0.00    +0.144 HD
ATOM     16  H   UNL     1       7.536  -8.144   0.727  0.00  0.00    +0.144 HD
ENDBRANCH  11  14
ENDBRANCH   5  11
BRANCH  10  17
ATOM     17  C   UNL     1      -1.474  -4.909   4.165  0.00  0.00    +0.243 C 
ATOM     18  O   UNL     1      -1.339  -6.108   4.015  0.00  0.00    -0.273 OA
BRANCH  17  19
ATOM     19  C   UNL     1      -2.669  -4.373   4.910  0.00  0.00    +0.093 C 
ATOM     20  C   UNL     1      -2.196  -3.581   6.131  0.00  0.00    +0.015 C 
ATOM     21  C   UNL     1      -3.408  -3.009   6.871  0.00  0.00    +0.018 C 
ATOM     22  C   UNL     1      -4.297  -4.159   7.353  0.00  0.00    +0.109 C 
ATOM     23  N   UNL     1      -4.638  -5.008   6.204  0.00  0.00    -0.181 NA
ATOM     24  C   UNL     1      -3.550  -5.538   5.370  0.00  0.00    +0.121 C 
BRANCH  23  25
ATOM     25  S   UNL     1      -6.218  -5.361   5.854  0.00  0.00    +0.029 S 
ATOM     26  O   UNL     1      -6.960  -4.276   6.394  0.00  0.00    -0.158 OA
ATOM     27  O   UNL     1      -6.230  -5.622   4.457  0.00  0.00    -0.158 OA
ATOM     28  C   UNL     1      -6.572  -6.881   6.777  0.00  0.00    +0.215 C 
ENDBRANCH  23  25
ENDBRANCH  17  19
ENDBRANCH  10  17
BRANCH   1  29
ATOM     29  C   UNL     1       1.527  -2.388   2.519  0.00  0.00    +0.244 C 
BRANCH  29  30
ATOM     30  C   UNL     1       0.812  -1.815   1.323  0.00  0.00    +0.327 C 
ATOM     31  O   UNL     1       0.335  -2.553   0.493  0.00  0.00    -0.249 OA
BRANCH  30  32
ATOM     32  O   UNL     1       0.704  -0.485   1.178  0.00  0.00    -0.464 OA
BRANCH  32  34
ATOM     33  C   UNL     1      -0.019   1.526   0.010  0.00  0.00    +0.048 C 
ATOM     34  C   UNL     1       0.002  -0.004   0.002  0.00  0.00    +0.229 C 
ENDBRANCH  32  34
ENDBRANCH  30  32
ENDBRANCH  29  30
ENDBRANCH   1  29
TORSDOF 9
