REMARK  Name = ZINC34974064
REMARK  9 active torsions:
REMARK  status: ('A' for Active; 'I' for Inactive)
REMARK    1  A    between atoms: C_1  and  C_2
REMARK    2  A    between atoms: C_2  and  C_3
REMARK    3  A    between atoms: C_3  and  C_4
REMARK    4  A    between atoms: C_4  and  N_5
REMARK    5  A    between atoms: N_5  and  C_6
REMARK    6  A    between atoms: C_6  and  C_7
REMARK    7  A    between atoms: N_20  and  C_21
REMARK    8  A    between atoms: C_24  and  C_27
REMARK    9  A    between atoms: C_27  and  C_28
REMARK                            x       y       z     vdW  Elec       q    Type
REMARK                         _______ _______ _______ _____ _____    ______ ____
ROOT
ATOM      1  N   UNL     1      -2.835  -2.679   0.060  0.00  0.00    -0.281 N 
ATOM      2  C   UNL     1      -3.443  -3.032   1.210  0.00  0.00    +0.307 C 
ATOM      3  O   UNL     1      -4.597  -3.413   1.195  0.00  0.00    -0.252 OA
ATOM      4  N   UNL     1      -2.771  -2.964   2.376  0.00  0.00    -0.269 N 
ATOM      5  H   UNL     1      -1.832  -2.720   2.381  0.00  0.00    +0.156 HD
ENDROOT
BRANCH   4   6
ATOM      6  C   UNL     1      -3.428  -3.243   3.579  0.00  0.00    +0.035 A 
ATOM      7  C   UNL     1      -3.100  -2.540   4.731  0.00  0.00    +0.023 A 
ATOM      8  C   UNL     1      -3.750  -2.817   5.917  0.00  0.00    +0.005 A 
ATOM      9  C   UNL     1      -4.728  -3.795   5.959  0.00  0.00    -0.048 A 
ATOM     10  C   UNL     1      -5.056  -4.497   4.814  0.00  0.00    +0.005 A 
ATOM     11  C   UNL     1      -4.413  -4.220   3.623  0.00  0.00    +0.023 A 
BRANCH   9  12
ATOM     12  C   UNL     1      -5.436  -4.096   7.255  0.00  0.00    +0.032 C 
ATOM     13  C   UNL     1      -6.677  -3.209   7.375  0.00  0.00    +0.009 C 
ENDBRANCH   9  12
ENDBRANCH   4   6
BRANCH   1  14
ATOM     14  C   UNL     1      -1.443  -2.221   0.078  0.00  0.00    +0.109 C 
BRANCH  14  15
ATOM     15  C   UNL     1      -1.411  -0.693   0.149  0.00  0.00    +0.019 C 
BRANCH  15  17
ATOM     16  C   UNL     1       0.075   1.314   0.238  0.00  0.00    +0.004 C 
ATOM     17  C   UNL     1       0.042  -0.214   0.168  0.00  0.00    -0.002 C 
ENDBRANCH  15  17
ENDBRANCH  14  15
ENDBRANCH   1  14
BRANCH   1  18
ATOM     18  C   UNL     1      -3.565  -2.754  -1.208  0.00  0.00    +0.147 C 
BRANCH  18  19
ATOM     19  C   UNL     1      -3.467  -4.152  -1.762  0.00  0.00    +0.007 A 
ATOM     20  C   UNL     1      -2.856  -5.134  -1.037  0.00  0.00    +0.018 A 
ATOM     21  C   UNL     1      -2.786  -6.426  -1.592  0.00  0.00    +0.001 A 
ATOM     22  C   UNL     1      -2.173  -7.485  -0.904  0.00  0.00    +0.010 A 
ATOM     23  C   UNL     1      -2.126  -8.720  -1.474  0.00  0.00    +0.001 A 
ATOM     24  C   UNL     1      -2.678  -8.948  -2.733  0.00  0.00    +0.002 A 
ATOM     25  C   UNL     1      -3.279  -7.944  -3.428  0.00  0.00    +0.028 A 
ATOM     26  C   UNL     1      -3.348  -6.655  -2.872  0.00  0.00    +0.073 A 
ATOM     27  N   UNL     1      -3.933  -5.650  -3.532  0.00  0.00    -0.235 NA
ATOM     28  C   UNL     1      -4.005  -4.446  -3.015  0.00  0.00    +0.135 A 
ATOM     29 CL   UNL     1      -4.785  -3.184  -3.917  0.00  0.00    -0.062 Cl
ENDBRANCH  18  19
ENDBRANCH   1  18
TORSDOF 7
