REMARK  Name = ZINC01984252
REMARK  10 active torsions:
REMARK  status: ('A' for Active; 'I' for Inactive)
REMARK    1  A    between atoms: C_1  and  C_2
REMARK    2  A    between atoms: C_2  and  C_3
REMARK    3  A    between atoms: C_6  and  O_10
REMARK    4  A    between atoms: O_10  and  C_11
REMARK    5  A    between atoms: C_11  and  C_12
REMARK    6  A    between atoms: C_12  and  C_13
REMARK    7  A    between atoms: C_13  and  C_14
REMARK    8  A    between atoms: N_16  and  C_17
REMARK    9  A    between atoms: C_18  and  C_28
REMARK   10  A    between atoms: C_23  and  C_27
REMARK                            x       y       z     vdW  Elec       q    Type
REMARK                         _______ _______ _______ _____ _____    ______ ____
ROOT
ATOM      1  C   UNL     1       2.725  -3.240  -9.319  0.00  0.00    +0.218 C 
ATOM      2  O   UNL     1       3.917  -3.384  -9.148  0.00  0.00    -0.275 OA
ATOM      3  N   UNL     1       2.179  -3.510 -10.521  0.00  0.00    -0.279 N 
ATOM      4  H   UNL     1       1.225  -3.395 -10.657  0.00  0.00    +0.155 HD
ENDROOT
BRANCH   3   5
ATOM      5  C   UNL     1       2.979  -3.954 -11.562  0.00  0.00    +0.084 A 
ATOM      6  C   UNL     1       2.596  -4.272 -12.855  0.00  0.00    +0.068 A 
ATOM      7  C   UNL     1       3.637  -4.717 -13.766  0.00  0.00    -0.023 A 
ATOM      8  C   UNL     1       4.870  -4.761 -13.216  0.00  0.00    -0.004 A 
ATOM      9  S   UNL     1       4.637  -4.221 -11.548  0.00  0.00    -0.077 S 
ATOM     10  C   UNL     1       6.141  -5.173 -13.891  0.00  0.00    +0.046 C 
ATOM     11  C   UNL     1       5.902  -5.178 -15.408  0.00  0.00    -0.009 C 
ATOM     12  C   UNL     1       4.601  -5.930 -15.702  0.00  0.00    +0.008 C 
ATOM     13  C   UNL     1       3.404  -5.108 -15.217  0.00  0.00    +0.037 C 
ATOM     14  C   UNL     1       7.069  -5.877 -16.109  0.00  0.00    +0.008 C 
BRANCH   6  15
ATOM     15  C   UNL     1       1.199  -4.165 -13.286  0.00  0.00    +0.244 C 
ATOM     16  O   UNL     1       0.786  -3.123 -13.761  0.00  0.00    -0.270 OA
ATOM     17  N   UNL     1       0.371  -5.221 -13.157  0.00  0.00    -0.325 N 
ATOM     18  H   UNL     1       0.700  -6.051 -12.779  0.00  0.00    +0.145 HD
ATOM     19  H   UNL     1      -0.553  -5.150 -13.442  0.00  0.00    +0.145 HD
ENDBRANCH   6  15
ENDBRANCH   3   5
BRANCH   1  20
ATOM     20  C   UNL     1       1.854  -2.758  -8.187  0.00  0.00    +0.099 C 
BRANCH  20  21
ATOM     21  C   UNL     1       2.716  -2.527  -6.943  0.00  0.00    +0.050 C 
BRANCH  21  22
ATOM     22  C   UNL     1       1.832  -2.038  -5.794  0.00  0.00    +0.229 C 
BRANCH  22  23
ATOM     23  O   UNL     1       2.637  -1.822  -4.633  0.00  0.00    -0.491 OA
BRANCH  23  27
ATOM     24  C   UNL     1       0.707  -0.490  -1.238  0.00  0.00    -0.046 A 
ATOM     25  C   UNL     1      -0.012  -0.718  -2.397  0.00  0.00    +0.007 A 
ATOM     26  C   UNL     1       0.632  -1.164  -3.535  0.00  0.00    +0.047 A 
ATOM     27  C   UNL     1       2.002  -1.383  -3.515  0.00  0.00    +0.134 A 
ATOM     28  C   UNL     1       2.722  -1.153  -2.351  0.00  0.00    +0.060 A 
ATOM     29  C   UNL     1       2.073  -0.702  -1.216  0.00  0.00    +0.022 A 
ATOM     30 BR   UNL     1       4.589  -1.450  -2.319  0.00  0.00    -0.047 Br
BRANCH  24  32
ATOM     31  C   UNL     1      -0.019   1.526   0.010  0.00  0.00    +0.009 C 
ATOM     32  C   UNL     1       0.002  -0.004   0.002  0.00  0.00    +0.032 C 
ENDBRANCH  24  32
ENDBRANCH  23  27
ENDBRANCH  22  23
ENDBRANCH  21  22
ENDBRANCH  20  21
ENDBRANCH   1  20
TORSDOF 8
