REMARK  Name = ZINC15945369
REMARK  6 active torsions:
REMARK  status: ('A' for Active; 'I' for Inactive)
REMARK    1  A    between atoms: C_1  and  C_2
REMARK    2  A    between atoms: C_2  and  C_3
REMARK    3  A    between atoms: C_12  and  O_26
REMARK    4  A    between atoms: C_14  and  C_17
REMARK    5  A    between atoms: C_22  and  O_23
REMARK    6  A    between atoms: O_23  and  C_24
REMARK                            x       y       z     vdW  Elec       q    Type
REMARK                         _______ _______ _______ _____ _____    ______ ____
ROOT
ATOM      1  C   UNL     1       0.718  -0.497  -1.257  0.00  0.00    -0.006 C 
ATOM      2  C   UNL     1       0.637  -2.025  -1.328  0.00  0.00    +0.008 C 
ATOM      3  C   UNL     1       1.128  -2.510  -2.693  0.00  0.00    +0.037 C 
ATOM      4  C   UNL     1       2.498  -1.904  -2.963  0.00  0.00    -0.023 A 
ATOM      5  C   UNL     1       2.932  -0.823  -2.276  0.00  0.00    -0.004 A 
ATOM      6  S   UNL     1       4.547  -0.492  -2.926  0.00  0.00    -0.078 S 
ATOM      7  C   UNL     1       4.649  -1.715  -4.042  0.00  0.00    +0.080 A 
ATOM      8  C   UNL     1       3.437  -2.409  -3.948  0.00  0.00    +0.068 A 
ATOM      9  C   UNL     1       3.239  -3.567  -4.858  0.00  0.00    +0.220 C 
ATOM     10  N   UNL     1       4.282  -4.018  -5.500  0.00  0.00    -0.223 NA
ATOM     11  C   UNL     1       5.637  -3.505  -5.339  0.00  0.00    +0.227 C 
ATOM     12  N   UNL     1       5.638  -2.091  -4.923  0.00  0.00    -0.313 N 
ATOM     13  C   UNL     1       2.195  -0.078  -1.206  0.00  0.00    +0.046 C 
ATOM     14  H   UNL     1       6.297  -1.461  -5.253  0.00  0.00    +0.149 HD
ENDROOT
BRANCH  11  15
ATOM     15  C   UNL     1       6.352  -4.324  -4.295  0.00  0.00    +0.037 A 
ATOM     16  C   UNL     1       7.258  -3.720  -3.444  0.00  0.00    +0.026 A 
ATOM     17  C   UNL     1       7.914  -4.471  -2.485  0.00  0.00    +0.018 A 
ATOM     18  C   UNL     1       7.664  -5.827  -2.375  0.00  0.00    +0.019 A 
ATOM     19  C   UNL     1       6.758  -6.434  -3.223  0.00  0.00    +0.047 A 
ATOM     20  C   UNL     1       6.096  -5.682  -4.182  0.00  0.00    +0.127 A 
ATOM     21 BR   UNL     1       9.154  -3.642  -1.323  0.00  0.00    -0.050 Br
BRANCH  20  22
ATOM     22  O   UNL     1       5.200  -6.277  -5.015  0.00  0.00    -0.495 OA
ATOM     23  C   UNL     1       4.987  -7.679  -4.842  0.00  0.00    +0.277 C 
ENDBRANCH  20  22
ENDBRANCH  11  15
BRANCH   1  25
ATOM     24  C   UNL     1      -0.019   1.526   0.010  0.00  0.00    +0.004 C 
ATOM     25  C   UNL     1       0.002  -0.004   0.002  0.00  0.00    +0.000 C 
ENDBRANCH   1  25
BRANCH   9  26
ATOM     26  O   UNL     1       2.021  -4.134  -5.014  0.00  0.00    -0.492 OA
ATOM     27  H   UNL     1       2.010  -4.880  -5.630  0.00  0.00    +0.294 HD
ENDBRANCH   9  26
TORSDOF 4
