REMARK  Name = ZINC40376004
REMARK  5 active torsions:
REMARK  status: ('A' for Active; 'I' for Inactive)
REMARK    1  A    between atoms: C_3  and  N_11
REMARK    2  A    between atoms: C_6  and  C_7
REMARK    3  A    between atoms: N_8  and  O_9
REMARK    4  A    between atoms: N_11  and  S_12
REMARK    5  A    between atoms: S_12  and  C_15
REMARK                            x       y       z     vdW  Elec       q    Type
REMARK                         _______ _______ _______ _____ _____    ______ ____
ROOT
ATOM      1  C   UNL     1      -0.290   1.652  -0.410  0.00  0.00    +0.013 A 
ATOM      2  C   UNL     1       0.950   2.251  -0.438  0.00  0.00    +0.025 A 
ATOM      3  C   UNL     1       2.098   1.486  -0.254  0.00  0.00    +0.048 A 
ATOM      4  C   UNL     1       1.996   0.115  -0.042  0.00  0.00    +0.025 A 
ATOM      5  C   UNL     1       0.758  -0.489  -0.015  0.00  0.00    +0.013 A 
ATOM      6  C   UNL     1      -0.395   0.276  -0.198  0.00  0.00    +0.018 A 
ENDROOT
BRANCH   6   7
ATOM      7  C   UNL     1      -1.725  -0.370  -0.168  0.00  0.00    +0.162 C 
ATOM      8  N   UNL     1      -1.911  -1.443   0.545  0.00  0.00    -0.072 NA
ATOM      9  N   UNL     1      -2.772   0.168  -0.897  0.00  0.00    -0.340 N 
ATOM     10  H   UNL     1      -2.633   0.967  -1.428  0.00  0.00    +0.144 HD
ATOM     11  H   UNL     1      -3.644  -0.256  -0.877  0.00  0.00    +0.144 HD
BRANCH   8  12
ATOM     12  O   UNL     1      -0.884  -1.913   1.399  0.00  0.00    -0.408 OA
ATOM     13  H   UNL     1      -1.115  -2.716   1.887  0.00  0.00    +0.328 HD
ENDBRANCH   8  12
ENDBRANCH   6   7
BRANCH   3  14
ATOM     14  N   UNL     1       3.351   2.095  -0.282  0.00  0.00    -0.216 N 
ATOM     15  H   UNL     1       3.568   2.725  -0.987  0.00  0.00    +0.174 HD
BRANCH  14  16
ATOM     16  S   UNL     1       4.469   1.742   0.887  0.00  0.00    +0.074 S 
ATOM     17  O   UNL     1       4.558   0.325   0.950  0.00  0.00    -0.150 OA
ATOM     18  O   UNL     1       5.598   2.566   0.631  0.00  0.00    -0.150 OA
BRANCH  16  19
ATOM     19  C   UNL     1       3.797   2.273   2.427  0.00  0.00    +0.135 A 
ATOM     20  C   UNL     1       3.521   1.356   3.426  0.00  0.00    +0.058 A 
ATOM     21  C   UNL     1       3.005   1.799   4.599  0.00  0.00    +0.081 A 
ATOM     22  S   UNL     1       2.895   3.558   4.315  0.00  0.00    -0.063 S 
ATOM     23  C   UNL     1       3.549   3.586   2.654  0.00  0.00    +0.106 A 
ATOM     24 CL   UNL     1       3.799   4.944   1.601  0.00  0.00    -0.074 Cl
ATOM     25 CL   UNL     1       2.565   0.891   6.012  0.00  0.00    -0.076 Cl
ENDBRANCH  16  19
ENDBRANCH  14  16
ENDBRANCH   3  14
TORSDOF 5
