REMARK  Name = ZINC13040021
REMARK  8 active torsions:
REMARK  status: ('A' for Active; 'I' for Inactive)
REMARK    1  A    between atoms: C_1  and  C_2
REMARK    2  A    between atoms: C_2  and  N_52
REMARK    3  A    between atoms: C_3  and  C_4
REMARK    4  A    between atoms: C_3  and  N_52
REMARK    5  A    between atoms: C_5  and  C_7
REMARK    6  A    between atoms: C_5  and  C_21
REMARK    7  A    between atoms: C_5  and  N_52
REMARK    8  A    between atoms: C_7  and  N_8
REMARK                            x       y       z     vdW  Elec       q    Type
REMARK                         _______ _______ _______ _____ _____    ______ ____
ROOT
ATOM      1  C   UNL     1       3.553   0.398   2.765  0.00  0.00    +0.092 C 
ENDROOT
BRANCH   1   2
ATOM      2  N   UNL     1       2.184   0.522   2.257  0.00  0.00    -0.330 N 
ATOM      3  C   UNL     1       1.158   0.878   3.114  0.00  0.00    +0.130 A 
ATOM      4  C   UNL     1      -0.158   1.088   2.617  0.00  0.00    +0.051 A 
ATOM      5  C   UNL     1      -0.638   0.977   1.232  0.00  0.00    -0.025 A 
ATOM      6  C   UNL     1      -1.942   1.231   1.020  0.00  0.00    -0.004 A 
ATOM      7  S   UNL     1      -2.603   1.624   2.623  0.00  0.00    -0.073 S 
ATOM      8  C   UNL     1      -1.120   1.448   3.577  0.00  0.00    +0.114 A 
ATOM      9  N   UNL     1      -0.807   1.578   4.853  0.00  0.00    -0.228 NA
ATOM     10  C   UNL     1       0.431   1.370   5.256  0.00  0.00    +0.224 A 
ATOM     11  N   UNL     1       1.386   1.030   4.409  0.00  0.00    -0.220 NA
ATOM     12  C   UNL     1      -2.320   1.091  -0.431  0.00  0.00    +0.043 C 
ATOM     13  C   UNL     1      -0.974   1.131  -1.187  0.00  0.00    +0.010 C 
ATOM     14  C   UNL     1       0.005   0.622  -0.111  0.00  0.00    +0.037 C 
ATOM     15  H   UNL     1       1.997   0.353   1.321  0.00  0.00    +0.147 HD
ENDBRANCH   1   2
BRANCH   1  16
ATOM     16  C   UNL     1       4.511   0.168   1.595  0.00  0.00    -0.019 C 
BRANCH  16  17
ATOM     17  C   UNL     1       5.786  -0.453   2.105  0.00  0.00    -0.041 A 
ATOM     18  C   UNL     1       6.788   0.349   2.621  0.00  0.00    +0.003 A 
ATOM     19  C   UNL     1       7.955  -0.221   3.093  0.00  0.00    +0.000 A 
ATOM     20  C   UNL     1       8.126  -1.592   3.041  0.00  0.00    +0.001 A 
ATOM     21  C   UNL     1       7.128  -2.394   2.521  0.00  0.00    +0.020 A 
ATOM     22  C   UNL     1       5.957  -1.825   2.053  0.00  0.00    +0.043 A 
ATOM     23 CL   UNL     1       4.703  -2.832   1.399  0.00  0.00    -0.083 Cl
ENDBRANCH  16  17
BRANCH  16  24
ATOM     24  N   UNL     1       4.835   1.467   0.968  0.00  0.00    +0.385 N 
ATOM     25  H   UNL     1       5.494   1.973   1.570  0.00  0.00    -0.081 HD
BRANCH  24  27
ATOM     26  C   UNL     1       6.929   0.871  -0.141  0.00  0.00    -0.017 C 
ATOM     27  C   UNL     1       5.462   1.248  -0.353  0.00  0.00    -0.081 C 
ENDBRANCH  24  27
BRANCH  24  28
ATOM     28  C   UNL     1       3.606   2.274   0.816  0.00  0.00    -0.081 C 
ATOM     29  C   UNL     1       3.496   3.222   2.012  0.00  0.00    -0.017 C 
ENDBRANCH  24  28
ENDBRANCH  16  24
ENDBRANCH   1  16
TORSDOF 6
