REMARK  Name = ZINC40259014
REMARK  3 active torsions:
REMARK  status: ('A' for Active; 'I' for Inactive)
REMARK    1  A    between atoms: C_4  and  C_8
REMARK    2  A    between atoms: C_8  and  C_10
REMARK    3  A    between atoms: C_8  and  O_21
REMARK                            x       y       z     vdW  Elec       q    Type
REMARK                         _______ _______ _______ _____ _____    ______ ____
ROOT
ATOM      1  C   UNL     1       3.715  -0.707  -0.038  0.00  0.00    +0.180 C 
ENDROOT
BRANCH   1   2
ATOM      2  C   UNL     1       3.960  -1.266  -1.417  0.00  0.00    -0.011 A 
ATOM      3  C   UNL     1       3.332  -2.436  -1.807  0.00  0.00    +0.009 A 
ATOM      4  C   UNL     1       3.552  -2.955  -3.068  0.00  0.00    +0.030 A 
ATOM      5  C   UNL     1       4.403  -2.299  -3.944  0.00  0.00    +0.087 A 
ATOM      6  C   UNL     1       5.035  -1.120  -3.552  0.00  0.00    +0.157 A 
ATOM      7  C   UNL     1       4.805  -0.605  -2.286  0.00  0.00    +0.055 A 
ATOM      8  O   UNL     1       5.797  -0.706  -4.594  0.00  0.00    -0.408 OA
ATOM      9  C   UNL     1       5.664  -1.573  -5.610  0.00  0.00    +0.419 A 
ATOM     10  O   UNL     1       6.219  -1.483  -6.688  0.00  0.00    -0.223 OA
ATOM     11  N   UNL     1       4.820  -2.560  -5.249  0.00  0.00    -0.288 N 
ATOM     12  H   UNL     1       4.551  -3.314  -5.797  0.00  0.00    +0.172 HD
ENDBRANCH   1   2
BRANCH   1  16
ATOM     13  C   UNL     1      -0.017   1.378   0.010  0.00  0.00    +0.006 A 
ATOM     14  C   UNL     1       1.170   2.086   0.002  0.00  0.00    +0.039 A 
ATOM     15  C   UNL     1       2.379   1.412  -0.013  0.00  0.00    +0.132 A 
ATOM     16  C   UNL     1       2.399   0.028  -0.021  0.00  0.00    +0.056 A 
ATOM     17  C   UNL     1       1.210  -0.681  -0.013  0.00  0.00    +0.132 A 
ATOM     18  C   UNL     1       0.002  -0.004   0.002  0.00  0.00    +0.039 A 
ATOM     19  F   UNL     1       1.228  -2.031  -0.020  0.00  0.00    -0.205 F 
ATOM     20  F   UNL     1       3.539   2.104  -0.022  0.00  0.00    -0.205 F 
ENDBRANCH   1  16
BRANCH   1  21
ATOM     21  O   UNL     1       3.676  -1.776   0.909  0.00  0.00    -0.382 OA
ATOM     22  H   UNL     1       2.982  -2.428   0.738  0.00  0.00    +0.211 HD
ENDBRANCH   1  21
TORSDOF 3
