REMARK  Name = ZINC00884469
REMARK  8 active torsions:
REMARK  status: ('A' for Active; 'I' for Inactive)
REMARK    1  A    between atoms: C_1  and  C_2
REMARK    2  A    between atoms: C_7  and  C_14
REMARK    3  A    between atoms: C_14  and  N_15
REMARK    4  A    between atoms: N_15  and  C_16
REMARK    5  A    between atoms: N_15  and  C_22
REMARK    6  A    between atoms: C_16  and  C_17
REMARK    7  A    between atoms: C_22  and  N_24
REMARK    8  A    between atoms: N_24  and  C_25
REMARK                            x       y       z     vdW  Elec       q    Type
REMARK                         _______ _______ _______ _____ _____    ______ ____
ROOT
ATOM      1  N   UNL     1      -1.070  -1.042   1.147  0.00  0.00    -0.303 N 
ENDROOT
BRANCH   1   2
ATOM      2  C   UNL     1      -1.958  -0.274   1.810  0.00  0.00    +0.138 C 
ATOM      3  S   UNL     1      -1.806  -0.055   3.501  0.00  0.00    -0.018 S 
BRANCH   2   4
ATOM      4  N   UNL     1      -2.965   0.322   1.141  0.00  0.00    -0.297 N 
ATOM      5  H   UNL     1      -3.099   0.134   0.199  0.00  0.00    +0.154 HD
BRANCH   4   6
ATOM      6  C   UNL     1      -3.818   1.211   1.806  0.00  0.00    +0.033 A 
ATOM      7  C   UNL     1      -5.184   1.180   1.560  0.00  0.00    +0.026 A 
ATOM      8  C   UNL     1      -6.024   2.054   2.220  0.00  0.00    +0.040 A 
ATOM      9  C   UNL     1      -5.503   2.970   3.120  0.00  0.00    +0.124 A 
ATOM     10  C   UNL     1      -4.141   3.006   3.363  0.00  0.00    +0.040 A 
ATOM     11  C   UNL     1      -3.298   2.129   2.708  0.00  0.00    +0.026 A 
ATOM     12  F   UNL     1      -6.326   3.828   3.761  0.00  0.00    -0.205 F 
ENDBRANCH   4   6
ENDBRANCH   2   4
ENDBRANCH   1   2
BRANCH   1  13
ATOM     13  C   UNL     1      -0.017  -1.745   1.884  0.00  0.00    +0.147 C 
BRANCH  13  20
ATOM     14  C   UNL     1      -1.823  -9.490   2.497  0.00  0.00    +0.044 C 
ATOM     15  C   UNL     1      -1.364  -8.088   2.189  0.00  0.00    -0.048 A 
ATOM     16  C   UNL     1      -0.572  -7.854   1.073  0.00  0.00    +0.004 A 
ATOM     17  C   UNL     1      -0.145  -6.591   0.775  0.00  0.00    +0.010 A 
ATOM     18  C   UNL     1      -0.509  -5.524   1.603  0.00  0.00    -0.001 A 
ATOM     19  C   UNL     1      -0.069  -4.157   1.314  0.00  0.00    +0.020 A 
ATOM     20  C   UNL     1      -0.453  -3.163   2.152  0.00  0.00    +0.035 A 
ATOM     21  C   UNL     1      -1.253  -3.451   3.278  0.00  0.00    +0.254 A 
ATOM     22  O   UNL     1      -1.582  -2.542   4.021  0.00  0.00    -0.268 OA
ATOM     23  N   UNL     1      -1.667  -4.701   3.549  0.00  0.00    -0.322 N 
ATOM     24  H   UNL     1      -2.220  -4.864   4.329  0.00  0.00    +0.169 HD
ATOM     25  C   UNL     1      -1.312  -5.757   2.736  0.00  0.00    +0.049 A 
ATOM     26  C   UNL     1      -1.734  -7.052   3.019  0.00  0.00    +0.029 A 
ENDBRANCH  13  20
ENDBRANCH   1  13
BRANCH   1  27
ATOM     27  C   UNL     1      -1.158  -1.173  -0.309  0.00  0.00    +0.149 C 
BRANCH  27  28
ATOM     28  C   UNL     1      -0.306  -0.115  -0.962  0.00  0.00    +0.007 A 
ATOM     29  C   UNL     1       1.019  -0.141  -1.243  0.00  0.00    +0.013 A 
ATOM     30  C   UNL     1       1.596   0.958  -1.852  0.00  0.00    +0.008 A 
ATOM     31  C   UNL     1       0.820   2.028  -2.149  0.00  0.00    +0.045 A 
ATOM     32  S   UNL     1      -0.781   1.497  -1.563  0.00  0.00    -0.100 S 
ENDBRANCH  27  28
ENDBRANCH   1  27
TORSDOF 7
