REMARK  Name = ZINC09409162
REMARK  9 active torsions:
REMARK  status: ('A' for Active; 'I' for Inactive)
REMARK    1  A    between atoms: C_1  and  C_2
REMARK    2  A    between atoms: C_2  and  O_3
REMARK    3  A    between atoms: O_3  and  C_4
REMARK    4  A    between atoms: C_8  and  C_10
REMARK    5  A    between atoms: C_13  and  C_29
REMARK    6  A    between atoms: N_20  and  C_21
REMARK    7  A    between atoms: C_21  and  C_22
REMARK    8  A    between atoms: C_22  and  C_23
REMARK    9  A    between atoms: C_34  and  O_35
REMARK                            x       y       z     vdW  Elec       q    Type
REMARK                         _______ _______ _______ _____ _____    ______ ____
ROOT
ATOM      1  C   UNL     1       2.133  -4.359  -3.342  0.00  0.00    +0.141 C 
ATOM      2  C   UNL     1       3.608  -4.650  -3.281  0.00  0.00    +0.035 A 
ATOM      3  C   UNL     1       4.898  -4.160  -3.052  0.00  0.00    +0.102 A 
ATOM      4  N   UNL     1       5.736  -5.164  -3.216  0.00  0.00    -0.173 NA
ATOM      5  N   UNL     1       5.103  -6.239  -3.526  0.00  0.00    -0.272 N 
ATOM      6  H   UNL     1       5.517  -7.101  -3.692  0.00  0.00    +0.189 HD
ATOM      7  C   UNL     1       3.762  -5.989  -3.584  0.00  0.00    +0.126 A 
ATOM      8  C   UNL     1       2.436  -6.566  -3.837  0.00  0.00    +0.265 C 
ATOM      9  O   UNL     1       2.229  -7.728  -4.129  0.00  0.00    -0.268 OA
ATOM     10  N   UNL     1       1.482  -5.626  -3.699  0.00  0.00    -0.285 N 
ENDROOT
BRANCH   1  15
ATOM     11  C   UNL     1       0.791  -2.136  -0.597  0.00  0.00    +0.121 A 
ATOM     12  C   UNL     1       0.742  -3.019   0.472  0.00  0.00    +0.045 A 
ATOM     13  C   UNL     1       1.143  -4.330   0.303  0.00  0.00    +0.004 A 
ATOM     14  C   UNL     1       1.593  -4.762  -0.931  0.00  0.00    +0.006 A 
ATOM     15  C   UNL     1       1.642  -3.884  -1.998  0.00  0.00    -0.019 A 
ATOM     16  C   UNL     1       1.237  -2.574  -1.835  0.00  0.00    +0.051 A 
BRANCH  11  17
ATOM     17  O   UNL     1       0.396  -0.846  -0.432  0.00  0.00    -0.492 OA
BRANCH  17  19
ATOM     18  C   UNL     1      -0.451   1.012   0.861  0.00  0.00    +0.048 C 
ATOM     19  C   UNL     1      -0.051  -0.465   0.870  0.00  0.00    +0.225 C 
ENDBRANCH  17  19
ENDBRANCH  11  17
ENDBRANCH   1  15
BRANCH   3  20
ATOM     20  C   UNL     1       5.257  -2.766  -2.692  0.00  0.00    +0.044 A 
ATOM     21  C   UNL     1       4.279  -1.775  -2.668  0.00  0.00    +0.014 A 
ATOM     22  C   UNL     1       4.618  -0.480  -2.332  0.00  0.00    +0.001 A 
ATOM     23  C   UNL     1       5.927  -0.162  -2.018  0.00  0.00    +0.004 A 
ATOM     24  C   UNL     1       6.906  -1.137  -2.040  0.00  0.00    +0.046 A 
ATOM     25  C   UNL     1       6.578  -2.442  -2.369  0.00  0.00    +0.126 A 
BRANCH  25  26
ATOM     26  O   UNL     1       7.538  -3.404  -2.384  0.00  0.00    -0.506 OA
ATOM     27  H   UNL     1       7.980  -3.505  -3.238  0.00  0.00    +0.292 HD
ENDBRANCH  25  26
ENDBRANCH   3  20
BRANCH  10  28
ATOM     28  C   UNL     1       0.042  -5.831  -3.874  0.00  0.00    +0.114 C 
BRANCH  28  29
ATOM     29  C   UNL     1      -0.337  -5.571  -5.334  0.00  0.00    +0.054 C 
BRANCH  29  30
ATOM     30  C   UNL     1      -1.818  -5.782  -5.514  0.00  0.00    -0.046 A 
ATOM     31  C   UNL     1      -2.302  -7.033  -5.847  0.00  0.00    +0.004 A 
ATOM     32  C   UNL     1      -3.661  -7.227  -6.013  0.00  0.00    +0.000 A 
ATOM     33  C   UNL     1      -4.535  -6.169  -5.845  0.00  0.00    +0.000 A 
ATOM     34  C   UNL     1      -4.051  -4.918  -5.511  0.00  0.00    +0.000 A 
ATOM     35  C   UNL     1      -2.692  -4.726  -5.341  0.00  0.00    +0.004 A 
ENDBRANCH  29  30
ENDBRANCH  28  29
ENDBRANCH  10  28
TORSDOF 8
