REMARK  Name = ZINC64170112
REMARK  10 active torsions:
REMARK  status: ('A' for Active; 'I' for Inactive)
REMARK    1  A    between atoms: C_1  and  N_2
REMARK    2  A    between atoms: C_6  and  C_7
REMARK    3  A    between atoms: C_7  and  C_9
REMARK    4  A    between atoms: C_7  and  N_19
REMARK    5  A    between atoms: C_11  and  O_17
REMARK    6  A    between atoms: C_13  and  O_15
REMARK    7  A    between atoms: O_15  and  C_16
REMARK    8  A    between atoms: O_17  and  C_18
REMARK    9  A    between atoms: N_19  and  S_20
REMARK   10  A    between atoms: S_20  and  C_23
REMARK                            x       y       z     vdW  Elec       q    Type
REMARK                         _______ _______ _______ _____ _____    ______ ____
ROOT
ATOM      1  C   UNL     1       0.030  -0.354   2.521  0.00  0.00    +0.172 C 
ENDROOT
BRANCH   1   7
ATOM      2  C   UNL     1      -0.018   1.461   0.010  0.00  0.00    +0.150 C 
ATOM      3  N   UNL     1       0.002  -0.004   0.002  0.00  0.00    -0.336 N 
ATOM      4  C   UNL     1       0.009  -0.810  -1.104  0.00  0.00    +0.106 A 
ATOM      5  C   UNL     1       0.029  -2.081  -0.660  0.00  0.00    +0.130 A 
ATOM      6  N   UNL     1       0.034  -2.052   0.681  0.00  0.00    -0.239 NA
ATOM      7  C   UNL     1       0.023  -0.811   1.085  0.00  0.00    +0.133 A 
ENDBRANCH   1   7
BRANCH   1   8
ATOM      8  C   UNL     1      -1.334  -0.572   3.123  0.00  0.00    -0.015 A 
ATOM      9  C   UNL     1      -1.700  -1.829   3.566  0.00  0.00    +0.051 A 
ATOM     10  C   UNL     1      -2.956  -2.032   4.121  0.00  0.00    +0.124 A 
ATOM     11  C   UNL     1      -3.843  -0.972   4.231  0.00  0.00    +0.091 A 
ATOM     12  C   UNL     1      -3.473   0.288   3.787  0.00  0.00    +0.124 A 
ATOM     13  C   UNL     1      -2.215   0.487   3.237  0.00  0.00    +0.051 A 
BRANCH  12  14
ATOM     14  O   UNL     1      -4.341   1.328   3.893  0.00  0.00    -0.495 OA
ATOM     15  C   UNL     1      -5.617   1.052   4.474  0.00  0.00    +0.277 C 
ENDBRANCH  12  14
BRANCH  10  16
ATOM     16  O   UNL     1      -3.315  -3.268   4.556  0.00  0.00    -0.495 OA
ATOM     17  C   UNL     1      -4.623  -3.404   5.116  0.00  0.00    +0.277 C 
ENDBRANCH  10  16
ENDBRANCH   1   8
BRANCH   1  18
ATOM     18  N   UNL     1       1.024  -1.123   3.273  0.00  0.00    -0.175 NA
ATOM     19  H   UNL     1       0.789  -1.987   3.646  0.00  0.00    +0.149 HD
BRANCH  18  20
ATOM     20  S   UNL     1       2.551  -0.517   3.487  0.00  0.00    +0.059 S 
ATOM     21  O   UNL     1       3.260  -1.469   4.268  0.00  0.00    -0.153 OA
ATOM     22  O   UNL     1       3.002  -0.094   2.208  0.00  0.00    -0.153 OA
BRANCH  20  23
ATOM     23  C   UNL     1       2.402   0.934   4.474  0.00  0.00    +0.107 A 
ATOM     24  C   UNL     1       2.204   2.220   3.816  0.00  0.00    +0.030 A 
ATOM     25  C   UNL     1       2.082   3.370   4.514  0.00  0.00    +0.027 A 
ATOM     26  C   UNL     1       2.148   3.338   5.973  0.00  0.00    +0.056 A 
ATOM     27  N   UNL     1       2.070   4.238   6.921  0.00  0.00    -0.268 N 
ATOM     28  C   UNL     1       2.205   3.604   8.134  0.00  0.00    +0.308 C 
ATOM     29  O   UNL     1       2.179   4.153   9.215  0.00  0.00    -0.252 OA
ATOM     30  N   UNL     1       2.375   2.254   7.937  0.00  0.00    -0.267 N 
ATOM     31  C   UNL     1       2.351   2.017   6.650  0.00  0.00    +0.058 A 
ATOM     32  C   UNL     1       2.469   0.821   5.819  0.00  0.00    +0.053 A 
ATOM     33  H   UNL     1       2.492   1.589   8.634  0.00  0.00    +0.156 HD
ATOM     34  H   UNL     1       1.939   5.190   6.790  0.00  0.00    +0.156 HD
ENDBRANCH  20  23
ENDBRANCH  18  20
ENDBRANCH   1  18
TORSDOF 7
