REMARK  Name = ZINC39913963
REMARK  14 active torsions:
REMARK  status: ('A' for Active; 'I' for Inactive)
REMARK    1  A    between atoms: C_1  and  C_2
REMARK    2  A    between atoms: C_2  and  C_3
REMARK    3  A    between atoms: C_3  and  C_4
REMARK    4  A    between atoms: C_4  and  O_5
REMARK    5  A    between atoms: O_5  and  C_6
REMARK    6  A    between atoms: C_9  and  C_14
REMARK    7  A    between atoms: C_11  and  O_12
REMARK    8  A    between atoms: O_12  and  C_13
REMARK    9  A    between atoms: C_17  and  C_28
REMARK   10  A    between atoms: N_24  and  C_25
REMARK   11  A    between atoms: C_25  and  C_26
REMARK   12  A    between atoms: C_26  and  O_27
REMARK   13  A    between atoms: C_31  and  C_35
REMARK   14  A    between atoms: C_33  and  O_34
REMARK                            x       y       z     vdW  Elec       q    Type
REMARK                         _______ _______ _______ _____ _____    ______ ____
ROOT
ATOM      1  C   UNL     1       1.078  -7.983   3.351  0.00  0.00    +0.141 C 
ATOM      2  C   UNL     1      -0.255  -8.316   3.964  0.00  0.00    +0.035 A 
ATOM      3  C   UNL     1      -1.142  -8.130   5.029  0.00  0.00    +0.102 A 
ATOM      4  N   UNL     1      -2.214  -8.857   4.782  0.00  0.00    -0.173 NA
ATOM      5  N   UNL     1      -2.090  -9.484   3.666  0.00  0.00    -0.272 N 
ATOM      6  H   UNL     1      -2.756 -10.077   3.284  0.00  0.00    +0.189 HD
ATOM      7  C   UNL     1      -0.883  -9.190   3.099  0.00  0.00    +0.126 A 
ATOM      8  C   UNL     1       0.001  -9.429   1.952  0.00  0.00    +0.266 C 
ATOM      9  O   UNL     1      -0.261 -10.154   1.012  0.00  0.00    -0.268 OA
ATOM     10  N   UNL     1       1.146  -8.732   2.090  0.00  0.00    -0.283 N 
ENDROOT
BRANCH   3  11
ATOM     11  C   UNL     1      -0.919  -7.272   6.220  0.00  0.00    +0.045 A 
ATOM     12  C   UNL     1       0.315  -6.657   6.417  0.00  0.00    +0.034 A 
ATOM     13  C   UNL     1       0.518  -5.860   7.526  0.00  0.00    +0.045 A 
ATOM     14  C   UNL     1      -0.501  -5.669   8.443  0.00  0.00    -0.029 A 
ATOM     15  C   UNL     1      -1.729  -6.275   8.256  0.00  0.00    +0.050 A 
ATOM     16  C   UNL     1      -1.948  -7.072   7.144  0.00  0.00    +0.126 A 
ATOM     17  C   UNL     1      -0.271  -4.798   9.651  0.00  0.00    +0.045 C 
ATOM     18 CL   UNL     1       2.057  -5.095   7.772  0.00  0.00    -0.083 Cl
BRANCH  16  19
ATOM     19  O   UNL     1      -3.157  -7.664   6.956  0.00  0.00    -0.506 OA
ATOM     20  H   UNL     1      -3.233  -8.540   7.358  0.00  0.00    +0.292 HD
ENDBRANCH  16  19
ENDBRANCH   3  11
BRANCH   1  24
ATOM     21  C   UNL     1       1.345  -3.784   2.591  0.00  0.00    +0.162 A 
ATOM     22  C   UNL     1       2.125  -4.362   3.579  0.00  0.00    +0.050 A 
ATOM     23  C   UNL     1       2.036  -5.720   3.822  0.00  0.00    +0.009 A 
ATOM     24  C   UNL     1       1.171  -6.503   3.082  0.00  0.00    -0.019 A 
ATOM     25  C   UNL     1       0.390  -5.932   2.094  0.00  0.00    +0.055 A 
ATOM     26  C   UNL     1       0.469  -4.571   1.849  0.00  0.00    +0.162 A 
BRANCH  26  27
ATOM     27  O   UNL     1      -0.302  -4.007   0.882  0.00  0.00    -0.491 OA
ATOM     28  C   UNL     1      -1.211  -4.867   0.193  0.00  0.00    +0.277 C 
ENDBRANCH  26  27
BRANCH  21  29
ATOM     29  O   UNL     1       1.430  -2.448   2.350  0.00  0.00    -0.488 OA
BRANCH  29  30
ATOM     30  C   UNL     1       2.350  -1.702   3.150  0.00  0.00    +0.229 C 
BRANCH  30  31
ATOM     31  C   UNL     1       2.307  -0.229   2.737  0.00  0.00    +0.041 C 
BRANCH  31  33
ATOM     32  C   UNL     1       3.249   2.042   3.181  0.00  0.00    +0.004 C 
ATOM     33  C   UNL     1       3.292   0.569   3.593  0.00  0.00    -0.000 C 
ENDBRANCH  31  33
ENDBRANCH  30  31
ENDBRANCH  29  30
ENDBRANCH  21  29
ENDBRANCH   1  24
BRANCH  10  34
ATOM     34  C   UNL     1       2.264  -8.722   1.144  0.00  0.00    +0.137 C 
BRANCH  34  35
ATOM     35  C   UNL     1       3.251  -9.833   1.508  0.00  0.00    +0.175 C 
BRANCH  35  36
ATOM     36  O   UNL     1       2.622 -11.104   1.335  0.00  0.00    -0.393 OA
ATOM     37  H   UNL     1       3.190 -11.857   1.548  0.00  0.00    +0.209 HD
ENDBRANCH  35  36
ENDBRANCH  34  35
ENDBRANCH  10  34
TORSDOF 11
