REMARK  Name = ZINC63987630
REMARK  8 active torsions:
REMARK  status: ('A' for Active; 'I' for Inactive)
REMARK    1  A    between atoms: C_1  and  C_2
REMARK    2  A    between atoms: C_7  and  C_25
REMARK    3  A    between atoms: C_9  and  C_12
REMARK    4  A    between atoms: C_12  and  C_13
REMARK    5  A    between atoms: N_15  and  C_16
REMARK    6  A    between atoms: C_16  and  C_17
REMARK    7  A    between atoms: C_17  and  C_18
REMARK    8  A    between atoms: C_21  and  C_24
REMARK                            x       y       z     vdW  Elec       q    Type
REMARK                         _______ _______ _______ _____ _____    ______ ____
ROOT
ATOM      1  C   UNL     1       0.161  -1.317   3.890  0.00  0.00    +0.217 C 
ATOM      2  O   UNL     1       0.137  -0.542   2.957  0.00  0.00    -0.275 OA
ATOM      3  N   UNL     1       0.283  -0.853   5.149  0.00  0.00    -0.315 N 
ATOM      4  H   UNL     1       0.303  -1.472   5.895  0.00  0.00    +0.149 HD
ENDROOT
BRANCH   1   5
ATOM      5  C   UNL     1       0.055  -2.799   3.641  0.00  0.00    +0.129 C 
BRANCH   5  13
ATOM      6  C   UNL     1       4.861  -4.039   0.984  0.00  0.00    +0.044 C 
ATOM      7  C   UNL     1       3.396  -3.857   0.679  0.00  0.00    -0.050 A 
ATOM      8  C   UNL     1       2.949  -4.016  -0.640  0.00  0.00    +0.005 A 
ATOM      9  C   UNL     1       1.654  -3.870  -0.993  0.00  0.00    +0.026 A 
ATOM     10  C   UNL     1       0.675  -3.541  -0.016  0.00  0.00    +0.043 A 
ATOM     11  N   UNL     1      -0.618  -3.349  -0.106  0.00  0.00    -0.378 N 
ATOM     12  C   UNL     1      -1.139  -3.031   1.228  0.00  0.00    +0.104 C 
ATOM     13  C   UNL     1       0.055  -3.060   2.156  0.00  0.00    -0.030 C 
ATOM     14  C   UNL     1       1.122  -3.368   1.385  0.00  0.00    -0.000 A 
ATOM     15  C   UNL     1       2.547  -3.550   1.686  0.00  0.00    +0.013 A 
ATOM     16  C   UNL     1      -2.168  -4.078   1.656  0.00  0.00    +0.035 C 
ATOM     17  H   UNL     1      -1.144  -3.406  -0.920  0.00  0.00    +0.160 HD
ENDBRANCH   5  13
ENDBRANCH   1   5
BRANCH   3  18
ATOM     18  C   UNL     1       0.386   0.589   5.392  0.00  0.00    +0.108 C 
BRANCH  18  19
ATOM     19  C   UNL     1       0.514   0.845   6.894  0.00  0.00    +0.075 C 
BRANCH  19  20
ATOM     20  C   UNL     1       0.622   2.350   7.148  0.00  0.00    +0.244 C 
ATOM     21  N   UNL     1       0.833   2.612   8.577  0.00  0.00    -0.347 N 
ATOM     22  C   UNL     1      -0.150   3.317   9.018  0.00  0.00    +0.100 C 
ATOM     23  N   UNL     1      -1.058   3.591   8.037  0.00  0.00    -0.252 N 
ATOM     24  O   UNL     1      -0.617   3.000   6.822  0.00  0.00    -0.248 OA
ATOM     25  C   UNL     1      -0.282   3.783  10.445  0.00  0.00    +0.085 C 
ATOM     26  H   UNL     1      -1.872   4.105   8.150  0.00  0.00    +0.195 HD
ATOM     27  H   UNL     1       1.588   2.305   9.102  0.00  0.00    +0.163 HD
ENDBRANCH  19  20
ENDBRANCH  18  19
ENDBRANCH   3  18
TORSDOF 5
