REMARK  Name = ZINC20161193
REMARK  9 active torsions:
REMARK  status: ('A' for Active; 'I' for Inactive)
REMARK    1  A    between atoms: C_2  and  C_3
REMARK    2  A    between atoms: C_3  and  C_4
REMARK    3  A    between atoms: C_8  and  C_11
REMARK    4  A    between atoms: C_9  and  O_10
REMARK    5  A    between atoms: N_12  and  N_13
REMARK    6  A    between atoms: C_16  and  S_19
REMARK    7  A    between atoms: S_19  and  C_20
REMARK    8  A    between atoms: C_20  and  C_21
REMARK    9  A    between atoms: N_23  and  C_24
REMARK                            x       y       z     vdW  Elec       q    Type
REMARK                         _______ _______ _______ _____ _____    ______ ____
ROOT
ATOM      1  N   UNL     1       4.861   4.156  -0.050  0.00  0.00    -0.205 N 
ATOM      2  C   UNL     1       4.851   5.543  -0.038  0.00  0.00    +0.232 A 
ATOM      3  N   UNL     1       5.952   6.354  -0.035  0.00  0.00    -0.186 NA
ATOM      4  C   UNL     1       5.520   7.650  -0.023  0.00  0.00    +0.211 A 
ATOM      5  N   UNL     1       4.209   7.641  -0.020  0.00  0.00    -0.144 NA
ATOM      6  N   UNL     1       3.785   6.306  -0.034  0.00  0.00    -0.245 N 
ATOM      7  H   UNL     1       5.818   3.612  -0.057  0.00  0.00    +0.177 HD
ATOM      8  H   UNL     1       2.784   5.851  -0.042  0.00  0.00    +0.192 HD
ENDROOT
BRANCH   1  10
ATOM      9  C   UNL     1       3.662   2.148  -0.062  0.00  0.00    +0.142 C 
ATOM     10  N   UNL     1       3.653   3.446  -0.051  0.00  0.00    -0.187 NA
BRANCH   9  15
ATOM     11  C   UNL     1      -0.018   1.380  -0.058  0.00  0.00    -0.002 A 
ATOM     12  C   UNL     1       0.000  -0.003  -0.069  0.00  0.00    +0.007 A 
ATOM     13  C   UNL     1       1.203  -0.687  -0.078  0.00  0.00    +0.001 A 
ATOM     14  C   UNL     1       2.397   0.005  -0.076  0.00  0.00    +0.013 A 
ATOM     15  C   UNL     1       2.391   1.402  -0.064  0.00  0.00    +0.036 A 
ATOM     16  C   UNL     1       1.170   2.090  -0.055  0.00  0.00    +0.129 A 
BRANCH  16  17
ATOM     17  O   UNL     1       1.153   3.448  -0.045  0.00  0.00    -0.506 OA
ATOM     18  H   UNL     1       2.098   4.011  -0.043  0.00  0.00    +0.292 HD
ENDBRANCH  16  17
BRANCH  11  19
ATOM     19  C   UNL     1      -1.334   2.115  -0.055  0.00  0.00    +0.065 C 
BRANCH  19  21
ATOM     20  C   UNL     1      -2.869   2.110  -1.954  0.00  0.00    +0.004 C 
ATOM     21  C   UNL     1      -1.709   2.479  -1.468  0.00  0.00    -0.030 C 
ENDBRANCH  19  21
ENDBRANCH  11  19
ENDBRANCH   9  15
ENDBRANCH   1  10
BRANCH   4  22
ATOM     22  S   UNL     1       6.546   9.083  -0.014  0.00  0.00    -0.075 S 
BRANCH  22  23
ATOM     23  C   UNL     1       5.370  10.464  -0.000  0.00  0.00    +0.173 C 
BRANCH  23  24
ATOM     24  C   UNL     1       6.127  11.768   0.009  0.00  0.00    +0.227 C 
ATOM     25  O   UNL     1       7.339  11.765   0.006  0.00  0.00    -0.275 OA
ATOM     26  N   UNL     1       5.455  12.937   0.020  0.00  0.00    -0.285 N 
ATOM     27  H   UNL     1       4.358  12.941  -0.055  0.00  0.00    +0.155 HD
BRANCH  26  28
ATOM     28  C   UNL     1       6.154  14.144   0.126  0.00  0.00    +0.033 A 
ATOM     29  C   UNL     1       5.603  15.208   0.828  0.00  0.00    +0.024 A 
ATOM     30  C   UNL     1       6.298  16.397   0.935  0.00  0.00    +0.017 A 
ATOM     31  C   UNL     1       7.537  16.532   0.334  0.00  0.00    +0.018 A 
ATOM     32  C   UNL     1       8.086  15.476  -0.371  0.00  0.00    +0.017 A 
ATOM     33  C   UNL     1       7.398  14.283  -0.477  0.00  0.00    +0.024 A 
ATOM     34 BR   UNL     1       8.482  18.164   0.478  0.00  0.00    -0.050 Br
ENDBRANCH  26  28
ENDBRANCH  23  24
ENDBRANCH  22  23
ENDBRANCH   4  22
TORSDOF 9
