REMARK  Name = ZINC01424688
REMARK  5 active torsions:
REMARK  status: ('A' for Active; 'I' for Inactive)
REMARK    1  A    between atoms: C_1  and  C_2
REMARK    2  A    between atoms: C_5  and  N_8
REMARK    3  A    between atoms: C_13  and  C_25
REMARK    4  A    between atoms: C_15  and  C_23
REMARK    5  A    between atoms: C_16  and  N_22
REMARK                            x       y       z     vdW  Elec       q    Type
REMARK                         _______ _______ _______ _____ _____    ______ ____
ROOT
ATOM      1  N   UNL     1       0.059  -4.172  -0.021  0.00  0.00    -0.209 N 
ATOM      2  C   UNL     1       0.069  -4.917   1.109  0.00  0.00    +0.232 C 
ATOM      3  O   UNL     1       0.227  -4.519   2.244  0.00  0.00    -0.274 OA
ATOM      4  C   UNL     1      -0.154  -6.332   0.674  0.00  0.00    +0.113 C 
ATOM      5  C   UNL     1       0.257  -7.438   1.564  0.00  0.00    +0.111 C 
ATOM      6  C   UNL     1       1.677  -7.869   1.508  0.00  0.00    +0.067 C 
ATOM      7  C   UNL     1       2.573  -7.527   0.565  0.00  0.00    +0.074 C 
ATOM      8  S   UNL     1       2.195  -6.420  -0.744  0.00  0.00    -0.096 S 
ATOM      9  C   UNL     1       0.398  -6.352  -0.760  0.00  0.00    +0.152 C 
ATOM     10  C   UNL     1       0.062  -4.902  -1.155  0.00  0.00    +0.240 C 
ATOM     11  O   UNL     1      -0.157  -4.492  -2.274  0.00  0.00    -0.274 OA
ENDROOT
BRANCH   1  16
ATOM     12  C   UNL     1      -0.018   1.503   0.010  0.00  0.00    +0.044 C 
ATOM     13  C   UNL     1       0.002  -0.004   0.002  0.00  0.00    -0.050 A 
ATOM     14  C   UNL     1       0.006  -0.688  -1.200  0.00  0.00    +0.005 A 
ATOM     15  C   UNL     1       0.025  -2.068  -1.211  0.00  0.00    +0.024 A 
ATOM     16  C   UNL     1       0.040  -2.771  -0.013  0.00  0.00    +0.044 A 
ATOM     17  C   UNL     1       0.037  -2.082   1.192  0.00  0.00    +0.024 A 
ATOM     18  C   UNL     1       0.023  -0.700   1.196  0.00  0.00    +0.005 A 
ENDBRANCH   1  16
BRANCH   5  19
ATOM     19  C   UNL     1      -0.602  -8.633   1.242  0.00  0.00    +0.114 A 
ATOM     20  C   UNL     1      -1.427  -9.262   2.098  0.00  0.00    +0.045 A 
ATOM     21  C   UNL     1      -2.030 -10.322   1.382  0.00  0.00    +0.041 A 
ATOM     22  C   UNL     1      -1.537 -10.277   0.132  0.00  0.00    +0.195 A 
ATOM     23  O   UNL     1      -0.676  -9.249   0.051  0.00  0.00    -0.467 OA
ENDBRANCH   5  19
BRANCH   7  24
ATOM     24  N   UNL     1       3.836  -8.066   0.628  0.00  0.00    -0.352 N 
ATOM     25  H   UNL     1       4.066  -8.680   1.343  0.00  0.00    +0.143 HD
ATOM     26  H   UNL     1       4.497  -7.833  -0.042  0.00  0.00    +0.143 HD
ENDBRANCH   7  24
BRANCH   6  27
ATOM     27  C   UNL     1       2.136  -8.729   2.557  0.00  0.00    +0.098 C 
ATOM     28  N   UNL     1       2.500  -9.411   3.390  0.00  0.00    -0.191 NA
ENDBRANCH   6  27
TORSDOF 4
