REMARK  Name = ZINC01091673
REMARK  9 active torsions:
REMARK  status: ('A' for Active; 'I' for Inactive)
REMARK    1  A    between atoms: C_1  and  N_2
REMARK    2  A    between atoms: N_2  and  C_3
REMARK    3  A    between atoms: N_2  and  C_4
REMARK    4  A    between atoms: C_7  and  C_10
REMARK    5  A    between atoms: N_14  and  N_23
REMARK    6  A    between atoms: C_15  and  C_17
REMARK    7  A    between atoms: C_24  and  C_26
REMARK    8  A    between atoms: C_26  and  C_28
REMARK    9  A    between atoms: C_28  and  C_29
REMARK                            x       y       z     vdW  Elec       q    Type
REMARK                         _______ _______ _______ _____ _____    ______ ____
ROOT
ATOM      1  C   UNL     1       1.665   3.091   0.003  0.00  0.00    +0.041 C 
ATOM      2  C   UNL     1       1.266   1.770  -0.022  0.00  0.00    +0.130 C 
ATOM      3  C   UNL     1       2.136   0.581  -0.043  0.00  0.00    +0.287 C 
ATOM      4  O   UNL     1       3.353   0.558  -0.043  0.00  0.00    -0.266 OA
ATOM      5  N   UNL     1       1.297  -0.478  -0.063  0.00  0.00    -0.164 N 
ATOM      6  C   UNL     1       0.006  -0.006  -0.054  0.00  0.00    +0.153 C 
ATOM      7  N   UNL     1      -0.013   1.300  -0.030  0.00  0.00    -0.225 NA
ENDROOT
BRANCH   1  11
ATOM      8  C   UNL     1      -1.213   6.175  -0.269  0.00  0.00    +0.029 A 
ATOM      9  C   UNL     1      -1.625   4.847  -0.169  0.00  0.00    +0.023 A 
ATOM     10  C   UNL     1      -0.700   3.848  -0.080  0.00  0.00    +0.010 A 
ATOM     11  C   UNL     1       0.669   4.159  -0.092  0.00  0.00    -0.023 A 
ATOM     12  C   UNL     1       1.078   5.497  -0.189  0.00  0.00    +0.010 A 
ATOM     13  C   UNL     1       0.144   6.489  -0.282  0.00  0.00    +0.023 A 
BRANCH   8  15
ATOM     14  C   UNL     1      -3.587   6.861  -0.346  0.00  0.00    +0.129 C 
ATOM     15  N   UNL     1      -2.160   7.189  -0.358  0.00  0.00    -0.336 N 
ATOM     16  C   UNL     1      -1.729   8.585  -0.464  0.00  0.00    +0.129 C 
ENDBRANCH   8  15
ENDBRANCH   1  11
BRANCH   6  17
ATOM     17  C   UNL     1      -1.199  -0.861  -0.071  0.00  0.00    +0.017 A 
ATOM     18  C   UNL     1      -1.072  -2.251  -0.103  0.00  0.00    +0.011 A 
ATOM     19  C   UNL     1      -2.201  -3.043  -0.112  0.00  0.00    +0.001 A 
ATOM     20  C   UNL     1      -3.457  -2.464  -0.102  0.00  0.00    +0.000 A 
ATOM     21  C   UNL     1      -3.590  -1.087  -0.076  0.00  0.00    +0.001 A 
ATOM     22  C   UNL     1      -2.470  -0.282  -0.061  0.00  0.00    +0.011 A 
ENDBRANCH   6  17
BRANCH   5  23
ATOM     23  N   UNL     1       1.678  -1.826  -0.087  0.00  0.00    -0.224 N 
ATOM     24  C   UNL     1       2.152  -2.373  -1.224  0.00  0.00    +0.247 C 
ATOM     25  O   UNL     1       2.249  -1.697  -2.227  0.00  0.00    -0.273 OA
ATOM     26  H   UNL     1       1.601  -2.367   0.715  0.00  0.00    +0.174 HD
BRANCH  24  27
ATOM     27  C   UNL     1       2.562  -3.823  -1.250  0.00  0.00    +0.171 C 
ATOM     28 CL   UNL     1       1.308  -4.786  -2.117  0.00  0.00    -0.112 Cl
BRANCH  27  29
ATOM     29  C   UNL     1       3.903  -3.961  -1.974  0.00  0.00    +0.084 C 
BRANCH  29  30
ATOM     30  C   UNL     1       4.379  -5.413  -1.891  0.00  0.00    +0.192 C 
ATOM     31 CL   UNL     1       3.162  -6.490  -2.671  0.00  0.00    -0.083 Cl
ATOM     32 CL   UNL     1       5.959  -5.576  -2.744  0.00  0.00    -0.083 Cl
ATOM     33 CL   UNL     1       4.578  -5.883  -0.162  0.00  0.00    -0.083 Cl
ENDBRANCH  29  30
ENDBRANCH  27  29
ENDBRANCH  24  27
ENDBRANCH   5  23
TORSDOF 7
