REMARK  Name = ZINC00820490
REMARK  10 active torsions:
REMARK  status: ('A' for Active; 'I' for Inactive)
REMARK    1  A    between atoms: C_1  and  C_2
REMARK    2  A    between atoms: C_3  and  C_25
REMARK    3  A    between atoms: C_4  and  C_16
REMARK    4  A    between atoms: C_10  and  C_14
REMARK    5  A    between atoms: C_10  and  C_15
REMARK    6  A    between atoms: C_21  and  N_22
REMARK    7  A    between atoms: C_25  and  O_27
REMARK    8  A    between atoms: O_27  and  C_28
REMARK    9  A    between atoms: C_28  and  C_29
REMARK   10  A    between atoms: C_28  and  C_30
REMARK                            x       y       z     vdW  Elec       q    Type
REMARK                         _______ _______ _______ _____ _____    ______ ____
ROOT
ATOM      1  C   UNL     1      -0.183  -0.106  -1.009  0.00  0.00    +0.061 C 
ATOM      2  C   UNL     1      -0.020   1.371  -0.756  0.00  0.00    +0.016 C 
ATOM      3  C   UNL     1       1.201   1.875  -0.506  0.00  0.00    +0.065 C 
ATOM      4  C   UNL     1       1.402   3.342  -0.260  0.00  0.00    +0.094 C 
ATOM      5  C   UNL     1       0.100   4.016   0.089  0.00  0.00    +0.024 C 
ATOM      6  C   UNL     1      -1.081   3.420  -0.183  0.00  0.00    +0.016 C 
ATOM      7  N   UNL     1      -1.114   2.190  -0.788  0.00  0.00    -0.321 N 
ATOM      8  C   UNL     1      -2.388   4.087   0.165  0.00  0.00    +0.058 C 
ATOM      9  C   UNL     1      -2.224   5.607   0.093  0.00  0.00    -0.023 C 
ATOM     10  C   UNL     1      -1.110   6.022   1.060  0.00  0.00    +0.086 C 
ATOM     11  C   UNL     1       0.149   5.280   0.703  0.00  0.00    +0.162 C 
ATOM     12  O   UNL     1       1.228   5.782   0.949  0.00  0.00    -0.292 OA
ATOM     13  C   UNL     1      -1.847   6.016  -1.332  0.00  0.00    +0.011 C 
ATOM     14  C   UNL     1      -3.537   6.285   0.492  0.00  0.00    +0.011 C 
ATOM     15  H   UNL     1      -2.031   1.863  -1.301  0.00  0.00    +0.152 HD
ENDROOT
BRANCH   4  16
ATOM     16  C   UNL     1       1.972   3.978  -1.502  0.00  0.00    -0.005 A 
ATOM     17  C   UNL     1       1.226   4.013  -2.665  0.00  0.00    +0.007 A 
ATOM     18  C   UNL     1       1.748   4.597  -3.804  0.00  0.00    +0.000 A 
ATOM     19  C   UNL     1       3.016   5.147  -3.779  0.00  0.00    +0.002 A 
ATOM     20  C   UNL     1       3.762   5.112  -2.616  0.00  0.00    +0.033 A 
ATOM     21  C   UNL     1       3.238   4.532  -1.476  0.00  0.00    +0.130 A 
BRANCH  21  22
ATOM     22  N   UNL     1       4.034   4.500  -0.229  0.00  0.00    +0.057 N 
ATOM     23  O   UNL     1       3.495   4.706   0.844  0.00  0.00    -0.126 OA
ATOM     24  O   UNL     1       5.229   4.269  -0.275  0.00  0.00    -0.126 OA
ENDBRANCH  21  22
ENDBRANCH   4  16
BRANCH   3  25
ATOM     25  C   UNL     1       2.317   1.007  -0.475  0.00  0.00    +0.338 C 
ATOM     26  O   UNL     1       2.184  -0.165  -0.774  0.00  0.00    -0.245 OA
BRANCH  25  27
ATOM     27  O   UNL     1       3.529   1.478  -0.115  0.00  0.00    -0.459 OA
BRANCH  27  28
ATOM     28  C   UNL     1       4.612   0.546  -0.106  0.00  0.00    +0.171 C 
ATOM     29  C   UNL     1       5.918   1.278  -0.422  0.00  0.00    +0.052 C 
ATOM     30  C   UNL     1       4.712  -0.105   1.274  0.00  0.00    +0.052 C 
ENDBRANCH  27  28
ENDBRANCH  25  27
ENDBRANCH   3  25
TORSDOF 5
