REMARK  Name = ZINC37665476
REMARK  8 active torsions:
REMARK  status: ('A' for Active; 'I' for Inactive)
REMARK    1  A    between atoms: C_1  and  N_2
REMARK    2  A    between atoms: N_2  and  C_3
REMARK    3  A    between atoms: N_2  and  S_8
REMARK    4  A    between atoms: C_3  and  C_4
REMARK    5  A    between atoms: S_8  and  C_11
REMARK    6  A    between atoms: C_14  and  C_18
REMARK    7  A    between atoms: C_19  and  C_20
REMARK    8  A    between atoms: C_20  and  N_21
REMARK                            x       y       z     vdW  Elec       q    Type
REMARK                         _______ _______ _______ _____ _____    ______ ____
ROOT
ATOM      1  C   UNL     1       1.682  -1.059  -1.905  0.00  0.00    +0.124 A 
ATOM      2  C   UNL     1       2.205  -2.338  -1.975  0.00  0.00    +0.031 A 
ATOM      3  C   UNL     1       3.522  -2.529  -2.341  0.00  0.00    +0.019 A 
ATOM      4  C   UNL     1       4.326  -1.429  -2.642  0.00  0.00    +0.026 A 
ATOM      5  C   UNL     1       3.793  -0.142  -2.570  0.00  0.00    +0.038 A 
ATOM      6  C   UNL     1       2.473   0.036  -2.208  0.00  0.00    +0.068 A 
ATOM      7 CL   UNL     1       1.805   1.636  -2.124  0.00  0.00    -0.081 Cl
ENDROOT
BRANCH   1   8
ATOM      8  S   UNL     1      -0.000  -0.824  -1.437  0.00  0.00    +0.062 S 
ATOM      9  O   UNL     1      -0.531  -2.115  -1.167  0.00  0.00    -0.153 OA
ATOM     10  O   UNL     1      -0.572   0.049  -2.401  0.00  0.00    -0.153 OA
BRANCH   8  12
ATOM     11  C   UNL     1      -0.018   1.461   0.010  0.00  0.00    +0.132 C 
ATOM     12  N   UNL     1       0.002  -0.004   0.002  0.00  0.00    -0.171 NA
BRANCH  12  13
ATOM     13  C   UNL     1       0.024  -0.743   1.267  0.00  0.00    +0.222 C 
BRANCH  13  14
ATOM     14  C   UNL     1      -1.406  -0.912   1.784  0.00  0.00    +0.404 C 
ATOM     15  F   UNL     1      -2.162  -1.619   0.843  0.00  0.00    -0.169 F 
ATOM     16  F   UNL     1      -1.385  -1.618   2.992  0.00  0.00    -0.169 F 
ATOM     17  F   UNL     1      -1.979   0.348   1.990  0.00  0.00    -0.169 F 
ENDBRANCH  13  14
ENDBRANCH  12  13
ENDBRANCH   8  12
ENDBRANCH   1   8
BRANCH   4  18
ATOM     18  C   UNL     1       5.694  -1.621  -3.022  0.00  0.00    -0.068 C 
ATOM     19  C   UNL     1       6.814  -1.779  -3.334  0.00  0.00    -0.117 C 
BRANCH  19  20
ATOM     20  C   UNL     1       8.220  -1.976  -3.724  0.00  0.00    +0.005 C 
BRANCH  20  21
ATOM     21  N   UNL     1       8.843  -0.672  -3.986  0.00  0.00    +0.385 N 
ATOM     22  H   UNL     1       8.348  -0.207  -4.732  0.00  0.00    -0.089 HD
ATOM     23  H   UNL     1       8.802  -0.106  -3.152  0.00  0.00    -0.089 HD
ATOM     24  H   UNL     1       9.806  -0.807  -4.254  0.00  0.00    -0.089 HD
ENDBRANCH  20  21
ENDBRANCH  19  20
ENDBRANCH   4  18
TORSDOF 7
