REMARK  Name = ZINC64793253
REMARK  9 active torsions:
REMARK  status: ('A' for Active; 'I' for Inactive)
REMARK    1  A    between atoms: C_1  and  C_2
REMARK    2  A    between atoms: C_5  and  C_8
REMARK    3  A    between atoms: C_11  and  C_25
REMARK    4  A    between atoms: N_12  and  C_18
REMARK    5  A    between atoms: C_18  and  C_19
REMARK    6  A    between atoms: N_21  and  C_22
REMARK    7  A    between atoms: C_22  and  C_23
REMARK    8  A    between atoms: C_22  and  C_24
REMARK    9  A    between atoms: C_28  and  C_31
REMARK                            x       y       z     vdW  Elec       q    Type
REMARK                         _______ _______ _______ _____ _____    ______ ____
ROOT
ATOM      1  C   UNL     1      -0.063  -4.592  -0.130  0.00  0.00    +0.167 C 
ATOM      2  C   UNL     1       1.217  -5.021   0.537  0.00  0.00    +0.028 C 
ATOM      3  C   UNL     1       1.306  -5.304   1.829  0.00  0.00    +0.043 C 
ATOM      4  N   UNL     1       0.199  -5.232   2.685  0.00  0.00    -0.259 N 
ATOM      5  C   UNL     1      -1.048  -5.108   2.093  0.00  0.00    +0.243 A 
ATOM      6  N   UNL     1      -1.185  -4.813   0.774  0.00  0.00    -0.202 N 
ATOM      7  N   UNL     1      -2.558  -4.779   0.541  0.00  0.00    -0.042 NA
ATOM      8  N   UNL     1      -3.130  -5.035   1.674  0.00  0.00    -0.021 NA
ATOM      9  N   UNL     1      -2.246  -5.229   2.589  0.00  0.00    -0.092 NA
ENDROOT
BRANCH   1  14
ATOM     10  C   UNL     1       0.251   1.022  -1.464  0.00  0.00    +0.044 C 
ATOM     11  C   UNL     1       0.169  -0.442  -1.116  0.00  0.00    -0.050 A 
ATOM     12  C   UNL     1      -0.016  -1.380  -2.114  0.00  0.00    +0.004 A 
ATOM     13  C   UNL     1      -0.091  -2.723  -1.795  0.00  0.00    +0.006 A 
ATOM     14  C   UNL     1       0.020  -3.128  -0.478  0.00  0.00    -0.019 A 
ATOM     15  C   UNL     1       0.206  -2.190   0.520  0.00  0.00    +0.006 A 
ATOM     16  C   UNL     1       0.285  -0.847   0.201  0.00  0.00    +0.004 A 
ENDBRANCH   1  14
BRANCH   3  17
ATOM     17  C   UNL     1       2.618  -5.709   2.385  0.00  0.00    -0.004 A 
ATOM     18  C   UNL     1       2.725  -6.869   3.153  0.00  0.00    +0.010 A 
ATOM     19  C   UNL     1       3.949  -7.241   3.669  0.00  0.00    +0.004 A 
ATOM     20  C   UNL     1       5.070  -6.466   3.425  0.00  0.00    -0.050 A 
ATOM     21  C   UNL     1       4.970  -5.315   2.665  0.00  0.00    +0.004 A 
ATOM     22  C   UNL     1       3.752  -4.936   2.139  0.00  0.00    +0.010 A 
ATOM     23  C   UNL     1       6.404  -6.878   3.992  0.00  0.00    +0.044 C 
ENDBRANCH   3  17
BRANCH   4  24
ATOM     24  C   UNL     1       0.352  -5.287   4.141  0.00  0.00    +0.209 C 
BRANCH  24  25
ATOM     25  C   UNL     1       0.444  -3.886   4.689  0.00  0.00    +0.231 C 
ATOM     26  O   UNL     1       0.387  -2.936   3.938  0.00  0.00    -0.274 OA
ATOM     27  N   UNL     1       0.590  -3.689   6.015  0.00  0.00    -0.312 N 
ATOM     28  H   UNL     1       0.636  -4.449   6.616  0.00  0.00    +0.149 HD
BRANCH  27  29
ATOM     29  C   UNL     1       0.679  -2.328   6.548  0.00  0.00    +0.067 C 
ATOM     30  C   UNL     1       0.222  -2.321   8.008  0.00  0.00    +0.027 C 
ATOM     31  C   UNL     1       2.128  -1.842   6.465  0.00  0.00    +0.027 C 
ENDBRANCH  27  29
ENDBRANCH  24  25
ENDBRANCH   4  24
TORSDOF 5
