REMARK  Name = ZINC58949237
REMARK  9 active torsions:
REMARK  status: ('A' for Active; 'I' for Inactive)
REMARK    1  A    between atoms: C_1  and  C_2
REMARK    2  A    between atoms: C_3  and  C_22
REMARK    3  A    between atoms: C_4  and  C_14
REMARK    4  A    between atoms: C_6  and  C_10
REMARK    5  A    between atoms: C_7  and  N_9
REMARK    6  A    between atoms: C_10  and  O_12
REMARK    7  A    between atoms: O_12  and  C_13
REMARK    8  A    between atoms: C_17  and  S_20
REMARK    9  A    between atoms: S_20  and  C_21
REMARK                            x       y       z     vdW  Elec       q    Type
REMARK                         _______ _______ _______ _____ _____    ______ ____
ROOT
ATOM      1  C   UNL     1      -0.117   1.499  -0.043  0.00  0.00    +0.087 C 
ATOM      2  C   UNL     1      -0.045  -0.006  -0.023  0.00  0.00    +0.113 C 
ATOM      3  C   UNL     1      -1.180  -0.708   0.061  0.00  0.00    +0.064 C 
ATOM      4  C   UNL     1      -1.167  -2.212   0.085  0.00  0.00    +0.099 C 
ATOM      5  C   UNL     1       0.168  -2.721  -0.389  0.00  0.00    +0.105 C 
ATOM      6  C   UNL     1       1.244  -1.895  -0.449  0.00  0.00    +0.195 C 
ATOM      7  O   UNL     1       1.157  -0.602  -0.096  0.00  0.00    -0.446 OA
ENDROOT
BRANCH   4   8
ATOM      8  C   UNL     1      -1.413  -2.692   1.492  0.00  0.00    -0.035 A 
ATOM      9  C   UNL     1      -0.546  -2.327   2.507  0.00  0.00    +0.005 A 
ATOM     10  C   UNL     1      -0.768  -2.765   3.797  0.00  0.00    +0.015 A 
ATOM     11  C   UNL     1      -1.863  -3.574   4.076  0.00  0.00    +0.008 A 
ATOM     12  C   UNL     1      -2.732  -3.939   3.054  0.00  0.00    +0.015 A 
ATOM     13  C   UNL     1      -2.507  -3.492   1.767  0.00  0.00    +0.005 A 
BRANCH  11  14
ATOM     14  S   UNL     1      -2.150  -4.136   5.721  0.00  0.00    -0.129 S 
ATOM     15  C   UNL     1      -3.659  -5.135   5.587  0.00  0.00    +0.090 C 
ENDBRANCH  11  14
ENDBRANCH   4   8
BRANCH   3  16
ATOM     16  C   UNL     1      -2.458  -0.001   0.131  0.00  0.00    +0.242 C 
ATOM     17  O   UNL     1      -2.481   1.216   0.113  0.00  0.00    -0.271 OA
ATOM     18  N   UNL     1      -3.609  -0.696   0.216  0.00  0.00    -0.325 N 
ATOM     19  H   UNL     1      -3.590  -1.666   0.231  0.00  0.00    +0.145 HD
ATOM     20  H   UNL     1      -4.457  -0.227   0.263  0.00  0.00    +0.145 HD
ENDBRANCH   3  16
BRANCH   6  21
ATOM     21  N   UNL     1       2.445  -2.390  -0.884  0.00  0.00    -0.329 N 
ATOM     22  H   UNL     1       2.500  -3.294  -1.230  0.00  0.00    +0.145 HD
ATOM     23  H   UNL     1       3.240  -1.836  -0.845  0.00  0.00    +0.145 HD
ENDBRANCH   6  21
BRANCH   5  24
ATOM     24  C   UNL     1       0.302  -4.064  -0.771  0.00  0.00    +0.341 C 
ATOM     25  O   UNL     1      -0.097  -4.429  -1.863  0.00  0.00    -0.245 OA
BRANCH  24  26
ATOM     26  O   UNL     1       0.872  -4.953   0.071  0.00  0.00    -0.465 OA
ATOM     27  C   UNL     1       0.976  -6.304  -0.384  0.00  0.00    +0.280 C 
ENDBRANCH  24  26
ENDBRANCH   5  24
TORSDOF 6
