REMARK  Name = ZINC01957384
REMARK  3 active torsions:
REMARK  status: ('A' for Active; 'I' for Inactive)
REMARK    1  A    between atoms: C_6  and  C_7
REMARK    2  A    between atoms: C_10  and  N_11
REMARK    3  A    between atoms: N_11  and  C_12
REMARK                            x       y       z     vdW  Elec       q    Type
REMARK                         _______ _______ _______ _____ _____    ______ ____
ROOT
ATOM      1  C   UNL     1      -1.265  -0.763   0.010  0.00  0.00    +0.232 C 
ATOM      2  N   UNL     1      -1.341  -2.064   0.009  0.00  0.00    -0.204 NA
ATOM      3  C   UNL     1      -2.658  -2.433   0.018  0.00  0.00    +0.165 C 
ATOM      4  C   UNL     1      -3.166  -3.716   0.020  0.00  0.00    +0.107 C 
ATOM      5  C   UNL     1      -3.418  -1.177   0.025  0.00  0.00    +0.366 C 
ATOM      6  O   UNL     1      -4.628  -1.046   0.034  0.00  0.00    -0.243 OA
ATOM      7  O   UNL     1      -2.488  -0.198   0.025  0.00  0.00    -0.402 OA
ENDROOT
BRANCH   1  13
ATOM      8  C   UNL     1      -0.017   1.392   0.010  0.00  0.00    +0.014 A 
ATOM      9  C   UNL     1       1.170   2.095   0.002  0.00  0.00    +0.016 A 
ATOM     10  C   UNL     1       2.378   1.419  -0.013  0.00  0.00    +0.018 A 
ATOM     11  C   UNL     1       2.404   0.035  -0.021  0.00  0.00    +0.016 A 
ATOM     12  C   UNL     1       1.224  -0.680  -0.013  0.00  0.00    +0.014 A 
ATOM     13  C   UNL     1       0.002  -0.004   0.002  0.00  0.00    +0.037 A 
ATOM     14 BR   UNL     1       4.000   2.391  -0.025  0.00  0.00    -0.050 Br
ENDBRANCH   1  13
BRANCH   4  15
ATOM     15  N   UNL     1      -2.321  -4.782   0.013  0.00  0.00    -0.318 N 
ATOM     16  H   UNL     1      -1.361  -4.640   0.006  0.00  0.00    +0.152 HD
BRANCH  15  17
ATOM     17  C   UNL     1      -2.836  -6.081   0.016  0.00  0.00    +0.045 A 
ATOM     18  C   UNL     1      -4.210  -6.286   0.020  0.00  0.00    +0.025 A 
ATOM     19  C   UNL     1      -4.715  -7.571   0.023  0.00  0.00    +0.017 A 
ATOM     20  C   UNL     1      -3.854  -8.655   0.022  0.00  0.00    +0.019 A 
ATOM     21  C   UNL     1      -2.486  -8.455   0.018  0.00  0.00    +0.032 A 
ATOM     22  C   UNL     1      -1.973  -7.172   0.009  0.00  0.00    +0.040 A 
ATOM     23 BR   UNL     1      -0.102  -6.899  -0.005  0.00  0.00    -0.048 Br
ATOM     24 BR   UNL     1      -4.551 -10.413   0.026  0.00  0.00    -0.050 Br
ENDBRANCH  15  17
ENDBRANCH   4  15
TORSDOF 3
