REMARK  Name = ZINC15016587
REMARK  8 active torsions:
REMARK  status: ('A' for Active; 'I' for Inactive)
REMARK    1  A    between atoms: C_1  and  C_2
REMARK    2  A    between atoms: C_2  and  O_3
REMARK    3  A    between atoms: O_3  and  C_4
REMARK    4  A    between atoms: C_6  and  C_12
REMARK    5  A    between atoms: C_9  and  O_10
REMARK    6  A    between atoms: C_17  and  S_19
REMARK    7  A    between atoms: S_19  and  C_20
REMARK    8  A    between atoms: C_20  and  C_21
REMARK                            x       y       z     vdW  Elec       q    Type
REMARK                         _______ _______ _______ _____ _____    ______ ____
ROOT
ATOM      1  C   UNL     1       1.075   8.561  -0.980  0.00  0.00    +0.040 C 
ATOM      2  C   UNL     1       0.861   7.900   0.197  0.00  0.00    +0.120 C 
ATOM      3  C   UNL     1       0.829   8.604   1.500  0.00  0.00    +0.244 C 
ATOM      4  O   UNL     1       0.972   9.787   1.751  0.00  0.00    -0.278 OA
ATOM      5  S   UNL     1       0.520   7.230   2.602  0.00  0.00    -0.019 S 
ATOM      6  C   UNL     1       0.460   5.937   1.372  0.00  0.00    +0.139 C 
ATOM      7  N   UNL     1       0.671   6.574   0.244  0.00  0.00    -0.229 NA
ENDROOT
BRANCH   1  10
ATOM      8  C   UNL     1       1.372   7.775  -4.633  0.00  0.00    +0.164 A 
ATOM      9  C   UNL     1       1.264   8.489  -3.456  0.00  0.00    +0.057 A 
ATOM     10  C   UNL     1       1.184   7.809  -2.233  0.00  0.00    -0.018 A 
ATOM     11  C   UNL     1       1.203   6.408  -2.214  0.00  0.00    +0.032 A 
ATOM     12  C   UNL     1       1.305   5.705  -3.394  0.00  0.00    +0.087 A 
ATOM     13  C   UNL     1       1.389   6.382  -4.606  0.00  0.00    +0.177 A 
ATOM     14 CL   UNL     1       1.328   3.969  -3.369  0.00  0.00    -0.080 Cl
BRANCH  13  15
ATOM     15  O   UNL     1       1.489   5.683  -5.766  0.00  0.00    -0.502 OA
ATOM     16  H   UNL     1       0.637   5.468  -6.170  0.00  0.00    +0.292 HD
ENDBRANCH  13  15
BRANCH   8  17
ATOM     17  O   UNL     1       1.454   8.432  -5.821  0.00  0.00    -0.489 OA
BRANCH  17  19
ATOM     18  C   UNL     1       1.533  10.418  -7.197  0.00  0.00    +0.048 C 
ATOM     19  C   UNL     1       1.431   9.861  -5.776  0.00  0.00    +0.226 C 
ENDBRANCH  17  19
ENDBRANCH   8  17
ENDBRANCH   1  10
BRANCH   6  20
ATOM     20  S   UNL     1       0.190   4.213   1.616  0.00  0.00    -0.094 S 
BRANCH  20  21
ATOM     21  C   UNL     1       0.281   3.635  -0.097  0.00  0.00    +0.111 C 
BRANCH  21  22
ATOM     22  C   UNL     1       0.073   2.143  -0.135  0.00  0.00    -0.037 A 
ATOM     23  C   UNL     1      -1.202   1.627  -0.273  0.00  0.00    +0.004 A 
ATOM     24  C   UNL     1      -1.394   0.259  -0.309  0.00  0.00    +0.000 A 
ATOM     25  C   UNL     1      -0.310  -0.594  -0.207  0.00  0.00    +0.000 A 
ATOM     26  C   UNL     1       0.965  -0.078  -0.070  0.00  0.00    +0.000 A 
ATOM     27  C   UNL     1       1.156   1.291  -0.035  0.00  0.00    +0.004 A 
ENDBRANCH  21  22
ENDBRANCH  20  21
ENDBRANCH   6  20
TORSDOF 7
