REMARK  Name = ZINC22197261
REMARK  5 active torsions:
REMARK  status: ('A' for Active; 'I' for Inactive)
REMARK    1  A    between atoms: N_7  and  C_13
REMARK    2  A    between atoms: C_13  and  C_14
REMARK    3  A    between atoms: N_16  and  C_17
REMARK    4  A    between atoms: C_17  and  C_18
REMARK    5  A    between atoms: C_21  and  C_23
REMARK                            x       y       z     vdW  Elec       q    Type
REMARK                         _______ _______ _______ _____ _____    ______ ____
ROOT
ATOM      1  C   UNL     1      -0.014   1.209   0.009  0.00  0.00    +0.231 C 
ATOM      2  O   UNL     1       0.002  -0.004   0.002  0.00  0.00    -0.274 OA
ATOM      3  N   UNL     1      -1.191   1.867   0.018  0.00  0.00    -0.307 N 
ATOM      4  H   UNL     1      -1.206   2.966   0.024  0.00  0.00    +0.149 HD
ENDROOT
BRANCH   1   5
ATOM      5  C   UNL     1       1.280   1.980   0.001  0.00  0.00    +0.209 C 
BRANCH   5  12
ATOM      6  C   UNL     1       2.718  -0.343   3.382  0.00  0.00    +0.002 A 
ATOM      7  C   UNL     1       4.090  -0.300   3.554  0.00  0.00    +0.004 A 
ATOM      8  C   UNL     1       4.904   0.181   2.545  0.00  0.00    +0.047 A 
ATOM      9  C   UNL     1       4.345   0.623   1.358  0.00  0.00    +0.142 A 
ATOM     10  C   UNL     1       2.966   0.589   1.187  0.00  0.00    +0.079 A 
ATOM     11  C   UNL     1       2.152   0.099   2.200  0.00  0.00    +0.027 A 
ATOM     12  N   UNL     1       2.407   1.043  -0.015  0.00  0.00    -0.259 N 
ATOM     13  C   UNL     1       2.920   0.613  -1.190  0.00  0.00    +0.224 C 
ATOM     14  O   UNL     1       2.493   1.049  -2.238  0.00  0.00    -0.275 OA
ATOM     15  C   UNL     1       4.026  -0.410  -1.190  0.00  0.00    +0.137 C 
ATOM     16  C   UNL     1       5.342   0.239  -0.765  0.00  0.00    +0.238 C 
ATOM     17  O   UNL     1       5.135   1.093   0.357  0.00  0.00    -0.490 OA
ENDBRANCH   5  12
ENDBRANCH   1   5
BRANCH   3  18
ATOM     18  C   UNL     1      -2.449   1.117   0.020  0.00  0.00    +0.178 C 
BRANCH  18  19
ATOM     19  C   UNL     1      -3.608   2.080   0.030  0.00  0.00    +0.123 A 
ATOM     20  C   UNL     1      -4.217   2.589  -1.058  0.00  0.00    +0.047 A 
ATOM     21  C   UNL     1      -5.242   3.440  -0.599  0.00  0.00    +0.050 A 
ATOM     22  C   UNL     1      -5.202   3.403   0.760  0.00  0.00    +0.135 A 
ATOM     23  O   UNL     1      -4.208   2.571   1.127  0.00  0.00    -0.458 OA
BRANCH  22  24
ATOM     24  C   UNL     1      -6.095   4.144   1.674  0.00  0.00    +0.017 A 
ATOM     25  C   UNL     1      -7.089   4.978   1.160  0.00  0.00    +0.012 A 
ATOM     26  C   UNL     1      -7.924   5.662   2.018  0.00  0.00    +0.016 A 
ATOM     27  C   UNL     1      -7.770   5.532   3.388  0.00  0.00    +0.018 A 
ATOM     28  C   UNL     1      -6.783   4.711   3.905  0.00  0.00    +0.016 A 
ATOM     29  C   UNL     1      -5.946   4.017   3.056  0.00  0.00    +0.012 A 
ATOM     30 BR   UNL     1      -8.914   6.481   4.558  0.00  0.00    -0.050 Br
ENDBRANCH  22  24
ENDBRANCH  18  19
ENDBRANCH   3  18
TORSDOF 5
