REMARK  Name = ZINC12100278
REMARK  7 active torsions:
REMARK  status: ('A' for Active; 'I' for Inactive)
REMARK    1  A    between atoms: C_1  and  C_2
REMARK    2  A    between atoms: C_2  and  C_15
REMARK    3  A    between atoms: N_5  and  C_9
REMARK    4  A    between atoms: C_9  and  C_10
REMARK    5  A    between atoms: C_20  and  C_21
REMARK    6  A    between atoms: C_20  and  N_53
REMARK    7  A    between atoms: C_26  and  O_27
REMARK                            x       y       z     vdW  Elec       q    Type
REMARK                         _______ _______ _______ _____ _____    ______ ____
ROOT
ATOM      1  C   UNL     1       0.473   4.127  -0.995  0.00  0.00    +0.018 C 
ATOM      2  C   UNL     1       1.290   3.531   0.155  0.00  0.00    -0.013 C 
ATOM      3  C   UNL     1       1.346   2.010   0.000  0.00  0.00    -0.078 C 
ATOM      4  C   UNL     1      -0.806   1.987  -1.113  0.00  0.00    -0.078 C 
ATOM      5  C   UNL     1      -0.927   3.507  -0.991  0.00  0.00    -0.013 C 
ATOM      6  N   UNL     1      -0.031   1.473   0.036  0.00  0.00    +0.382 N 
ATOM      7  H   UNL     1      -0.485   1.776   0.906  0.00  0.00    -0.081 HD
ENDROOT
BRANCH   1   9
ATOM      8  C   UNL     1       1.754   6.276  -0.736  0.00  0.00    +0.042 C 
ATOM      9  C   UNL     1       0.364   5.642  -0.812  0.00  0.00    +0.112 C 
ATOM     10  C   UNL     1      -0.441   6.258  -1.940  0.00  0.00    +0.247 C 
ATOM     11  O   UNL     1      -0.175   6.243  -3.123  0.00  0.00    -0.273 OA
ATOM     12  N   UNL     1      -1.514   6.825  -1.354  0.00  0.00    -0.220 N 
ATOM     13  C   UNL     1      -1.499   6.655  -0.027  0.00  0.00    +0.310 C 
ATOM     14  O   UNL     1      -2.361   7.078   0.718  0.00  0.00    -0.252 OA
ATOM     15  N   UNL     1      -0.423   5.964   0.391  0.00  0.00    -0.285 N 
ATOM     16  H   UNL     1      -0.207   5.724   1.305  0.00  0.00    +0.151 HD
BRANCH  12  17
ATOM     17  C   UNL     1      -2.566   7.540  -2.080  0.00  0.00    +0.153 C 
BRANCH  17  18
ATOM     18  C   UNL     1      -3.650   6.571  -2.478  0.00  0.00    -0.023 A 
ATOM     19  C   UNL     1      -4.720   6.331  -1.636  0.00  0.00    +0.013 A 
ATOM     20  C   UNL     1      -5.677   5.454  -2.024  0.00  0.00    +0.045 A 
ATOM     21  S   UNL     1      -5.077   4.935  -3.623  0.00  0.00    -0.105 S 
ATOM     22  C   UNL     1      -3.593   5.926  -3.668  0.00  0.00    +0.050 A 
ENDBRANCH  17  18
ENDBRANCH  12  17
ENDBRANCH   1   9
BRANCH   6  23
ATOM     23  C   UNL     1       0.002  -0.004   0.002  0.00  0.00    -0.039 C 
BRANCH  23  24
ATOM     24  C   UNL     1      -1.388  -0.527   0.259  0.00  0.00    -0.021 A 
ATOM     25  C   UNL     1      -1.737  -0.970   1.520  0.00  0.00    +0.025 A 
ATOM     26  C   UNL     1      -3.015  -1.444   1.758  0.00  0.00    +0.041 A 
ATOM     27  C   UNL     1      -3.942  -1.487   0.731  0.00  0.00    +0.023 A 
ATOM     28  C   UNL     1      -3.594  -1.050  -0.532  0.00  0.00    +0.047 A 
ATOM     29  C   UNL     1      -2.315  -0.568  -0.771  0.00  0.00    +0.118 A 
ATOM     30 CL   UNL     1      -3.454  -1.993   3.346  0.00  0.00    -0.084 Cl
BRANCH  29  31
ATOM     31  O   UNL     1      -1.972  -0.138  -2.014  0.00  0.00    -0.507 OA
ATOM     32  H   UNL     1      -1.604  -0.828  -2.582  0.00  0.00    +0.292 HD
ENDBRANCH  29  31
ENDBRANCH  23  24
ENDBRANCH   6  23
TORSDOF 6
