REMARK  Name = ZINC38609838
REMARK  6 active torsions:
REMARK  status: ('A' for Active; 'I' for Inactive)
REMARK    1  A    between atoms: C_4  and  C_7
REMARK    2  A    between atoms: C_7  and  N_8
REMARK    3  A    between atoms: C_9  and  C_26
REMARK    4  A    between atoms: C_12  and  C_19
REMARK    5  A    between atoms: C_24  and  O_25
REMARK    6  A    between atoms: C_29  and  O_32
REMARK                            x       y       z     vdW  Elec       q    Type
REMARK                         _______ _______ _______ _____ _____    ______ ____
ROOT
ATOM      1  N   UNL     1       4.066  -0.647   1.140  0.00  0.00    -0.281 N 
ATOM      2  C   UNL     1       4.729   0.071   2.237  0.00  0.00    +0.142 C 
ATOM      3  C   UNL     1       4.701  -0.858   3.419  0.00  0.00    +0.035 A 
ATOM      4  C   UNL     1       5.036  -1.071   4.761  0.00  0.00    +0.102 A 
ATOM      5  N   UNL     1       4.615  -2.276   5.087  0.00  0.00    -0.173 NA
ATOM      6  N   UNL     1       4.046  -2.846   4.085  0.00  0.00    -0.272 N 
ATOM      7  H   UNL     1       3.661  -3.736   4.095  0.00  0.00    +0.189 HD
ATOM      8  C   UNL     1       4.065  -2.012   3.003  0.00  0.00    +0.126 A 
ATOM      9  C   UNL     1       3.681  -1.852   1.596  0.00  0.00    +0.266 C 
ATOM     10  O   UNL     1       3.098  -2.690   0.936  0.00  0.00    -0.268 OA
ENDROOT
BRANCH   4  11
ATOM     11  C   UNL     1       5.739  -0.114   5.652  0.00  0.00    +0.044 A 
ATOM     12  C   UNL     1       6.876   0.553   5.205  0.00  0.00    +0.014 A 
ATOM     13  C   UNL     1       7.526   1.441   6.038  0.00  0.00    +0.001 A 
ATOM     14  C   UNL     1       7.051   1.672   7.317  0.00  0.00    +0.004 A 
ATOM     15  C   UNL     1       5.923   1.015   7.771  0.00  0.00    +0.046 A 
ATOM     16  C   UNL     1       5.258   0.125   6.943  0.00  0.00    +0.126 A 
BRANCH  16  17
ATOM     17  O   UNL     1       4.146  -0.517   7.386  0.00  0.00    -0.506 OA
ATOM     18  H   UNL     1       4.326  -1.361   7.823  0.00  0.00    +0.292 HD
ENDBRANCH  16  17
ENDBRANCH   4  11
BRANCH   2  19
ATOM     19  C   UNL     1       3.980   1.339   2.554  0.00  0.00    -0.022 A 
ATOM     20  C   UNL     1       2.614   1.300   2.761  0.00  0.00    +0.009 A 
ATOM     21  C   UNL     1       1.924   2.462   3.052  0.00  0.00    +0.046 A 
ATOM     22  C   UNL     1       2.605   3.668   3.136  0.00  0.00    +0.117 A 
ATOM     23  C   UNL     1       3.976   3.704   2.928  0.00  0.00    +0.046 A 
ATOM     24  C   UNL     1       4.661   2.539   2.643  0.00  0.00    +0.009 A 
BRANCH  22  25
ATOM     25  O   UNL     1       1.929   4.812   3.421  0.00  0.00    -0.507 OA
ATOM     26  H   UNL     1       1.867   5.008   4.366  0.00  0.00    +0.292 HD
ENDBRANCH  22  25
ENDBRANCH   2  19
BRANCH   1  27
ATOM     27  C   UNL     1       3.856  -0.135  -0.217  0.00  0.00    +0.144 C 
BRANCH  27  31
ATOM     28  C   UNL     1       0.117   1.923  -0.402  0.00  0.00    +0.000 A 
ATOM     29  C   UNL     1       1.270   2.611  -0.070  0.00  0.00    +0.000 A 
ATOM     30  C   UNL     1       2.480   1.945  -0.011  0.00  0.00    +0.005 A 
ATOM     31  C   UNL     1       2.537   0.591  -0.281  0.00  0.00    -0.030 A 
ATOM     32  C   UNL     1       1.385  -0.098  -0.612  0.00  0.00    +0.005 A 
ATOM     33  C   UNL     1       0.175   0.569  -0.673  0.00  0.00    +0.000 A 
ENDBRANCH  27  31
ENDBRANCH   1  27
TORSDOF 6
