REMARK  Name = ZINC08005081
REMARK  5 active torsions:
REMARK  status: ('A' for Active; 'I' for Inactive)
REMARK    1  A    between atoms: C_8  and  C_10
REMARK    2  A    between atoms: C_16  and  C_17
REMARK    3  A    between atoms: C_16  and  N_50
REMARK    4  A    between atoms: N_19  and  C_20
REMARK    5  A    between atoms: C_20  and  C_25
REMARK                            x       y       z     vdW  Elec       q    Type
REMARK                         _______ _______ _______ _____ _____    ______ ____
ROOT
ATOM      1  C   UNL     1       5.199   3.392  -0.091  0.00  0.00    -0.011 C 
ATOM      2  C   UNL     1       5.584   3.879   1.307  0.00  0.00    -0.009 C 
ATOM      3  C   UNL     1       6.939   4.590   1.240  0.00  0.00    -0.003 C 
ATOM      4  C   UNL     1       6.849   5.748   0.243  0.00  0.00    -0.019 C 
ATOM      5  C   UNL     1       6.427   5.207  -1.125  0.00  0.00    -0.077 C 
ATOM      6  N   UNL     1       5.105   4.557  -0.997  0.00  0.00    +0.391 N 
ATOM      7  H   UNL     1       4.439   5.232  -0.603  0.00  0.00    -0.080 HD
ENDROOT
BRANCH   1  15
ATOM      8  C   UNL     1      -0.819   2.065   0.264  0.00  0.00    +0.002 A 
ATOM      9  C   UNL     1      -0.594   0.699   0.168  0.00  0.00    +0.001 A 
ATOM     10  C   UNL     1       0.701   0.230   0.057  0.00  0.00    +0.017 A 
ATOM     11  C   UNL     1       1.743   1.125   0.032  0.00  0.00    +0.039 A 
ATOM     12  C   UNL     1       1.544   2.522   0.121  0.00  0.00    +0.078 A 
ATOM     13  C   UNL     1       0.206   2.960   0.240  0.00  0.00    +0.029 A 
ATOM     14  N   UNL     1       2.677   3.252   0.080  0.00  0.00    -0.246 NA
ATOM     15  C   UNL     1       3.856   2.709  -0.033  0.00  0.00    +0.066 A 
ATOM     16  S   UNL     1       3.509   1.009  -0.100  0.00  0.00    -0.074 S 
ENDBRANCH   1  15
BRANCH   6  17
ATOM     17  C   UNL     1       4.624   4.126  -2.325  0.00  0.00    +0.020 C 
BRANCH  17  18
ATOM     18  C   UNL     1       5.607   3.180  -2.965  0.00  0.00    +0.198 C 
ATOM     19  O   UNL     1       6.575   2.799  -2.341  0.00  0.00    -0.278 OA
ATOM     20  N   UNL     1       5.412   2.758  -4.229  0.00  0.00    -0.299 N 
ATOM     21  H   UNL     1       4.638   3.063  -4.728  0.00  0.00    +0.150 HD
BRANCH  20  22
ATOM     22  C   UNL     1       6.368   1.839  -4.851  0.00  0.00    +0.121 C 
ATOM     23  C   UNL     1       7.752   2.510  -4.960  0.00  0.00    +0.041 C 
ATOM     24  C   UNL     1       8.312   2.008  -6.314  0.00  0.00    +0.003 C 
ATOM     25  C   UNL     1       7.055   1.991  -7.219  0.00  0.00    +0.003 C 
ATOM     26  C   UNL     1       5.925   1.508  -6.287  0.00  0.00    +0.041 C 
BRANCH  22  27
ATOM     27  C   UNL     1       6.467   0.603  -4.057  0.00  0.00    +0.088 C 
ATOM     28  N   UNL     1       6.544  -0.351  -3.445  0.00  0.00    -0.194 NA
ENDBRANCH  22  27
ENDBRANCH  20  22
ENDBRANCH  17  18
ENDBRANCH   6  17
TORSDOF 5
