REMARK  Name = ZINC66200160
REMARK  11 active torsions:
REMARK  status: ('A' for Active; 'I' for Inactive)
REMARK    1  A    between atoms: C_1  and  C_2
REMARK    2  A    between atoms: C_2  and  C_4
REMARK    3  A    between atoms: C_2  and  C_14
REMARK    4  A    between atoms: C_7  and  C_10
REMARK    5  A    between atoms: C_10  and  C_11
REMARK    6  A    between atoms: C_11  and  C_12
REMARK    7  A    between atoms: C_11  and  C_13
REMARK    8  A    between atoms: N_16  and  C_17
REMARK    9  A    between atoms: C_17  and  N_19
REMARK   10  A    between atoms: N_19  and  C_20
REMARK   11  A    between atoms: C_20  and  C_21
REMARK                            x       y       z     vdW  Elec       q    Type
REMARK                         _______ _______ _______ _____ _____    ______ ____
ROOT
ATOM      1  C   UNL     1       0.707  -0.490  -1.238  0.00  0.00    +0.226 C 
ATOM      2  O   UNL     1       0.120  -1.191  -2.034  0.00  0.00    -0.275 OA
ATOM      3  N   UNL     1       1.991  -0.146  -1.462  0.00  0.00    -0.267 N 
ATOM      4  H   UNL     1       2.461   0.415  -0.825  0.00  0.00    +0.157 HD
ENDROOT
BRANCH   1   6
ATOM      5  C   UNL     1      -0.019   1.526   0.010  0.00  0.00    +0.022 C 
ATOM      6  C   UNL     1       0.002  -0.004   0.002  0.00  0.00    +0.102 C 
BRANCH   6   7
ATOM      7  C   UNL     1      -1.412  -0.526   0.013  0.00  0.00    -0.036 A 
ATOM      8  C   UNL     1      -2.276  -0.202  -1.017  0.00  0.00    +0.004 A 
ATOM      9  C   UNL     1      -3.572  -0.681  -1.007  0.00  0.00    +0.004 A 
ATOM     10  C   UNL     1      -4.005  -1.483   0.032  0.00  0.00    -0.047 A 
ATOM     11  C   UNL     1      -3.141  -1.807   1.061  0.00  0.00    +0.004 A 
ATOM     12  C   UNL     1      -1.843  -1.332   1.049  0.00  0.00    +0.004 A 
BRANCH  10  13
ATOM     13  C   UNL     1      -5.419  -2.004   0.043  0.00  0.00    +0.038 C 
BRANCH  13  14
ATOM     14  C   UNL     1      -5.472  -3.351  -0.680  0.00  0.00    -0.013 C 
ATOM     15  C   UNL     1      -6.880  -3.939  -0.561  0.00  0.00    +0.007 C 
ATOM     16  C   UNL     1      -5.126  -3.152  -2.156  0.00  0.00    +0.007 C 
ENDBRANCH  13  14
ENDBRANCH  10  13
ENDBRANCH   6   7
ENDBRANCH   1   6
BRANCH   3  17
ATOM     17  C   UNL     1       2.622  -0.580  -2.570  0.00  0.00    +0.137 C 
ATOM     18  S   UNL     1       1.793  -1.570  -3.695  0.00  0.00    -0.018 S 
BRANCH  17  19
ATOM     19  N   UNL     1       3.906  -0.236  -2.794  0.00  0.00    -0.322 N 
ATOM     20  H   UNL     1       4.376   0.324  -2.157  0.00  0.00    +0.148 HD
BRANCH  19  21
ATOM     21  C   UNL     1       4.591  -0.709  -3.999  0.00  0.00    +0.140 C 
BRANCH  21  22
ATOM     22  C   UNL     1       6.005  -0.187  -4.010  0.00  0.00    -0.012 A 
ATOM     23  C   UNL     1       6.328   0.920  -4.772  0.00  0.00    +0.008 A 
ATOM     24  C   UNL     1       7.624   1.399  -4.783  0.00  0.00    +0.020 A 
ATOM     25  C   UNL     1       8.600   0.771  -4.030  0.00  0.00    +0.042 A 
ATOM     26  C   UNL     1       8.278  -0.337  -3.266  0.00  0.00    +0.040 A 
ATOM     27  C   UNL     1       6.979  -0.813  -3.253  0.00  0.00    +0.047 A 
ATOM     28 CL   UNL     1       6.573  -2.199  -2.290  0.00  0.00    -0.083 Cl
ATOM     29 CL   UNL     1      10.228   1.372  -4.043  0.00  0.00    -0.083 Cl
ENDBRANCH  21  22
ENDBRANCH  19  21
ENDBRANCH  17  19
ENDBRANCH   3  17
TORSDOF 8
