REMARK  Name = ZINC66289912
REMARK  7 active torsions:
REMARK  status: ('A' for Active; 'I' for Inactive)
REMARK    1  A    between atoms: C_1  and  C_2
REMARK    2  A    between atoms: C_2  and  C_4
REMARK    3  A    between atoms: C_2  and  N_17
REMARK    4  A    between atoms: C_4  and  C_5
REMARK    5  A    between atoms: N_7  and  C_8
REMARK    6  A    between atoms: C_8  and  C_9
REMARK    7  A    between atoms: C_18  and  C_20
REMARK                            x       y       z     vdW  Elec       q    Type
REMARK                         _______ _______ _______ _____ _____    ______ ____
ROOT
ATOM      1  C   UNL     1      -1.433  -0.534   0.013  0.00  0.00    +0.117 C 
ENDROOT
BRANCH   1   2
ATOM      2  C   UNL     1      -1.416  -2.035  -0.119  0.00  0.00    +0.215 C 
ATOM      3  O   UNL     1      -0.359  -2.623  -0.213  0.00  0.00    -0.276 OA
ATOM      4  N   UNL     1      -2.574  -2.724  -0.133  0.00  0.00    -0.311 N 
ATOM      5  H   UNL     1      -3.419  -2.253  -0.058  0.00  0.00    +0.149 HD
BRANCH   4   6
ATOM      6  C   UNL     1      -2.558  -4.183  -0.262  0.00  0.00    +0.142 C 
BRANCH   6   7
ATOM      7  C   UNL     1      -3.971  -4.704  -0.251  0.00  0.00    +0.006 A 
ATOM      8  C   UNL     1      -4.503  -5.235   0.909  0.00  0.00    +0.023 A 
ATOM      9  C   UNL     1      -5.801  -5.714   0.919  0.00  0.00    +0.018 A 
ATOM     10  C   UNL     1      -6.567  -5.662  -0.232  0.00  0.00    +0.018 A 
ATOM     11  C   UNL     1      -6.036  -5.131  -1.392  0.00  0.00    +0.040 A 
ATOM     12  C   UNL     1      -4.739  -4.647  -1.401  0.00  0.00    +0.128 A 
ATOM     13  F   UNL     1      -4.222  -4.123  -2.534  0.00  0.00    -0.205 F 
ATOM     14 BR   UNL     1      -6.528  -6.441   2.506  0.00  0.00    -0.050 Br
ENDBRANCH   6   7
ENDBRANCH   4   6
ENDBRANCH   1   2
BRANCH   1  16
ATOM     15  C   UNL     1      -0.019   1.526   0.010  0.00  0.00    +0.028 C 
ATOM     16  C   UNL     1       0.002  -0.004   0.002  0.00  0.00    +0.079 C 
BRANCH  16  17
ATOM     17  N   UNL     1       0.711  -0.489   1.189  0.00  0.00    -0.312 N 
ATOM     18  C   UNL     1       2.054  -0.600   1.174  0.00  0.00    +0.216 C 
ATOM     19  O   UNL     1       2.676  -0.297   0.177  0.00  0.00    -0.276 OA
ATOM     20  H   UNL     1       0.213  -0.731   1.986  0.00  0.00    +0.149 HD
BRANCH  18  21
ATOM     21  C   UNL     1       2.783  -1.099   2.395  0.00  0.00    +0.075 C 
ATOM     22  C   UNL     1       2.502  -0.165   3.574  0.00  0.00    +0.013 C 
ATOM     23  C   UNL     1       3.242  -0.672   4.813  0.00  0.00    +0.001 C 
ATOM     24  C   UNL     1       4.746  -0.702   4.533  0.00  0.00    +0.000 C 
ATOM     25  C   UNL     1       5.026  -1.635   3.354  0.00  0.00    +0.001 C 
ATOM     26  C   UNL     1       4.287  -1.129   2.114  0.00  0.00    +0.013 C 
ENDBRANCH  18  21
ENDBRANCH  16  17
ENDBRANCH   1  16
TORSDOF 6
