REMARK  Name = ZINC19853965
REMARK  10 active torsions:
REMARK  status: ('A' for Active; 'I' for Inactive)
REMARK    1  A    between atoms: C_1  and  C_2
REMARK    2  A    between atoms: C_5  and  C_8
REMARK    3  A    between atoms: C_14  and  C_15
REMARK    4  A    between atoms: C_18  and  O_21
REMARK    5  A    between atoms: O_21  and  C_22
REMARK    6  A    between atoms: C_22  and  C_23
REMARK    7  A    between atoms: C_23  and  O_24
REMARK    8  A    between atoms: O_24  and  C_25
REMARK    9  A    between atoms: C_30  and  O_31
REMARK   10  A    between atoms: O_31  and  C_32
REMARK                            x       y       z     vdW  Elec       q    Type
REMARK                         _______ _______ _______ _____ _____    ______ ____
ROOT
ATOM      1  C   UNL     1      -1.700  -5.252  -0.535  0.00  0.00    +0.130 C 
ATOM      2  N   UNL     1      -1.026  -5.696   0.497  0.00  0.00    -0.164 NA
ATOM      3  N   UNL     1      -0.954  -7.045   0.772  0.00  0.00    -0.153 N 
ATOM      4  C   UNL     1      -0.338  -7.624   1.903  0.00  0.00    +0.132 C 
ATOM      5  N   UNL     1      -0.133  -6.976   3.018  0.00  0.00    -0.385 N 
ATOM      6  C   UNL     1       0.055  -9.047   1.697  0.00  0.00    +0.079 C 
ATOM      7  C   UNL     1       1.171  -9.585   2.297  0.00  0.00    +0.024 C 
ATOM      8  C   UNL     1      -0.822  -9.853   0.812  0.00  0.00    +0.273 C 
ATOM      9  O   UNL     1      -0.881 -11.066   0.923  0.00  0.00    -0.268 OA
ATOM     10  N   UNL     1      -1.551  -9.205  -0.118  0.00  0.00    -0.152 NA
ATOM     11  C   UNL     1      -1.562  -7.896  -0.126  0.00  0.00    +0.181 C 
ATOM     12  S   UNL     1      -2.323  -6.763  -1.259  0.00  0.00    -0.033 S 
ATOM     13  H   UNL     1      -0.408  -6.050   3.099  0.00  0.00    +0.157 HD
ATOM     14  H   UNL     1       0.296  -7.422   3.766  0.00  0.00    +0.157 HD
ENDROOT
BRANCH   1  19
ATOM     15  C   UNL     1      -2.479   0.178  -2.279  0.00  0.00    +0.044 C 
ATOM     16  C   UNL     1      -2.276  -1.244  -1.823  0.00  0.00    -0.050 A 
ATOM     17  C   UNL     1      -2.849  -2.284  -2.531  0.00  0.00    +0.004 A 
ATOM     18  C   UNL     1      -2.666  -3.588  -2.119  0.00  0.00    +0.011 A 
ATOM     19  C   UNL     1      -1.900  -3.856  -0.984  0.00  0.00    +0.009 A 
ATOM     20  C   UNL     1      -1.325  -2.803  -0.273  0.00  0.00    +0.011 A 
ATOM     21  C   UNL     1      -1.511  -1.503  -0.699  0.00  0.00    +0.004 A 
ENDBRANCH   1  19
BRANCH   7  22
ATOM     22  C   UNL     1       1.628 -10.926   1.925  0.00  0.00    -0.024 A 
ATOM     23  C   UNL     1       1.532 -11.358   0.594  0.00  0.00    +0.011 A 
ATOM     24  C   UNL     1       1.960 -12.609   0.253  0.00  0.00    +0.046 A 
ATOM     25  C   UNL     1       2.491 -13.454   1.222  0.00  0.00    +0.121 A 
ATOM     26  C   UNL     1       2.589 -13.032   2.543  0.00  0.00    +0.046 A 
ATOM     27  C   UNL     1       2.170 -11.780   2.896  0.00  0.00    +0.011 A 
BRANCH  25  28
ATOM     28  O   UNL     1       2.914 -14.696   0.876  0.00  0.00    -0.489 OA
BRANCH  28  29
ATOM     29  C   UNL     1       3.449 -15.513   1.920  0.00  0.00    +0.270 C 
BRANCH  29  30
ATOM     30  C   UNL     1       3.870 -16.866   1.344  0.00  0.00    +0.270 C 
BRANCH  30  31
ATOM     31  O   UNL     1       4.946 -16.678   0.423  0.00  0.00    -0.485 OA
BRANCH  31  32
ATOM     32  C   UNL     1       5.442 -17.790  -0.183  0.00  0.00    +0.162 A 
ATOM     33  C   UNL     1       4.901 -19.034   0.098  0.00  0.00    +0.049 A 
ATOM     34  C   UNL     1       5.407 -20.163  -0.519  0.00  0.00    +0.004 A 
ATOM     35  C   UNL     1       6.452 -20.054  -1.417  0.00  0.00    +0.004 A 
ATOM     36  C   UNL     1       6.997 -18.816  -1.702  0.00  0.00    +0.049 A 
ATOM     37  C   UNL     1       6.491 -17.680  -1.092  0.00  0.00    +0.161 A 
BRANCH  37  38
ATOM     38  O   UNL     1       7.021 -16.460  -1.376  0.00  0.00    -0.491 OA
ATOM     39  C   UNL     1       8.095 -16.423  -2.318  0.00  0.00    +0.277 C 
ENDBRANCH  37  38
ENDBRANCH  31  32
ENDBRANCH  30  31
ENDBRANCH  29  30
ENDBRANCH  28  29
ENDBRANCH  25  28
ENDBRANCH   7  22
TORSDOF 8
