REMARK  Name = ZINC39528094
REMARK  7 active torsions:
REMARK  status: ('A' for Active; 'I' for Inactive)
REMARK    1  A    between atoms: C_1  and  O_2
REMARK    2  A    between atoms: O_2  and  C_3
REMARK    3  A    between atoms: N_6  and  C_10
REMARK    4  A    between atoms: C_13  and  C_23
REMARK    5  A    between atoms: C_15  and  C_16
REMARK    6  A    between atoms: C_16  and  C_17
REMARK    7  A    between atoms: C_28  and  O_29
REMARK                            x       y       z     vdW  Elec       q    Type
REMARK                         _______ _______ _______ _____ _____    ______ ____
ROOT
ATOM      1  C   UNL     1       0.846  -3.541   3.224  0.00  0.00    +0.033 A 
ATOM      2  C   UNL     1       0.836  -4.913   2.997  0.00  0.00    +0.024 A 
ATOM      3  C   UNL     1       0.374  -5.770   3.973  0.00  0.00    +0.010 A 
ATOM      4  C   UNL     1      -0.082  -5.261   5.188  0.00  0.00    -0.014 A 
ATOM      5  C   UNL     1      -0.071  -3.886   5.413  0.00  0.00    +0.014 A 
ATOM      6  C   UNL     1       0.397  -3.032   4.436  0.00  0.00    -0.021 A 
ENDROOT
BRANCH   1   9
ATOM      7  C   UNL     1       0.658  -0.527   1.285  0.00  0.00    +0.203 C 
ATOM      8  C   UNL     1       0.385  -2.035   1.290  0.00  0.00    +0.152 C 
ATOM      9  N   UNL     1       1.314  -2.675   2.234  0.00  0.00    -0.325 N 
ATOM     10  C   UNL     1       2.749  -2.377   2.109  0.00  0.00    +0.120 C 
ATOM     11  C   UNL     1       2.929  -0.855   2.071  0.00  0.00    +0.102 C 
ATOM     12  N   UNL     1       2.082  -0.291   1.012  0.00  0.00    -0.289 NA
ATOM     13  H   UNL     1       2.342  -0.656   0.108  0.00  0.00    +0.124 HD
BRANCH   7  15
ATOM     14  C   UNL     1      -0.126   1.525   0.325  0.00  0.00    +0.196 C 
ATOM     15  O   UNL     1      -0.132   0.097   0.271  0.00  0.00    -0.363 OA
ENDBRANCH   7  15
ENDBRANCH   1   9
BRANCH   4  16
ATOM     16  C   UNL     1      -0.580  -6.182   6.239  0.00  0.00    +0.024 A 
ATOM     17  C   UNL     1      -0.109  -6.072   7.545  0.00  0.00    +0.012 A 
ATOM     18  C   UNL     1      -0.575  -6.931   8.520  0.00  0.00    +0.001 A 
ATOM     19  C   UNL     1      -1.509  -7.902   8.204  0.00  0.00    +0.004 A 
ATOM     20  C   UNL     1      -1.982  -8.020   6.911  0.00  0.00    +0.046 A 
ATOM     21  C   UNL     1      -1.528  -7.160   5.924  0.00  0.00    +0.125 A 
BRANCH  21  22
ATOM     22  O   UNL     1      -1.997  -7.271   4.654  0.00  0.00    -0.506 OA
ATOM     23  H   UNL     1      -1.483  -7.871   4.096  0.00  0.00    +0.292 HD
ENDBRANCH  21  22
ENDBRANCH   4  16
BRANCH   6  24
ATOM     24  C   UNL     1       0.414  -1.545   4.681  0.00  0.00    +0.072 C 
BRANCH  24  25
ATOM     25  C   UNL     1      -0.005  -1.265   6.101  0.00  0.00    -0.043 A 
ATOM     26  C   UNL     1      -1.337  -1.045   6.398  0.00  0.00    +0.004 A 
ATOM     27  C   UNL     1      -1.722  -0.788   7.700  0.00  0.00    +0.000 A 
ATOM     28  C   UNL     1      -0.775  -0.752   8.707  0.00  0.00    +0.000 A 
ATOM     29  C   UNL     1       0.557  -0.972   8.410  0.00  0.00    +0.000 A 
ATOM     30  C   UNL     1       0.941  -1.233   7.109  0.00  0.00    +0.004 A 
ENDBRANCH  24  25
ENDBRANCH   6  24
TORSDOF 6
