REMARK  Name = ZINC34699110
REMARK  14 active torsions:
REMARK  status: ('A' for Active; 'I' for Inactive)
REMARK    1  A    between atoms: C_1  and  C_2
REMARK    2  A    between atoms: C_5  and  C_8
REMARK    3  A    between atoms: N_10  and  C_11
REMARK    4  A    between atoms: N_10  and  C_35
REMARK    5  A    between atoms: C_11  and  C_12
REMARK    6  A    between atoms: N_15  and  C_27
REMARK    7  A    between atoms: C_17  and  C_19
REMARK    8  A    between atoms: C_22  and  O_25
REMARK    9  A    between atoms: O_25  and  C_26
REMARK   10  A    between atoms: C_27  and  C_28
REMARK   11  A    between atoms: C_33  and  O_34
REMARK   12  A    between atoms: C_35  and  C_36
REMARK   13  A    between atoms: C_36  and  C_37
REMARK   14  A    between atoms: C_36  and  C_38
REMARK                            x       y       z     vdW  Elec       q    Type
REMARK                         _______ _______ _______ _____ _____    ______ ____
ROOT
ATOM      1  C   UNL     1      -0.346  -7.852   0.995  0.00  0.00    -0.005 C 
ATOM      2  C   UNL     1       0.133  -8.742  -0.173  0.00  0.00    -0.073 C 
ATOM      3  N   UNL     1       0.183 -10.113   0.398  0.00  0.00    +0.383 N 
ATOM      4  C   UNL     1      -1.020 -10.192   1.265  0.00  0.00    -0.070 C 
ATOM      5  C   UNL     1      -1.103  -8.804   1.943  0.00  0.00    +0.005 C 
ATOM      6  H   UNL     1       1.022 -10.237   0.945  0.00  0.00    -0.081 HD
ENDROOT
BRANCH   5   7
ATOM      7  C   UNL     1      -2.541  -8.373   2.079  0.00  0.00    -0.046 A 
ATOM      8  C   UNL     1      -2.970  -7.761   3.242  0.00  0.00    +0.007 A 
ATOM      9  C   UNL     1      -4.288  -7.365   3.369  0.00  0.00    +0.046 A 
ATOM     10  C   UNL     1      -5.180  -7.582   2.329  0.00  0.00    +0.120 A 
ATOM     11  C   UNL     1      -4.746  -8.196   1.163  0.00  0.00    +0.046 A 
ATOM     12  C   UNL     1      -3.427  -8.585   1.039  0.00  0.00    +0.007 A 
BRANCH  10  13
ATOM     13  O   UNL     1      -6.476  -7.193   2.453  0.00  0.00    -0.495 OA
ATOM     14  C   UNL     1      -7.338  -7.449   1.342  0.00  0.00    +0.277 C 
ENDBRANCH  10  13
ENDBRANCH   5   7
BRANCH   1  15
ATOM     15  C   UNL     1      -1.283  -6.758   0.479  0.00  0.00    +0.110 C 
BRANCH  15  18
ATOM     16  C   UNL     1      -0.355  -5.957  -1.626  0.00  0.00    +0.247 C 
ATOM     17  O   UNL     1      -0.932  -6.862  -2.195  0.00  0.00    -0.270 OA
ATOM     18  N   UNL     1      -0.515  -5.784  -0.299  0.00  0.00    -0.297 N 
BRANCH  16  23
ATOM     19  C   UNL     1       3.063  -2.408  -4.599  0.00  0.00    +0.044 C 
ATOM     20  C   UNL     1       2.168  -3.337  -3.820  0.00  0.00    -0.050 A 
ATOM     21  C   UNL     1       2.324  -4.706  -3.942  0.00  0.00    +0.004 A 
ATOM     22  C   UNL     1       1.508  -5.563  -3.232  0.00  0.00    +0.013 A 
ATOM     23  C   UNL     1       0.524  -5.045  -2.389  0.00  0.00    +0.037 A 
ATOM     24  C   UNL     1       0.372  -3.662  -2.271  0.00  0.00    +0.013 A 
ATOM     25  C   UNL     1       1.198  -2.817  -2.982  0.00  0.00    +0.004 A 
ENDBRANCH  16  23
BRANCH  18  26
ATOM     26  C   UNL     1       0.079  -4.620   0.365  0.00  0.00    +0.111 C 
BRANCH  26  27
ATOM     27  C   UNL     1      -0.874  -4.111   1.449  0.00  0.00    +0.000 C 
ATOM     28  C   UNL     1      -0.205  -2.972   2.221  0.00  0.00    +0.009 C 
ATOM     29  C   UNL     1      -2.160  -3.599   0.798  0.00  0.00    +0.009 C 
ENDBRANCH  26  27
ENDBRANCH  18  26
ENDBRANCH  15  18
ENDBRANCH   1  15
BRANCH   3  30
ATOM     30  C   UNL     1       0.112 -11.117  -0.672  0.00  0.00    -0.039 C 
BRANCH  30  31
ATOM     31  C   UNL     1       0.288 -12.493  -0.082  0.00  0.00    -0.022 A 
ATOM     32  C   UNL     1       1.516 -13.122  -0.151  0.00  0.00    +0.005 A 
ATOM     33  C   UNL     1       1.678 -14.384   0.390  0.00  0.00    +0.000 A 
ATOM     34  C   UNL     1       0.613 -15.020   1.001  0.00  0.00    +0.004 A 
ATOM     35  C   UNL     1      -0.617 -14.394   1.073  0.00  0.00    +0.045 A 
ATOM     36  C   UNL     1      -0.781 -13.125   0.536  0.00  0.00    +0.118 A 
BRANCH  36  37
ATOM     37  O   UNL     1      -1.988 -12.506   0.610  0.00  0.00    -0.507 OA
ATOM     38  H   UNL     1      -2.570 -12.687  -0.141  0.00  0.00    +0.292 HD
ENDBRANCH  36  37
ENDBRANCH  30  31
ENDBRANCH   3  30
TORSDOF 10
