REMARK  Name = ZINC67000611
REMARK  10 active torsions:
REMARK  status: ('A' for Active; 'I' for Inactive)
REMARK    1  A    between atoms: C_1  and  N_2
REMARK    2  A    between atoms: N_2  and  C_3
REMARK    3  A    between atoms: N_2  and  C_4
REMARK    4  A    between atoms: C_4  and  C_5
REMARK    5  A    between atoms: C_5  and  C_6
REMARK    6  A    between atoms: C_9  and  N_12
REMARK    7  A    between atoms: C_13  and  C_15
REMARK    8  A    between atoms: N_17  and  C_18
REMARK    9  A    between atoms: C_18  and  C_19
REMARK   10  A    between atoms: C_19  and  O_29
REMARK                            x       y       z     vdW  Elec       q    Type
REMARK                         _______ _______ _______ _____ _____    ______ ____
ROOT
ATOM      1  C   UNL     1      -9.737  -1.945  -0.480  0.00  0.00    +0.299 C 
ATOM      2  O   UNL     1      -9.983  -3.026  -0.975  0.00  0.00    -0.265 OA
ATOM      3  N   UNL     1     -10.718  -1.235   0.110  0.00  0.00    -0.305 N 
ATOM      4  H   UNL     1     -10.521  -0.371   0.506  0.00  0.00    +0.149 HD
ENDROOT
BRANCH   1   6
ATOM      5  N   UNL     1      -7.364  -2.114  -1.115  0.00  0.00    -0.278 N 
ATOM      6  C   UNL     1      -8.346  -1.403  -0.524  0.00  0.00    +0.303 C 
ATOM      7  O   UNL     1      -8.099  -0.323  -0.030  0.00  0.00    -0.265 OA
ATOM      8  H   UNL     1      -7.574  -2.942  -1.575  0.00  0.00    +0.155 HD
BRANCH   5  12
ATOM      9  C   UNL     1      -3.430  -0.756  -0.961  0.00  0.00    -0.049 A 
ATOM     10  C   UNL     1      -3.878  -1.449  -2.071  0.00  0.00    +0.005 A 
ATOM     11  C   UNL     1      -5.182  -1.901  -2.126  0.00  0.00    +0.023 A 
ATOM     12  C   UNL     1      -6.044  -1.659  -1.063  0.00  0.00    +0.034 A 
ATOM     13  C   UNL     1      -5.591  -0.963   0.051  0.00  0.00    +0.023 A 
ATOM     14  C   UNL     1      -4.284  -0.518   0.100  0.00  0.00    +0.005 A 
BRANCH   9  15
ATOM     15  C   UNL     1      -2.007  -0.265  -0.906  0.00  0.00    +0.016 C 
BRANCH  15  16
ATOM     16  C   UNL     1      -1.119  -1.343  -0.282  0.00  0.00    -0.075 C 
BRANCH  16  18
ATOM     17  C   UNL     1       0.355   0.285   0.683  0.00  0.00    -0.097 C 
ATOM     18  N   UNL     1       0.269  -0.864  -0.228  0.00  0.00    +0.376 N 
ATOM     19  C   UNL     1       1.140  -1.942   0.260  0.00  0.00    -0.097 C 
ATOM     20  H   UNL     1       0.564  -0.584  -1.151  0.00  0.00    -0.083 HD
ENDBRANCH  16  18
ENDBRANCH  15  16
ENDBRANCH   9  15
ENDBRANCH   5  12
ENDBRANCH   1   6
BRANCH   3  21
ATOM     21  C   UNL     1     -12.082  -1.766   0.154  0.00  0.00    +0.144 C 
BRANCH  21  22
ATOM     22  C   UNL     1     -13.021  -0.714   0.749  0.00  0.00    +0.107 C 
ATOM     23  C   UNL     1     -12.927   0.568  -0.075  0.00  0.00    +0.041 C 
ATOM     24  C   UNL     1     -14.024   1.528   0.398  0.00  0.00    +0.008 C 
ATOM     25  C   UNL     1     -15.376   0.967  -0.037  0.00  0.00    +0.035 C 
ATOM     26  C   UNL     1     -15.512  -0.473   0.386  0.00  0.00    -0.041 A 
ATOM     27  C   UNL     1     -14.430  -1.246   0.743  0.00  0.00    -0.011 A 
ATOM     28  C   UNL     1     -14.624  -2.569   1.117  0.00  0.00    +0.007 A 
ATOM     29  C   UNL     1     -15.892  -3.114   1.137  0.00  0.00    +0.000 A 
ATOM     30  C   UNL     1     -16.978  -2.337   0.782  0.00  0.00    +0.000 A 
ATOM     31  C   UNL     1     -16.788  -1.022   0.408  0.00  0.00    +0.004 A 
BRANCH  22  32
ATOM     32  O   UNL     1     -12.627  -0.439   2.095  0.00  0.00    -0.382 OA
ATOM     33  H   UNL     1     -12.653  -1.210   2.678  0.00  0.00    +0.211 HD
ENDBRANCH  22  32
ENDBRANCH  21  22
ENDBRANCH   3  21
TORSDOF 8
