REMARK  Name = ZINC13163573
REMARK  8 active torsions:
REMARK  status: ('A' for Active; 'I' for Inactive)
REMARK    1  A    between atoms: C_1  and  C_2
REMARK    2  A    between atoms: C_2  and  C_4
REMARK    3  A    between atoms: C_2  and  S_16
REMARK    4  A    between atoms: N_6  and  C_7
REMARK    5  A    between atoms: C_10  and  C_13
REMARK    6  A    between atoms: C_13  and  C_15
REMARK    7  A    between atoms: S_16  and  C_17
REMARK    8  A    between atoms: C_21  and  C_23
REMARK                            x       y       z     vdW  Elec       q    Type
REMARK                         _______ _______ _______ _____ _____    ______ ____
ROOT
ATOM      1  C   UNL     1       2.704  -4.544  -1.232  0.00  0.00    +0.029 C 
ATOM      2  C   UNL     1       2.900  -3.889   0.136  0.00  0.00    +0.137 C 
ENDROOT
BRANCH   2   3
ATOM      3  C   UNL     1       2.679  -2.403   0.019  0.00  0.00    +0.230 C 
ATOM      4  O   UNL     1       3.623  -1.661  -0.150  0.00  0.00    -0.274 OA
ATOM      5  N   UNL     1       1.432  -1.899   0.100  0.00  0.00    -0.285 N 
ATOM      6  H   UNL     1       0.670  -2.496   0.157  0.00  0.00    +0.155 HD
BRANCH   5   7
ATOM      7  C   UNL     1       1.237  -0.519   0.104  0.00  0.00    +0.033 A 
ATOM      8  C   UNL     1       0.114   0.025  -0.514  0.00  0.00    +0.024 A 
ATOM      9  C   UNL     1      -0.082   1.382  -0.512  0.00  0.00    +0.013 A 
ATOM     10  C   UNL     1       0.850   2.221   0.111  0.00  0.00    +0.017 A 
ATOM     11  C   UNL     1       1.978   1.669   0.732  0.00  0.00    +0.013 A 
ATOM     12  C   UNL     1       2.166   0.311   0.726  0.00  0.00    +0.024 A 
BRANCH  10  13
ATOM     13  C   UNL     1       0.645   3.675   0.115  0.00  0.00    +0.160 C 
ATOM     14  O   UNL     1      -0.377   4.144  -0.339  0.00  0.00    -0.292 OA
ATOM     15  C   UNL     1       1.704   4.584   0.683  0.00  0.00    +0.091 C 
ENDBRANCH  10  13
ENDBRANCH   5   7
ENDBRANCH   2   3
BRANCH   2  16
ATOM     16  S   UNL     1       4.584  -4.204   0.720  0.00  0.00    -0.074 S 
BRANCH  16  17
ATOM     17  C   UNL     1       4.521  -5.955   0.908  0.00  0.00    +0.185 A 
ATOM     18  N   UNL     1       5.534  -6.746   1.325  0.00  0.00    -0.253 N 
ATOM     19  H   UNL     1       6.427  -6.462   1.575  0.00  0.00    +0.191 HD
ATOM     20  N   UNL     1       5.039  -8.060   1.326  0.00  0.00    -0.152 NA
ATOM     21  C   UNL     1       3.793  -8.000   0.915  0.00  0.00    +0.183 A 
ATOM     22  N   UNL     1       3.481  -6.721   0.661  0.00  0.00    -0.201 NA
BRANCH  21  23
ATOM     23  C   UNL     1       2.880  -9.159   0.756  0.00  0.00    +0.035 A 
ATOM     24  C   UNL     1       1.573  -8.964   0.315  0.00  0.00    +0.013 A 
ATOM     25  C   UNL     1       0.729 -10.046   0.164  0.00  0.00    +0.001 A 
ATOM     26  C   UNL     1       1.176 -11.321   0.460  0.00  0.00    +0.001 A 
ATOM     27  C   UNL     1       2.470 -11.521   0.903  0.00  0.00    +0.016 A 
ATOM     28  C   UNL     1       3.325 -10.446   1.053  0.00  0.00    +0.029 A 
ATOM     29 BR   UNL     1       5.094 -10.720   1.661  0.00  0.00    -0.050 Br
ENDBRANCH  21  23
ENDBRANCH  16  17
ENDBRANCH   2  16
TORSDOF 6
