REMARK  Name = ZINC11115668
REMARK  6 active torsions:
REMARK  status: ('A' for Active; 'I' for Inactive)
REMARK    1  A    between atoms: N_9  and  C_24
REMARK    2  A    between atoms: C_10  and  C_12
REMARK    3  A    between atoms: C_12  and  O_13
REMARK    4  A    between atoms: O_13  and  C_14
REMARK    5  A    between atoms: C_19  and  C_20
REMARK    6  A    between atoms: C_24  and  C_25
REMARK                            x       y       z     vdW  Elec       q    Type
REMARK                         _______ _______ _______ _____ _____    ______ ____
ROOT
ATOM      1  C   UNL     1      -8.564  -1.626   0.032  0.00  0.00    +0.001 A 
ATOM      2  C   UNL     1      -8.346  -0.254   0.039  0.00  0.00    +0.002 A 
ATOM      3  C   UNL     1      -7.068   0.257   0.036  0.00  0.00    +0.028 A 
ATOM      4  C   UNL     1      -5.976  -0.612   0.027  0.00  0.00    +0.078 A 
ATOM      5  C   UNL     1      -6.200  -2.006   0.021  0.00  0.00    +0.065 A 
ATOM      6  C   UNL     1      -7.502  -2.504   0.023  0.00  0.00    +0.015 A 
ATOM      7  C   UNL     1      -5.028  -2.894   0.010  0.00  0.00    +0.262 A 
ATOM      8  O   UNL     1      -5.152  -4.105   0.004  0.00  0.00    -0.267 OA
ATOM      9  N   UNL     1      -3.806  -2.312   0.002  0.00  0.00    -0.285 N 
ATOM     10  C   UNL     1      -3.684  -0.959   0.014  0.00  0.00    +0.151 A 
ATOM     11  N   UNL     1      -4.700  -0.151   0.024  0.00  0.00    -0.230 NA
ENDROOT
BRANCH  10  12
ATOM     12  C   UNL     1      -2.298  -0.367   0.011  0.00  0.00    +0.303 C 
BRANCH  12  13
ATOM     13  O   UNL     1      -2.390   1.059   0.019  0.00  0.00    -0.484 OA
BRANCH  13  14
ATOM     14  C   UNL     1      -1.224   1.752   0.017  0.00  0.00    +0.133 A 
ATOM     15  C   UNL     1      -0.013   1.076   0.008  0.00  0.00    +0.048 A 
ATOM     16  C   UNL     1       1.174   1.781   0.000  0.00  0.00    +0.023 A 
ATOM     17  C   UNL     1       1.166   3.168   0.007  0.00  0.00    +0.042 A 
ATOM     18  C   UNL     1      -0.029   3.855   0.023  0.00  0.00    +0.036 A 
ATOM     19  C   UNL     1      -1.237   3.153   0.031  0.00  0.00    +0.079 A 
ATOM     20 CL   UNL     1       2.666   4.041  -0.003  0.00  0.00    -0.084 Cl
BRANCH  19  21
ATOM     21  C   UNL     1      -2.519   3.882   0.047  0.00  0.00    +0.245 C 
ATOM     22  O   UNL     1      -3.568   3.268   0.054  0.00  0.00    -0.270 OA
ATOM     23  N   UNL     1      -2.528   5.230   0.054  0.00  0.00    -0.325 N 
ATOM     24  H   UNL     1      -1.691   5.721   0.049  0.00  0.00    +0.145 HD
ATOM     25  H   UNL     1      -3.371   5.710   0.065  0.00  0.00    +0.145 HD
ENDBRANCH  19  21
ENDBRANCH  13  14
ENDBRANCH  12  13
ENDBRANCH  10  12
BRANCH   9  26
ATOM     26  C   UNL     1      -2.604  -3.150  -0.015  0.00  0.00    +0.222 C 
BRANCH  26  27
ATOM     27  C   UNL     1      -2.182  -3.450   1.401  0.00  0.00    +0.230 C 
ATOM     28  O   UNL     1      -2.822  -3.009   2.331  0.00  0.00    -0.274 OA
ATOM     29  N   UNL     1      -1.093  -4.210   1.632  0.00  0.00    -0.328 N 
ATOM     30  H   UNL     1      -0.581  -4.563   0.888  0.00  0.00    +0.145 HD
ATOM     31  H   UNL     1      -0.821  -4.404   2.543  0.00  0.00    +0.145 HD
ENDBRANCH  26  27
ENDBRANCH   9  26
TORSDOF 6
