REMARK  Name = ZINC33753670
REMARK  11 active torsions:
REMARK  status: ('A' for Active; 'I' for Inactive)
REMARK    1  A    between atoms: C_1  and  N_2
REMARK    2  A    between atoms: N_2  and  C_3
REMARK    3  A    between atoms: C_3  and  C_4
REMARK    4  A    between atoms: C_4  and  O_5
REMARK    5  A    between atoms: O_5  and  C_6
REMARK    6  A    between atoms: C_9  and  C_12
REMARK    7  A    between atoms: C_12  and  C_23
REMARK    8  A    between atoms: C_13  and  C_14
REMARK    9  A    between atoms: C_13  and  C_17
REMARK   10  A    between atoms: C_14  and  C_15
REMARK   11  A    between atoms: C_26  and  O_29
REMARK                            x       y       z     vdW  Elec       q    Type
REMARK                         _______ _______ _______ _____ _____    ______ ____
ROOT
ATOM      1  C   UNL     1      -1.193  -8.123  -1.357  0.00  0.00    -0.007 C 
ATOM      2  C   UNL     1      -2.071  -8.661  -0.475  0.00  0.00    -0.031 C 
ENDROOT
BRANCH   1   6
ATOM      3  C   UNL     1      -0.283  -3.975  -1.187  0.00  0.00    +0.120 A 
ATOM      4  C   UNL     1       0.706  -4.913  -0.920  0.00  0.00    +0.046 A 
ATOM      5  C   UNL     1       0.415  -6.259  -0.975  0.00  0.00    +0.012 A 
ATOM      6  C   UNL     1      -0.876  -6.679  -1.298  0.00  0.00    -0.017 A 
ATOM      7  C   UNL     1      -1.868  -5.734  -1.565  0.00  0.00    +0.012 A 
ATOM      8  C   UNL     1      -1.570  -4.389  -1.504  0.00  0.00    +0.046 A 
BRANCH   3   9
ATOM      9  O   UNL     1       0.009  -2.649  -1.133  0.00  0.00    -0.494 OA
BRANCH   9  10
ATOM     10  C   UNL     1       1.352  -2.293  -0.802  0.00  0.00    +0.210 C 
BRANCH  10  11
ATOM     11  C   UNL     1       1.488  -0.769  -0.789  0.00  0.00    -0.041 C 
BRANCH  11  13
ATOM     12  C   UNL     1       0.791   1.250   0.302  0.00  0.00    -0.100 C 
ATOM     13  N   UNL     1       0.661  -0.213   0.290  0.00  0.00    +0.379 N 
ATOM     14  H   UNL     1       0.969  -0.585   1.176  0.00  0.00    -0.086 HD
ATOM     15  H   UNL     1      -0.305  -0.463   0.137  0.00  0.00    -0.086 HD
ENDBRANCH  11  13
ENDBRANCH  10  11
ENDBRANCH   9  10
ENDBRANCH   3   9
ENDBRANCH   1   6
BRANCH   2  16
ATOM     16  C   UNL     1      -2.611  -7.840   0.619  0.00  0.00    -0.021 A 
ATOM     17  C   UNL     1      -1.761  -7.350   1.616  0.00  0.00    +0.008 A 
ATOM     18  C   UNL     1      -2.276  -6.580   2.638  0.00  0.00    +0.001 A 
ATOM     19  C   UNL     1      -3.629  -6.293   2.679  0.00  0.00    +0.000 A 
ATOM     20  C   UNL     1      -4.477  -6.775   1.697  0.00  0.00    +0.001 A 
ATOM     21  C   UNL     1      -3.977  -7.540   0.664  0.00  0.00    +0.008 A 
ENDBRANCH   2  16
BRANCH   1  22
ATOM     22  C   UNL     1      -0.553  -8.979  -2.380  0.00  0.00    -0.017 A 
ATOM     23  C   UNL     1       0.362  -9.961  -1.997  0.00  0.00    +0.012 A 
ATOM     24  C   UNL     1       0.957 -10.757  -2.952  0.00  0.00    +0.046 A 
ATOM     25  C   UNL     1       0.645 -10.584  -4.294  0.00  0.00    +0.117 A 
ATOM     26  C   UNL     1      -0.265  -9.608  -4.679  0.00  0.00    +0.046 A 
ATOM     27  C   UNL     1      -0.867  -8.812  -3.729  0.00  0.00    +0.012 A 
BRANCH  25  28
ATOM     28  O   UNL     1       1.233 -11.370  -5.233  0.00  0.00    -0.507 OA
ATOM     29  H   UNL     1       0.745 -12.182  -5.428  0.00  0.00    +0.292 HD
ENDBRANCH  25  28
ENDBRANCH   1  22
BRANCH   2  30
ATOM     30  C   UNL     1      -2.492 -10.102  -0.614  0.00  0.00    +0.052 C 
BRANCH  30  31
ATOM     31  C   UNL     1      -3.792 -10.177  -1.418  0.00  0.00    +0.113 C 
ATOM     32 CL   UNL     1      -4.215 -11.904  -1.715  0.00  0.00    -0.125 Cl
ENDBRANCH  30  31
ENDBRANCH   2  30
TORSDOF 10
