REMARK  Name = ZINC57349358
REMARK  12 active torsions:
REMARK  status: ('A' for Active; 'I' for Inactive)
REMARK    1  A    between atoms: C_1  and  C_2
REMARK    2  A    between atoms: C_2  and  C_3
REMARK    3  A    between atoms: C_2  and  C_4
REMARK    4  A    between atoms: C_2  and  O_5
REMARK    5  A    between atoms: O_5  and  C_6
REMARK    6  A    between atoms: C_12  and  C_14
REMARK    7  A    between atoms: N_16  and  C_17
REMARK    8  A    between atoms: C_17  and  C_18
REMARK    9  A    between atoms: C_18  and  C_20
REMARK   10  A    between atoms: C_18  and  C_28
REMARK   11  A    between atoms: C_23  and  O_26
REMARK   12  A    between atoms: O_26  and  C_27
REMARK                            x       y       z     vdW  Elec       q    Type
REMARK                         _______ _______ _______ _____ _____    ______ ____
ROOT
ATOM      1  C   UNL     1       8.415   0.001  -0.509  0.00  0.00    +0.068 C 
ENDROOT
BRANCH   1   2
ATOM      2  C   UNL     1       9.107  -0.322  -1.808  0.00  0.00    -0.013 A 
ATOM      3  C   UNL     1       9.463  -1.542  -2.242  0.00  0.00    +0.088 A 
ATOM      4  N   UNL     1      10.069  -1.444  -3.465  0.00  0.00    -0.360 N 
ATOM      5  H   UNL     1      10.412  -2.192  -3.978  0.00  0.00    +0.165 HD
ATOM      6  C   UNL     1      10.119  -0.125  -3.858  0.00  0.00    +0.047 A 
ATOM      7  C   UNL     1       9.513   0.635  -2.841  0.00  0.00    +0.003 A 
ATOM      8  C   UNL     1       9.415   2.021  -2.971  0.00  0.00    +0.010 A 
ATOM      9  C   UNL     1       9.906   2.634  -4.089  0.00  0.00    +0.001 A 
ATOM     10  C   UNL     1      10.501   1.889  -5.098  0.00  0.00    +0.002 A 
ATOM     11  C   UNL     1      10.616   0.520  -4.985  0.00  0.00    +0.026 A 
ENDBRANCH   1   2
BRANCH   1  12
ATOM     12  C   UNL     1       9.273  -0.452   0.643  0.00  0.00    -0.038 A 
ATOM     13  C   UNL     1       9.618  -1.786   0.765  0.00  0.00    +0.008 A 
ATOM     14  C   UNL     1      10.405  -2.204   1.821  0.00  0.00    +0.046 A 
ATOM     15  C   UNL     1      10.849  -1.284   2.760  0.00  0.00    +0.120 A 
ATOM     16  C   UNL     1      10.502   0.053   2.635  0.00  0.00    +0.046 A 
ATOM     17  C   UNL     1       9.720   0.467   1.575  0.00  0.00    +0.008 A 
BRANCH  15  18
ATOM     18  O   UNL     1      11.623  -1.693   3.799  0.00  0.00    -0.495 OA
ATOM     19  C   UNL     1      12.044  -0.691   4.728  0.00  0.00    +0.277 C 
ENDBRANCH  15  18
ENDBRANCH   1  12
BRANCH   1  20
ATOM     20  C   UNL     1       7.067  -0.722  -0.456  0.00  0.00    +0.117 C 
BRANCH  20  23
ATOM     21  C   UNL     1       4.942  -0.686  -1.648  0.00  0.00    +0.234 C 
ATOM     22  O   UNL     1       4.547  -1.564  -0.910  0.00  0.00    -0.274 OA
ATOM     23  N   UNL     1       6.189  -0.196  -1.504  0.00  0.00    -0.313 N 
ATOM     24  H   UNL     1       6.505   0.506  -2.094  0.00  0.00    +0.149 HD
BRANCH  21  31
ATOM     25  C   UNL     1       1.952  -0.085  -1.337  0.00  0.00    +0.404 C 
ATOM     26  O   UNL     1       2.488   0.619  -0.503  0.00  0.00    -0.226 OA
ATOM     27  N   UNL     1       2.641  -0.485  -2.424  0.00  0.00    -0.256 N 
ATOM     28  C   UNL     1       2.115  -1.331  -3.511  0.00  0.00    +0.112 C 
ATOM     29  C   UNL     1       2.998  -0.994  -4.738  0.00  0.00    +0.021 C 
ATOM     30  C   UNL     1       4.388  -0.801  -4.078  0.00  0.00    +0.033 C 
ATOM     31  C   UNL     1       4.039  -0.145  -2.726  0.00  0.00    +0.165 C 
BRANCH  25  32
ATOM     32  O   UNL     1       0.671  -0.465  -1.174  0.00  0.00    -0.445 OA
BRANCH  32  34
ATOM     33  C   UNL     1      -0.019   1.526   0.010  0.00  0.00    +0.055 C 
ATOM     34  C   UNL     1       0.002  -0.004   0.002  0.00  0.00    +0.107 C 
ATOM     35  C   UNL     1       0.742  -0.511   1.242  0.00  0.00    +0.055 C 
ATOM     36  C   UNL     1      -1.433  -0.534   0.013  0.00  0.00    +0.055 C 
ENDBRANCH  32  34
ENDBRANCH  25  32
ENDBRANCH  21  31
ENDBRANCH  20  23
ENDBRANCH   1  20
TORSDOF 8
