REMARK  Name = ZINC19938968
REMARK  11 active torsions:
REMARK  status: ('A' for Active; 'I' for Inactive)
REMARK    1  A    between atoms: C_1  and  O_2
REMARK    2  A    between atoms: O_2  and  C_3
REMARK    3  A    between atoms: C_8  and  C_9
REMARK    4  A    between atoms: C_12  and  C_30
REMARK    5  A    between atoms: C_13  and  N_15
REMARK    6  A    between atoms: C_18  and  N_21
REMARK    7  A    between atoms: C_25  and  C_28
REMARK    8  A    between atoms: C_28  and  O_29
REMARK    9  A    between atoms: N_32  and  C_33
REMARK   10  A    between atoms: C_33  and  C_34
REMARK   11  A    between atoms: C_34  and  C_35
REMARK                            x       y       z     vdW  Elec       q    Type
REMARK                         _______ _______ _______ _____ _____    ______ ____
ROOT
ATOM      1  C   UNL     1      -2.044   2.502   3.469  0.00  0.00    +0.077 A 
ATOM      2  C   UNL     1      -2.639   3.041   4.611  0.00  0.00    +0.029 A 
ATOM      3  C   UNL     1      -3.120   2.194   5.589  0.00  0.00    +0.018 A 
ATOM      4  C   UNL     1      -2.991   0.811   5.397  0.00  0.00    +0.077 A 
ATOM      5  C   UNL     1      -2.381   0.340   4.221  0.00  0.00    +0.134 A 
ATOM      6  N   UNL     1      -1.939   1.188   3.308  0.00  0.00    -0.231 NA
ENDROOT
BRANCH   1  12
ATOM      7  C   UNL     1      -0.929   2.884   1.268  0.00  0.00    +0.129 A 
ATOM      8  C   UNL     1      -0.443   3.741   0.293  0.00  0.00    +0.046 A 
ATOM      9  C   UNL     1      -0.561   5.108   0.453  0.00  0.00    +0.004 A 
ATOM     10  C   UNL     1      -1.153   5.631   1.590  0.00  0.00    +0.001 A 
ATOM     11  C   UNL     1      -1.636   4.791   2.571  0.00  0.00    +0.013 A 
ATOM     12  C   UNL     1      -1.528   3.409   2.419  0.00  0.00    +0.042 A 
BRANCH   7  14
ATOM     13  C   UNL     1      -0.195   1.076  -0.089  0.00  0.00    +0.277 C 
ATOM     14  O   UNL     1      -0.818   1.540   1.111  0.00  0.00    -0.494 OA
ENDBRANCH   7  14
ENDBRANCH   1  12
BRANCH   5  15
ATOM     15  N   UNL     1      -2.246  -1.021   4.016  0.00  0.00    -0.315 N 
ATOM     16  C   UNL     1      -3.378  -1.551   3.245  0.00  0.00    +0.105 C 
ATOM     17  C   UNL     1      -3.271  -3.075   3.162  0.00  0.00    +0.004 C 
ATOM     18  C   UNL     1      -1.948  -3.454   2.489  0.00  0.00    -0.066 C 
ATOM     19  C   UNL     1      -0.788  -2.849   3.285  0.00  0.00    +0.004 C 
ATOM     20  C   UNL     1      -0.967  -1.331   3.364  0.00  0.00    +0.105 C 
BRANCH  18  21
ATOM     21  N   UNL     1      -1.812  -4.916   2.458  0.00  0.00    +0.382 N 
ATOM     22  C   UNL     1      -1.731  -5.466   3.817  0.00  0.00    -0.078 C 
ATOM     23  C   UNL     1      -1.445  -6.968   3.745  0.00  0.00    -0.018 C 
ATOM     24  C   UNL     1      -2.564  -7.658   2.961  0.00  0.00    +0.002 C 
ATOM     25  C   UNL     1      -2.659  -7.034   1.566  0.00  0.00    -0.002 C 
ATOM     26  C   UNL     1      -2.910  -5.531   1.701  0.00  0.00    -0.073 C 
ATOM     27  H   UNL     1      -0.872  -5.159   1.941  0.00  0.00    -0.081 HD
BRANCH  25  28
ATOM     28  C   UNL     1      -3.814  -7.678   0.795  0.00  0.00    +0.157 C 
BRANCH  28  29
ATOM     29  O   UNL     1      -3.524  -9.058   0.568  0.00  0.00    -0.395 OA
ATOM     30  H   UNL     1      -4.244  -9.689   0.025  0.00  0.00    +0.209 HD
ENDBRANCH  28  29
ENDBRANCH  25  28
ENDBRANCH  18  21
ENDBRANCH   5  15
BRANCH   4  31
ATOM     31  C   UNL     1      -3.489  -0.133   6.411  0.00  0.00    +0.247 C 
ATOM     32  O   UNL     1      -3.460  -1.330   6.194  0.00  0.00    -0.270 OA
ATOM     33  N   UNL     1      -3.978   0.328   7.580  0.00  0.00    -0.311 N 
ATOM     34  H   UNL     1      -4.005   1.410   7.776  0.00  0.00    +0.149 HD
BRANCH  33  35
ATOM     35  C   UNL     1      -4.473  -0.611   8.588  0.00  0.00    +0.109 C 
BRANCH  35  36
ATOM     36  C   UNL     1      -4.968   0.166   9.810  0.00  0.00    +0.049 C 
BRANCH  36  37
ATOM     37  C   UNL     1      -5.477  -0.801  10.848  0.00  0.00    -0.072 C 
ATOM     38  C   UNL     1      -4.663  -1.171  11.784  0.00  0.00    -0.028 C 
ATOM     39  C   UNL     1      -5.022  -2.133  12.879  0.00  0.00    +0.027 C 
ATOM     40  C   UNL     1      -6.543  -2.269  12.983  0.00  0.00    +0.004 C 
ATOM     41  C   UNL     1      -7.104  -2.531  11.579  0.00  0.00    +0.005 C 
ATOM     42  C   UNL     1      -6.898  -1.269  10.736  0.00  0.00    +0.030 C 
ENDBRANCH  36  37
ENDBRANCH  35  36
ENDBRANCH  33  35
ENDBRANCH   4  31
TORSDOF 10
