REMARK  Name = ZINC27531164
REMARK  5 active torsions:
REMARK  status: ('A' for Active; 'I' for Inactive)
REMARK    1  A    between atoms: C_1  and  C_2
REMARK    2  A    between atoms: N_5  and  C_8
REMARK    3  A    between atoms: C_16  and  S_19
REMARK    4  A    between atoms: S_19  and  C_20
REMARK    5  A    between atoms: N_22  and  C_25
REMARK                            x       y       z     vdW  Elec       q    Type
REMARK                         _______ _______ _______ _____ _____    ______ ____
ROOT
ATOM      1  C   UNL     1       1.750  -1.784  -0.018  0.00  0.00    +0.035 C 
ATOM      2  C   UNL     1       1.337  -0.315  -0.011  0.00  0.00    -0.016 A 
ATOM      3  C   UNL     1       2.245   0.754  -0.016  0.00  0.00    -0.036 A 
ATOM      4  C   UNL     1       1.734   2.015  -0.004  0.00  0.00    -0.022 A 
ATOM      5  S   UNL     1      -0.022   1.764   0.012  0.00  0.00    -0.080 S 
ATOM      6  C   UNL     1       0.002  -0.004   0.002  0.00  0.00    +0.070 A 
ATOM      7  N   UNL     1      -1.028  -0.930   0.004  0.00  0.00    -0.315 N 
ATOM      8  C   UNL     1      -0.621  -2.329  -0.261  0.00  0.00    +0.198 C 
ATOM      9  N   UNL     1       0.625  -2.591   0.474  0.00  0.00    -0.299 NA
ATOM     10  C   UNL     1       2.502   3.296  -0.002  0.00  0.00    -0.036 C 
ATOM     11  N   UNL     1       3.906   2.990   0.334  0.00  0.00    +0.381 N 
ATOM     12  C   UNL     1       4.403   1.876  -0.485  0.00  0.00    -0.074 C 
ATOM     13  C   UNL     1       3.760   0.561  -0.036  0.00  0.00    +0.017 C 
ATOM     14  C   UNL     1       4.755   4.179   0.177  0.00  0.00    -0.096 C 
ATOM     15  H   UNL     1      -2.086  -0.689   0.184  0.00  0.00    +0.149 HD
ATOM     16  H   UNL     1       0.865  -3.659   0.364  0.00  0.00    +0.123 HD
ATOM     17  H   UNL     1       3.953   2.685   1.389  0.00  0.00    -0.082 HD
ENDROOT
BRANCH   1  22
ATOM     18  C   UNL     1       5.689  -3.019   3.936  0.00  0.00    +0.007 C 
ATOM     19  C   UNL     1       4.375  -2.931   3.156  0.00  0.00    -0.018 C 
ATOM     20  C   UNL     1       4.565  -3.539   1.764  0.00  0.00    -0.015 C 
ATOM     21  C   UNL     1       3.267  -3.393   0.968  0.00  0.00    -0.076 C 
ATOM     22  N   UNL     1       2.915  -1.972   0.857  0.00  0.00    +0.393 N 
ATOM     23  C   UNL     1       2.681  -1.378   2.180  0.00  0.00    -0.076 C 
ATOM     24  C   UNL     1       3.963  -1.464   3.013  0.00  0.00    -0.015 C 
ATOM     25  H   UNL     1       3.770  -1.450   0.402  0.00  0.00    -0.079 HD
ENDBRANCH   1  22
BRANCH   8  26
ATOM     26  S   UNL     1      -1.918  -3.462   0.310  0.00  0.00    -0.127 S 
ATOM     27  C   UNL     1      -2.080  -3.089   2.078  0.00  0.00    +0.087 C 
ENDBRANCH   8  26
TORSDOF 2
