REMARK  Name = ZINC05546352
REMARK  5 active torsions:
REMARK  status: ('A' for Active; 'I' for Inactive)
REMARK    1  A    between atoms: C_1  and  C_2
REMARK    2  A    between atoms: C_5  and  C_8
REMARK    3  A    between atoms: C_16  and  C_17
REMARK    4  A    between atoms: C_22  and  N_26
REMARK    5  A    between atoms: C_23  and  C_24
REMARK                            x       y       z     vdW  Elec       q    Type
REMARK                         _______ _______ _______ _____ _____    ______ ____
ROOT
ATOM      1  C   UNL     1       1.302   2.178   0.001  0.00  0.00    +0.079 C 
ATOM      2  C   UNL     1       0.976   3.600  -0.421  0.00  0.00    +0.117 C 
ATOM      3  C   UNL     1      -0.165   4.067   0.544  0.00  0.00    +0.287 C 
ATOM      4  N   UNL     1      -0.028   5.509   0.330  0.00  0.00    -0.230 N 
ATOM      5  N   UNL     1       1.375   5.708   0.267  0.00  0.00    -0.184 NA
ATOM      6  C   UNL     1       2.006   4.655  -0.142  0.00  0.00    +0.148 C 
ATOM      7  O   UNL     1      -1.335   3.421   0.083  0.00  0.00    -0.455 OA
ATOM      8  C   UNL     1      -1.213   2.066   0.019  0.00  0.00    +0.194 C 
ATOM      9  C   UNL     1      -0.017   1.428   0.010  0.00  0.00    +0.094 C 
ATOM     10  H   UNL     1      -0.732   6.172   0.249  0.00  0.00    +0.172 HD
ENDROOT
BRANCH   1  15
ATOM     11  C   UNL     1       4.941  -0.243  -3.779  0.00  0.00    +0.044 C 
ATOM     12  C   UNL     1       3.992   0.388  -2.793  0.00  0.00    -0.050 A 
ATOM     13  C   UNL     1       4.332   0.461  -1.455  0.00  0.00    +0.003 A 
ATOM     14  C   UNL     1       3.462   1.040  -0.551  0.00  0.00    +0.004 A 
ATOM     15  C   UNL     1       2.251   1.547  -0.984  0.00  0.00    -0.038 A 
ATOM     16  C   UNL     1       1.908   1.469  -2.321  0.00  0.00    +0.004 A 
ATOM     17  C   UNL     1       2.780   0.894  -3.226  0.00  0.00    +0.003 A 
ENDBRANCH   1  15
BRANCH   6  18
ATOM     18  C   UNL     1       3.497   4.514  -0.308  0.00  0.00    +0.432 C 
ATOM     19  F   UNL     1       4.121   5.713   0.052  0.00  0.00    -0.165 F 
ATOM     20  F   UNL     1       3.962   3.481   0.513  0.00  0.00    -0.165 F 
ATOM     21  F   UNL     1       3.791   4.218  -1.643  0.00  0.00    -0.165 F 
ENDBRANCH   6  18
BRANCH   8  22
ATOM     22  N   UNL     1      -2.357   1.309  -0.034  0.00  0.00    -0.329 N 
ATOM     23  H   UNL     1      -2.297   0.342  -0.076  0.00  0.00    +0.145 HD
ATOM     24  H   UNL     1      -3.225   1.742  -0.028  0.00  0.00    +0.145 HD
ENDBRANCH   8  22
BRANCH   9  25
ATOM     25  C   UNL     1       0.002  -0.004   0.002  0.00  0.00    +0.100 C 
ATOM     26  N   UNL     1       0.018  -1.140  -0.004  0.00  0.00    -0.191 NA
ENDBRANCH   9  25
TORSDOF 4
