REMARK  Name = ZINC37282857
REMARK  2 active torsions:
REMARK  status: ('A' for Active; 'I' for Inactive)
REMARK    1  A    between atoms: C_7  and  N_12
REMARK    2  A    between atoms: N_12  and  C_13
REMARK                            x       y       z     vdW  Elec       q    Type
REMARK                         _______ _______ _______ _____ _____    ______ ____
ROOT
ATOM      1  C   UNL     1      -0.799  -1.924  -2.479  0.00  0.00    +0.025 A 
ATOM      2  C   UNL     1      -0.412  -3.099  -3.096  0.00  0.00    +0.043 A 
ATOM      3  C   UNL     1       0.353  -4.023  -2.406  0.00  0.00    +0.043 A 
ATOM      4  C   UNL     1       0.728  -3.769  -1.101  0.00  0.00    +0.084 A 
ATOM      5  C   UNL     1       0.338  -2.587  -0.477  0.00  0.00    +0.140 A 
ATOM      6  C   UNL     1      -0.424  -1.665  -1.171  0.00  0.00    -0.017 A 
ATOM      7  C   UNL     1      -0.857  -0.367  -0.537  0.00  0.00    -0.033 C 
ATOM      8  C   UNL     1      -0.730  -0.470   0.985  0.00  0.00    +0.030 C 
ATOM      9  C   UNL     1       0.654  -1.043   1.316  0.00  0.00    +0.228 C 
ATOM     10  O   UNL     1       0.722  -2.377   0.809  0.00  0.00    -0.490 OA
ATOM     11 CL   UNL     1       1.686  -4.929  -0.235  0.00  0.00    -0.080 Cl
ATOM     12 CL   UNL     1      -0.886  -3.417  -4.735  0.00  0.00    -0.083 Cl
ENDROOT
BRANCH   7  13
ATOM     13  N   UNL     1      -2.256  -0.092  -0.892  0.00  0.00    +0.391 N 
ATOM     14  H   UNL     1      -2.349  -0.070  -1.897  0.00  0.00    -0.084 HD
ATOM     15  H   UNL     1      -2.847  -0.818  -0.516  0.00  0.00    -0.084 HD
BRANCH  13  16
ATOM     16  C   UNL     1      -2.657   1.206  -0.333  0.00  0.00    +0.017 C 
ATOM     17  C   UNL     1      -3.808   1.787  -1.158  0.00  0.00    -0.007 C 
ATOM     18  C   UNL     1      -3.653   1.428  -2.625  0.00  0.00    +0.000 C 
ATOM     19  C   UNL     1      -2.455   2.079  -3.292  0.00  0.00    +0.019 C 
ATOM     20  C   UNL     1      -1.147   1.530  -2.719  0.00  0.00    +0.104 C 
ATOM     21  N   UNL     1      -0.793   2.310  -1.522  0.00  0.00    -0.317 N 
ATOM     22  C   UNL     1      -1.488   2.167  -0.388  0.00  0.00    +0.199 C 
ATOM     23  O   UNL     1      -1.187   2.809   0.595  0.00  0.00    -0.278 OA
ATOM     24  H   UNL     1      -0.049   2.931  -1.554  0.00  0.00    +0.149 HD
ENDBRANCH  13  16
ENDBRANCH   7  13
TORSDOF 2
