REMARK  Name = ZINC13496528
REMARK  6 active torsions:
REMARK  status: ('A' for Active; 'I' for Inactive)
REMARK    1  A    between atoms: C_1  and  C_2
REMARK    2  A    between atoms: N_13  and  C_16
REMARK    3  A    between atoms: C_16  and  C_17
REMARK    4  A    between atoms: C_17  and  N_19
REMARK    5  A    between atoms: N_20  and  C_21
REMARK    6  A    between atoms: C_30  and  O_31
REMARK                            x       y       z     vdW  Elec       q    Type
REMARK                         _______ _______ _______ _____ _____    ______ ____
ROOT
ATOM      1  C   UNL     1      -2.164  -7.406   0.426  0.00  0.00    +0.225 C 
ENDROOT
BRANCH   1  13
ATOM      2  C   UNL     1      -0.019   1.526   0.010  0.00  0.00    +0.008 C 
ATOM      3  C   UNL     1       0.002  -0.004   0.002  0.00  0.00    -0.009 C 
ATOM      4  C   UNL     1      -1.433  -0.537   0.021  0.00  0.00    +0.008 C 
ATOM      5  C   UNL     1      -1.430  -2.044  -0.237  0.00  0.00    +0.037 C 
ATOM      6  C   UNL     1      -0.472  -2.712   0.745  0.00  0.00    -0.023 A 
ATOM      7  C   UNL     1       0.476  -1.985   1.383  0.00  0.00    -0.004 A 
ATOM      8  S   UNL     1       1.343  -3.148   2.406  0.00  0.00    -0.073 S 
ATOM      9  C   UNL     1       0.437  -4.601   1.978  0.00  0.00    +0.116 A 
ATOM     10  C   UNL     1      -0.517  -4.131   1.048  0.00  0.00    +0.076 A 
ATOM     11  C   UNL     1      -1.426  -5.099   0.502  0.00  0.00    +0.263 A 
ATOM     12  O   UNL     1      -2.286  -4.796  -0.308  0.00  0.00    -0.267 OA
ATOM     13  N   UNL     1      -1.267  -6.369   0.944  0.00  0.00    -0.290 N 
ATOM     14  C   UNL     1      -0.319  -6.726   1.843  0.00  0.00    +0.203 A 
ATOM     15  N   UNL     1       0.532  -5.869   2.365  0.00  0.00    -0.230 NA
ATOM     16  C   UNL     1       0.737  -0.516   1.249  0.00  0.00    +0.046 C 
ENDBRANCH   1  13
BRANCH   1  17
ATOM     17  C   UNL     1      -1.562  -8.017  -0.813  0.00  0.00    +0.274 C 
ATOM     18  O   UNL     1      -0.489  -7.625  -1.224  0.00  0.00    -0.270 OA
BRANCH  17  19
ATOM     19  N   UNL     1      -2.212  -8.994  -1.462  0.00  0.00    -0.078 NA
ATOM     20  N   UNL     1      -1.697  -9.517  -2.522  0.00  0.00    -0.151 NA
BRANCH  20  21
ATOM     21  C   UNL     1      -2.344 -10.489  -3.167  0.00  0.00    +0.152 A 
ATOM     22  C   UNL     1      -1.897 -11.197  -4.385  0.00  0.00    +0.030 A 
ATOM     23  C   UNL     1      -0.768 -11.103  -5.192  0.00  0.00    +0.012 A 
ATOM     24  C   UNL     1      -0.643 -11.928  -6.291  0.00  0.00    +0.001 A 
ATOM     25  C   UNL     1      -1.636 -12.847  -6.590  0.00  0.00    +0.002 A 
ATOM     26  C   UNL     1      -2.760 -12.949  -5.797  0.00  0.00    +0.026 A 
ATOM     27  C   UNL     1      -2.904 -12.126  -4.686  0.00  0.00    +0.051 A 
ATOM     28  N   UNL     1      -3.900 -12.006  -3.729  0.00  0.00    -0.324 N 
ATOM     29  H   UNL     1      -4.711 -12.536  -3.708  0.00  0.00    +0.169 HD
ATOM     30  C   UNL     1      -3.581 -11.050  -2.825  0.00  0.00    +0.219 A 
BRANCH  30  31
ATOM     31  O   UNL     1      -4.336 -10.693  -1.766  0.00  0.00    -0.492 OA
ATOM     32  H   UNL     1      -4.967  -9.985  -1.954  0.00  0.00    +0.294 HD
ENDBRANCH  30  31
ENDBRANCH  20  21
ENDBRANCH  17  19
ENDBRANCH   1  17
TORSDOF 5
