REMARK  Name = ZINC37129802
REMARK  6 active torsions:
REMARK  status: ('A' for Active; 'I' for Inactive)
REMARK    1  A    between atoms: C_1  and  C_2
REMARK    2  A    between atoms: C_2  and  C_3
REMARK    3  A    between atoms: C_3  and  C_4
REMARK    4  A    between atoms: C_4  and  C_6
REMARK    5  A    between atoms: C_4  and  N_7
REMARK    6  A    between atoms: N_7  and  C_8
REMARK                            x       y       z     vdW  Elec       q    Type
REMARK                         _______ _______ _______ _____ _____    ______ ____
ROOT
ATOM      1  C   UNL     1       1.320  -3.786   0.386  0.00  0.00    +0.044 A 
ATOM      2  C   UNL     1       0.330  -4.593  -0.156  0.00  0.00    +0.051 A 
ATOM      3  C   UNL     1       0.106  -5.855   0.371  0.00  0.00    +0.069 A 
ATOM      4  C   UNL     1       0.876  -6.310   1.443  0.00  0.00    +0.068 A 
ATOM      5  C   UNL     1       1.864  -5.500   1.980  0.00  0.00    +0.045 A 
ATOM      6  C   UNL     1       2.089  -4.244   1.450  0.00  0.00    +0.041 A 
ATOM      7 BR   UNL     1       3.442  -3.141   2.179  0.00  0.00    -0.048 Br
ATOM      8  N   UNL     1       0.424  -7.595   1.746  0.00  0.00    -0.306 N 
ATOM      9  H   UNL     1       0.770  -8.168   2.449  0.00  0.00    +0.170 HD
ATOM     10  C   UNL     1      -0.574  -7.904   0.897  0.00  0.00    +0.325 A 
ATOM     11  O   UNL     1      -1.188  -8.955   0.891  0.00  0.00    -0.247 OA
ATOM     12  N   UNL     1      -0.789  -6.876   0.056  0.00  0.00    -0.306 N 
ATOM     13  H   UNL     1      -1.454  -6.849  -0.649  0.00  0.00    +0.170 HD
ENDROOT
BRANCH   1  14
ATOM     14  N   UNL     1       1.548  -2.511  -0.144  0.00  0.00    -0.340 N 
ATOM     15  H   UNL     1       2.243  -1.947   0.231  0.00  0.00    +0.146 HD
BRANCH  14  16
ATOM     16  C   UNL     1       0.739  -2.027  -1.265  0.00  0.00    +0.067 C 
ATOM     17  C   UNL     1       1.343  -2.522  -2.581  0.00  0.00    +0.028 C 
BRANCH  16  18
ATOM     18  C   UNL     1       0.718  -0.497  -1.257  0.00  0.00    +0.021 C 
BRANCH  18  20
ATOM     19  C   UNL     1      -0.019   1.526   0.010  0.00  0.00    +0.004 C 
ATOM     20  C   UNL     1       0.002  -0.004   0.002  0.00  0.00    -0.002 C 
ENDBRANCH  18  20
ENDBRANCH  16  18
ENDBRANCH  14  16
ENDBRANCH   1  14
TORSDOF 4
