REMARK  Name = ZINC59857640
REMARK  7 active torsions:
REMARK  status: ('A' for Active; 'I' for Inactive)
REMARK    1  A    between atoms: C_3  and  N_27
REMARK    2  A    between atoms: C_6  and  C_7
REMARK    3  A    between atoms: C_7  and  C_9
REMARK    4  A    between atoms: C_9  and  S_10
REMARK    5  A    between atoms: S_10  and  C_11
REMARK    6  A    between atoms: C_16  and  N_20
REMARK    7  A    between atoms: C_21  and  C_23
REMARK                            x       y       z     vdW  Elec       q    Type
REMARK                         _______ _______ _______ _____ _____    ______ ____
ROOT
ATOM      1  C   UNL     1      -2.756  -4.653  -0.026  0.00  0.00    +0.136 A 
ATOM      2  N   UNL     1      -1.645  -5.354  -0.029  0.00  0.00    -0.233 NA
ATOM      3  C   UNL     1      -1.640  -6.707  -0.030  0.00  0.00    +0.080 A 
ATOM      4  C   UNL     1      -0.523  -7.574  -0.033  0.00  0.00    +0.031 A 
ATOM      5  C   UNL     1      -0.690  -8.933  -0.035  0.00  0.00    +0.025 A 
ATOM      6  C   UNL     1      -1.958  -9.509  -0.033  0.00  0.00    +0.035 A 
ATOM      7  C   UNL     1      -3.076  -8.685  -0.030  0.00  0.00    +0.040 A 
ATOM      8  C   UNL     1      -2.912  -7.323  -0.029  0.00  0.00    +0.042 A 
ATOM      9  S   UNL     1      -4.011  -5.926  -0.018  0.00  0.00    -0.061 S 
ENDROOT
BRANCH   6  10
ATOM     10  N   UNL     1      -2.105 -10.903  -0.035  0.00  0.00    -0.278 N 
ATOM     11  C   UNL     1      -3.124 -11.474   0.635  0.00  0.00    +0.321 C 
ATOM     12  O   UNL     1      -3.963 -10.780   1.170  0.00  0.00    -0.266 OA
ATOM     13  H   UNL     1      -1.472 -11.456  -0.520  0.00  0.00    +0.155 HD
BRANCH  11  14
ATOM     14  C   UNL     1      -3.222 -12.976   0.721  0.00  0.00    +0.470 C 
ATOM     15  F   UNL     1      -4.356 -13.328   1.462  0.00  0.00    -0.162 F 
ATOM     16  F   UNL     1      -3.323 -13.511  -0.568  0.00  0.00    -0.162 F 
ATOM     17  F   UNL     1      -2.079 -13.483   1.348  0.00  0.00    -0.162 F 
ENDBRANCH  11  14
ENDBRANCH   6  10
BRANCH   1  18
ATOM     18  S   UNL     1      -2.958  -2.903  -0.023  0.00  0.00    -0.091 S 
BRANCH  18  19
ATOM     19  C   UNL     1      -1.260  -2.265  -0.034  0.00  0.00    +0.156 C 
BRANCH  19  20
ATOM     20  C   UNL     1      -1.290  -0.758  -0.033  0.00  0.00    +0.173 C 
ATOM     21  O   UNL     1      -2.351  -0.173  -0.025  0.00  0.00    -0.291 OA
BRANCH  20  27
ATOM     22  C   UNL     1      -0.053   1.400  -0.039  0.00  0.00    +0.013 A 
ATOM     23  C   UNL     1       1.132   2.106  -0.047  0.00  0.00    +0.033 A 
ATOM     24  C   UNL     1       2.342   1.433  -0.057  0.00  0.00    +0.126 A 
ATOM     25  C   UNL     1       2.373   0.050  -0.059  0.00  0.00    +0.033 A 
ATOM     26  C   UNL     1       1.197  -0.670  -0.051  0.00  0.00    +0.013 A 
ATOM     27  C   UNL     1      -0.030   0.002  -0.041  0.00  0.00    +0.018 A 
BRANCH  24  28
ATOM     28  N   UNL     1       3.609   2.198  -0.066  0.00  0.00    +0.056 N 
ATOM     29  O   UNL     1       3.586   3.407  -0.064  0.00  0.00    -0.126 OA
ATOM     30  O   UNL     1       4.668   1.614  -0.074  0.00  0.00    -0.126 OA
ENDBRANCH  24  28
ENDBRANCH  20  27
ENDBRANCH  19  20
ENDBRANCH  18  19
ENDBRANCH   1  18
TORSDOF 7
