REMARK  Name = ZINC33522940
REMARK  16 active torsions:
REMARK  status: ('A' for Active; 'I' for Inactive)
REMARK    1  A    between atoms: C_1  and  C_2
REMARK    2  A    between atoms: C_2  and  O_3
REMARK    3  A    between atoms: O_3  and  C_4
REMARK    4  A    between atoms: C_6  and  C_14
REMARK    5  A    between atoms: C_9  and  O_10
REMARK    6  A    between atoms: O_10  and  C_11
REMARK    7  A    between atoms: C_11  and  C_12
REMARK    8  A    between atoms: C_16  and  C_27
REMARK    9  A    between atoms: N_20  and  C_21
REMARK   10  A    between atoms: C_21  and  C_22
REMARK   11  A    between atoms: C_22  and  C_23
REMARK   12  A    between atoms: C_23  and  O_24
REMARK   13  A    between atoms: O_24  and  C_25
REMARK   14  A    between atoms: C_27  and  C_29
REMARK   15  A    between atoms: C_35  and  O_38
REMARK   16  A    between atoms: O_38  and  C_39
REMARK                            x       y       z     vdW  Elec       q    Type
REMARK                         _______ _______ _______ _____ _____    ______ ____
ROOT
ATOM      1  C   UNL     1       0.162  -5.088   2.646  0.00  0.00    +0.145 C 
ATOM      2  C   UNL     1       0.650  -6.454   2.224  0.00  0.00    +0.079 C 
ATOM      3  C   UNL     1       1.811  -6.264   1.555  0.00  0.00    +0.249 C 
ATOM      4  C   UNL     1       2.113  -4.819   1.507  0.00  0.00    +0.288 C 
ATOM      5  O   UNL     1       3.088  -4.328   0.974  0.00  0.00    -0.266 OA
ATOM      6  N   UNL     1       1.149  -4.127   2.141  0.00  0.00    -0.283 N 
ATOM      7  O   UNL     1       2.573  -7.243   1.014  0.00  0.00    -0.282 OA
ENDROOT
BRANCH   1  10
ATOM      8  C   UNL     1      -3.550  -4.487   2.282  0.00  0.00    +0.162 A 
ATOM      9  C   UNL     1      -2.309  -4.740   2.842  0.00  0.00    +0.055 A 
ATOM     10  C   UNL     1      -1.188  -4.812   2.035  0.00  0.00    -0.019 A 
ATOM     11  C   UNL     1      -1.303  -4.627   0.670  0.00  0.00    +0.009 A 
ATOM     12  C   UNL     1      -2.540  -4.380   0.104  0.00  0.00    +0.050 A 
ATOM     13  C   UNL     1      -3.667  -4.306   0.907  0.00  0.00    +0.162 A 
BRANCH   8  14
ATOM     14  O   UNL     1      -4.653  -4.415   3.075  0.00  0.00    -0.489 OA
BRANCH  14  16
ATOM     15  C   UNL     1      -5.775  -4.289   5.212  0.00  0.00    +0.048 C 
ATOM     16  C   UNL     1      -4.446  -4.505   4.486  0.00  0.00    +0.226 C 
ENDBRANCH  14  16
ENDBRANCH   8  14
BRANCH  13  17
ATOM     17  O   UNL     1      -4.883  -4.057   0.353  0.00  0.00    -0.484 OA
BRANCH  17  18
ATOM     18  C   UNL     1      -4.927  -3.881  -1.064  0.00  0.00    +0.256 C 
BRANCH  18  19
ATOM     19  C   UNL     1      -6.347  -3.616  -1.494  0.00  0.00    +0.006 C 
ATOM     20  C   UNL     1      -6.604  -2.659  -2.350  0.00  0.00    +0.007 C 
ENDBRANCH  18  19
ENDBRANCH  17  18
ENDBRANCH  13  17
ENDBRANCH   1  10
BRANCH   2  21
ATOM     21  C   UNL     1      -0.004  -7.739   2.494  0.00  0.00    +0.230 C 
ATOM     22  O   UNL     1      -0.450  -8.400   1.573  0.00  0.00    -0.283 OA
BRANCH  21  23
ATOM     23  C   UNL     1      -0.122  -8.228   3.874  0.00  0.00    +0.176 A 
ATOM     24  C   UNL     1      -0.624  -9.440   4.236  0.00  0.00    +0.062 A 
ATOM     25  C   UNL     1      -0.545  -9.492   5.694  0.00  0.00    +0.025 A 
ATOM     26  C   UNL     1      -0.891 -10.448   6.655  0.00  0.00    +0.012 A 
ATOM     27  C   UNL     1      -0.689 -10.182   7.980  0.00  0.00    +0.004 A 
ATOM     28  C   UNL     1      -0.143  -8.971   8.380  0.00  0.00    +0.049 A 
ATOM     29  C   UNL     1       0.207  -8.012   7.448  0.00  0.00    +0.163 A 
ATOM     30  C   UNL     1       0.009  -8.261   6.090  0.00  0.00    +0.177 A 
ATOM     31  O   UNL     1       0.245  -7.541   4.976  0.00  0.00    -0.448 OA
BRANCH  29  32
ATOM     32  O   UNL     1       0.740  -6.829   7.853  0.00  0.00    -0.491 OA
ATOM     33  C   UNL     1       1.016  -6.686   9.248  0.00  0.00    +0.277 C 
ENDBRANCH  29  32
ENDBRANCH  21  23
ENDBRANCH   2  21
BRANCH   6  34
ATOM     34  C   UNL     1       1.098  -2.672   2.304  0.00  0.00    +0.111 C 
BRANCH  34  35
ATOM     35  C   UNL     1       0.347  -2.052   1.124  0.00  0.00    +0.047 C 
BRANCH  35  36
ATOM     36  C   UNL     1       0.294  -0.533   1.294  0.00  0.00    +0.161 C 
BRANCH  36  37
ATOM     37  O   UNL     1      -0.408   0.046   0.192  0.00  0.00    -0.383 OA
ATOM     38  C   UNL     1      -0.515   1.470   0.254  0.00  0.00    +0.193 C 
ENDBRANCH  36  37
ENDBRANCH  35  36
ENDBRANCH  34  35
ENDBRANCH   6  34
TORSDOF 13
