REMARK  Name = ZINC04389933
REMARK  11 active torsions:
REMARK  status: ('A' for Active; 'I' for Inactive)
REMARK    1  A    between atoms: C_1  and  C_2
REMARK    2  A    between atoms: C_2  and  C_30
REMARK    3  A    between atoms: C_4  and  N_18
REMARK    4  A    between atoms: C_7  and  C_14
REMARK    5  A    between atoms: C_10  and  O_13
REMARK    6  A    between atoms: C_14  and  C_15
REMARK    7  A    between atoms: C_14  and  C_16
REMARK    8  A    between atoms: C_14  and  C_17
REMARK    9  A    between atoms: N_18  and  N_19
REMARK   10  A    between atoms: N_19  and  C_20
REMARK   11  A    between atoms: C_23  and  C_26
REMARK                            x       y       z     vdW  Elec       q    Type
REMARK                         _______ _______ _______ _____ _____    ______ ____
ROOT
ATOM      1  C   UNL     1      -0.010   1.522   0.000  0.00  0.00    +0.056 C 
ATOM      2  C   UNL     1       0.007  -0.008  -0.001  0.00  0.00    +0.110 C 
ATOM      3  C   UNL     1      -1.431  -0.537   0.019  0.00  0.00    +0.100 C 
ATOM      4  C   UNL     1      -1.399  -2.038   0.178  0.00  0.00    +0.036 C 
ATOM      5  C   UNL     1      -0.323  -2.633   0.839  0.00  0.00    +0.039 C 
ATOM      6  C   UNL     1      -0.277  -4.034   1.011  0.00  0.00    +0.021 C 
ATOM      7  C   UNL     1       0.766  -4.605   1.663  0.00  0.00    +0.009 C 
ATOM      8  C   UNL     1       1.811  -3.808   2.171  0.00  0.00    +0.227 C 
ATOM      9  O   UNL     1       2.746  -4.334   2.763  0.00  0.00    -0.284 OA
ATOM     10  C   UNL     1       1.784  -2.412   2.001  0.00  0.00    +0.207 C 
ATOM     11  C   UNL     1       0.730  -1.825   1.341  0.00  0.00    +0.175 C 
ATOM     12  O   UNL     1       0.693  -0.480   1.164  0.00  0.00    -0.481 OA
ATOM     13  C   UNL     1       0.723  -0.511  -1.256  0.00  0.00    +0.056 C 
ENDROOT
BRANCH   7  14
ATOM     14  C   UNL     1       0.809  -6.100   1.845  0.00  0.00    -0.009 C 
ATOM     15  C   UNL     1      -0.433  -6.727   1.206  0.00  0.00    +0.015 C 
ATOM     16  C   UNL     1       2.065  -6.660   1.175  0.00  0.00    +0.015 C 
ATOM     17  C   UNL     1       0.837  -6.432   3.338  0.00  0.00    +0.015 C 
ENDBRANCH   7  14
BRANCH  10  18
ATOM     18  O   UNL     1       2.798  -1.645   2.490  0.00  0.00    -0.501 OA
ATOM     19  H   UNL     1       3.491  -2.148   2.938  0.00  0.00    +0.292 HD
ENDBRANCH  10  18
BRANCH   4  20
ATOM     20  N   UNL     1      -2.397  -2.793  -0.310  0.00  0.00    -0.270 N 
ATOM     21  H   UNL     1      -2.335  -3.761  -0.274  0.00  0.00    +0.170 HD
BRANCH  20  22
ATOM     22  N   UNL     1      -3.527  -2.184  -0.870  0.00  0.00    -0.267 N 
ATOM     23  H   UNL     1      -3.558  -1.220  -0.972  0.00  0.00    +0.170 HD
BRANCH  22  24
ATOM     24  C   UNL     1      -4.610  -2.965  -1.281  0.00  0.00    +0.044 A 
ATOM     25  C   UNL     1      -4.570  -4.345  -1.130  0.00  0.00    +0.025 A 
ATOM     26  C   UNL     1      -5.642  -5.114  -1.538  0.00  0.00    +0.014 A 
ATOM     27  C   UNL     1      -6.755  -4.511  -2.095  0.00  0.00    +0.055 A 
ATOM     28  C   UNL     1      -6.798  -3.137  -2.248  0.00  0.00    +0.014 A 
ATOM     29  C   UNL     1      -5.731  -2.362  -1.837  0.00  0.00    +0.025 A 
BRANCH  27  30
ATOM     30  C   UNL     1      -7.923  -5.353  -2.539  0.00  0.00    +0.417 C 
ATOM     31  F   UNL     1      -8.823  -5.498  -1.478  0.00  0.00    -0.166 F 
ATOM     32  F   UNL     1      -8.566  -4.730  -3.614  0.00  0.00    -0.166 F 
ATOM     33  F   UNL     1      -7.465  -6.614  -2.938  0.00  0.00    -0.166 F 
ENDBRANCH  27  30
ENDBRANCH  22  24
ENDBRANCH  20  22
ENDBRANCH   4  20
TORSDOF 6
