REMARK  Name = ZINC62715910
REMARK  9 active torsions:
REMARK  status: ('A' for Active; 'I' for Inactive)
REMARK    1  A    between atoms: C_1  and  C_2
REMARK    2  A    between atoms: C_5  and  C_8
REMARK    3  A    between atoms: C_8  and  O_9
REMARK    4  A    between atoms: O_9  and  C_10
REMARK    5  A    between atoms: C_15  and  C_16
REMARK    6  A    between atoms: C_17  and  C_18
REMARK    7  A    between atoms: N_20  and  N_21
REMARK    8  A    between atoms: N_21  and  C_22
REMARK    9  A    between atoms: C_22  and  N_24
REMARK                            x       y       z     vdW  Elec       q    Type
REMARK                         _______ _______ _______ _____ _____    ______ ____
ROOT
ATOM      1  C   UNL     1       1.608  -6.077  -0.040  0.00  0.00    +0.128 A 
ATOM      2  C   UNL     1       0.522  -6.938  -0.044  0.00  0.00    +0.047 A 
ATOM      3  C   UNL     1       0.721  -8.305  -0.053  0.00  0.00    +0.019 A 
ATOM      4  C   UNL     1       2.006  -8.827  -0.057  0.00  0.00    +0.019 A 
ATOM      5  C   UNL     1       3.098  -7.987  -0.052  0.00  0.00    +0.026 A 
ATOM      6  C   UNL     1       2.910  -6.600  -0.050  0.00  0.00    +0.018 A 
ATOM      7 BR   UNL     1       2.260 -10.701  -0.067  0.00  0.00    -0.050 Br
ENDROOT
BRANCH   6   8
ATOM      8  C   UNL     1       4.070  -5.697  -0.052  0.00  0.00    +0.016 C 
ATOM      9  C   UNL     1       5.321  -6.205  -0.062  0.00  0.00    +0.069 C 
BRANCH   9  10
ATOM     10  C   UNL     1       6.474  -5.306  -0.064  0.00  0.00    +0.253 C 
ATOM     11  O   UNL     1       6.307  -4.101  -0.057  0.00  0.00    -0.269 OA
ATOM     12  N   UNL     1       7.723  -5.813  -0.073  0.00  0.00    -0.232 N 
ATOM     13  H   UNL     1       7.857  -6.774  -0.079  0.00  0.00    +0.173 HD
BRANCH  12  14
ATOM     14  N   UNL     1       8.829  -4.952  -0.075  0.00  0.00    -0.246 N 
ATOM     15  H   UNL     1       8.695  -3.992  -0.070  0.00  0.00    +0.172 HD
BRANCH  14  16
ATOM     16  C   UNL     1      10.078  -5.459  -0.085  0.00  0.00    +0.144 C 
ATOM     17  S   UNL     1      11.428  -4.407  -0.087  0.00  0.00    -0.018 S 
BRANCH  16  18
ATOM     18  N   UNL     1      10.263  -6.794  -0.093  0.00  0.00    -0.340 N 
ATOM     19  H   UNL     1       9.498  -7.390  -0.091  0.00  0.00    +0.144 HD
ATOM     20  H   UNL     1      11.162  -7.159  -0.100  0.00  0.00    +0.144 HD
ENDBRANCH  16  18
ENDBRANCH  14  16
ENDBRANCH  12  14
ENDBRANCH   9  10
ENDBRANCH   6   8
BRANCH   1  21
ATOM     21  O   UNL     1       1.413  -4.734  -0.032  0.00  0.00    -0.487 OA
BRANCH  21  22
ATOM     22  C   UNL     1       0.059  -4.275  -0.021  0.00  0.00    +0.264 C 
BRANCH  22  27
ATOM     23  C   UNL     1      -0.018   1.503   0.010  0.00  0.00    +0.044 C 
ATOM     24  C   UNL     1       0.002  -0.004   0.002  0.00  0.00    -0.050 A 
ATOM     25  C   UNL     1       0.006  -0.689  -1.199  0.00  0.00    +0.004 A 
ATOM     26  C   UNL     1       0.025  -2.071  -1.206  0.00  0.00    +0.007 A 
ATOM     27  C   UNL     1       0.040  -2.768  -0.013  0.00  0.00    -0.010 A 
ATOM     28  C   UNL     1       0.037  -2.084   1.188  0.00  0.00    +0.007 A 
ATOM     29  C   UNL     1       0.023  -0.702   1.195  0.00  0.00    +0.004 A 
ENDBRANCH  22  27
ENDBRANCH  21  22
ENDBRANCH   1  21
TORSDOF 8
