REMARK  Name = ZINC34756749
REMARK  7 active torsions:
REMARK  status: ('A' for Active; 'I' for Inactive)
REMARK    1  A    between atoms: C_1  and  C_2
REMARK    2  A    between atoms: C_2  and  N_3
REMARK    3  A    between atoms: C_16  and  S_18
REMARK    4  A    between atoms: S_18  and  C_19
REMARK    5  A    between atoms: C_19  and  C_20
REMARK    6  A    between atoms: N_22  and  C_23
REMARK    7  A    between atoms: C_26  and  C_29
REMARK                            x       y       z     vdW  Elec       q    Type
REMARK                         _______ _______ _______ _____ _____    ______ ____
ROOT
ATOM      1  N   UNL     1       1.160   0.417  -2.035  0.00  0.00    +0.382 N 
ATOM      2  C   UNL     1       1.736   0.258  -3.377  0.00  0.00    -0.060 C 
ATOM      3  C   UNL     1       1.838  -1.233  -3.715  0.00  0.00    +0.088 C 
ATOM      4  N   UNL     1       2.595  -1.902  -2.646  0.00  0.00    -0.318 N 
ATOM      5  C   UNL     1       2.185  -1.666  -1.253  0.00  0.00    +0.088 C 
ATOM      6  C   UNL     1       2.067  -0.154  -1.032  0.00  0.00    -0.060 C 
ATOM      7  C   UNL     1       3.662  -2.731  -2.943  0.00  0.00    +0.134 A 
ATOM      8  C   UNL     1       3.473  -4.137  -3.050  0.00  0.00    +0.051 A 
ATOM      9  C   UNL     1       2.240  -4.910  -2.883  0.00  0.00    -0.025 A 
ATOM     10  C   UNL     1       2.329  -6.246  -3.038  0.00  0.00    -0.004 A 
ATOM     11  S   UNL     1       4.035  -6.555  -3.412  0.00  0.00    -0.073 S 
ATOM     12  C   UNL     1       4.627  -4.884  -3.357  0.00  0.00    +0.115 A 
ATOM     13  N   UNL     1       5.800  -4.305  -3.529  0.00  0.00    -0.214 NA
ATOM     14  C   UNL     1       5.918  -2.989  -3.417  0.00  0.00    +0.191 A 
ATOM     15  N   UNL     1       4.868  -2.225  -3.135  0.00  0.00    -0.206 NA
ATOM     16  C   UNL     1       1.223  -7.250  -2.920  0.00  0.00    +0.043 C 
ATOM     17  C   UNL     1       0.031  -6.578  -2.225  0.00  0.00    +0.005 C 
ATOM     18  C   UNL     1      -0.226  -5.223  -2.893  0.00  0.00    +0.005 C 
ATOM     19  C   UNL     1       0.904  -4.252  -2.547  0.00  0.00    +0.037 C 
ATOM     20  H   UNL     1       0.272  -0.060  -1.995  0.00  0.00    -0.082 HD
ENDROOT
BRANCH   1  22
ATOM     21  C   UNL     1      -0.079   2.414  -2.724  0.00  0.00    -0.017 C 
ATOM     22  C   UNL     1       0.961   1.845  -1.756  0.00  0.00    -0.082 C 
ENDBRANCH   1  22
BRANCH  14  23
ATOM     23  S   UNL     1       7.495  -2.238  -3.652  0.00  0.00    -0.077 S 
BRANCH  23  24
ATOM     24  C   UNL     1       8.595  -3.634  -4.014  0.00  0.00    +0.173 C 
BRANCH  24  25
ATOM     25  C   UNL     1       9.995  -3.125  -4.239  0.00  0.00    +0.227 C 
ATOM     26  O   UNL     1      10.228  -1.937  -4.163  0.00  0.00    -0.275 OA
ATOM     27  N   UNL     1      10.989  -3.989  -4.526  0.00  0.00    -0.285 N 
ATOM     28  H   UNL     1      10.790  -4.928  -4.664  0.00  0.00    +0.155 HD
BRANCH  27  29
ATOM     29  C   UNL     1      12.308  -3.532  -4.624  0.00  0.00    +0.033 A 
ATOM     30  C   UNL     1      13.175  -4.100  -5.548  0.00  0.00    +0.023 A 
ATOM     31  C   UNL     1      14.476  -3.647  -5.642  0.00  0.00    +0.005 A 
ATOM     32  C   UNL     1      14.915  -2.627  -4.817  0.00  0.00    -0.050 A 
ATOM     33  C   UNL     1      14.055  -2.059  -3.896  0.00  0.00    +0.005 A 
ATOM     34  C   UNL     1      12.751  -2.504  -3.801  0.00  0.00    +0.023 A 
ATOM     35  C   UNL     1      16.335  -2.134  -4.923  0.00  0.00    +0.044 C 
ENDBRANCH  27  29
ENDBRANCH  24  25
ENDBRANCH  23  24
ENDBRANCH  14  23
TORSDOF 5
