REMARK  Name = ZINC36595240
REMARK  9 active torsions:
REMARK  status: ('A' for Active; 'I' for Inactive)
REMARK    1  A    between atoms: C_1  and  C_2
REMARK    2  A    between atoms: C_5  and  C_7
REMARK    3  A    between atoms: C_7  and  N_8
REMARK    4  A    between atoms: N_8  and  C_9
REMARK    5  A    between atoms: C_9  and  C_11
REMARK    6  A    between atoms: C_9  and  C_17
REMARK    7  A    between atoms: N_19  and  C_20
REMARK    8  A    between atoms: C_26  and  C_28
REMARK    9  A    between atoms: C_33  and  O_34
REMARK                            x       y       z     vdW  Elec       q    Type
REMARK                         _______ _______ _______ _____ _____    ______ ____
ROOT
ATOM      1  N   UNL     1       1.339  -3.425  -1.479  0.00  0.00    -0.278 N 
ATOM      2  C   UNL     1       0.625  -4.168  -2.348  0.00  0.00    +0.251 C 
ATOM      3  O   UNL     1       0.015  -5.144  -1.954  0.00  0.00    -0.270 OA
ENDROOT
BRANCH   2   4
ATOM      4  C   UNL     1       0.583  -3.799  -3.775  0.00  0.00    +0.078 A 
ATOM      5  C   UNL     1       1.671  -3.151  -4.365  0.00  0.00    +0.017 A 
ATOM      6  C   UNL     1       1.626  -2.808  -5.699  0.00  0.00    +0.001 A 
ATOM      7  C   UNL     1       0.506  -3.104  -6.459  0.00  0.00    +0.004 A 
ATOM      8  C   UNL     1      -0.576  -3.744  -5.889  0.00  0.00    +0.046 A 
ATOM      9  C   UNL     1      -0.546  -4.101  -4.549  0.00  0.00    +0.129 A 
BRANCH   9  10
ATOM     10  O   UNL     1      -1.606  -4.734  -3.988  0.00  0.00    -0.506 OA
ATOM     11  H   UNL     1      -2.268  -4.137  -3.614  0.00  0.00    +0.292 HD
ENDBRANCH   9  10
ENDBRANCH   2   4
BRANCH   1  12
ATOM     12  C   UNL     1       0.975  -3.404  -0.060  0.00  0.00    +0.183 C 
BRANCH  12  17
ATOM     13  C   UNL     1      -1.362   0.962   0.895  0.00  0.00    +0.086 C 
ATOM     14  C   UNL     1      -1.135  -0.494   0.579  0.00  0.00    +0.102 A 
ATOM     15  C   UNL     1      -2.096  -1.416   0.386  0.00  0.00    +0.045 A 
ATOM     16  C   UNL     1      -1.441  -2.640   0.118  0.00  0.00    +0.046 A 
ATOM     17  C   UNL     1      -0.119  -2.393   0.164  0.00  0.00    +0.122 A 
ATOM     18  O   UNL     1       0.060  -1.090   0.438  0.00  0.00    -0.463 OA
ENDBRANCH  12  17
ENDBRANCH   1  12
BRANCH   1  19
ATOM     19  C   UNL     1       2.478  -2.636  -1.955  0.00  0.00    +0.166 C 
BRANCH  19  20
ATOM     20  C   UNL     1       3.272  -2.112  -0.756  0.00  0.00    +0.019 C 
ATOM     21  C   UNL     1       4.342  -1.133  -1.242  0.00  0.00    +0.006 C 
ATOM     22  C   UNL     1       5.135  -0.609  -0.043  0.00  0.00    +0.000 C 
ATOM     23  C   UNL     1       5.806  -1.781   0.677  0.00  0.00    +0.000 C 
ATOM     24  C   UNL     1       4.735  -2.761   1.162  0.00  0.00    +0.000 C 
ATOM     25  C   UNL     1       3.942  -3.284  -0.036  0.00  0.00    +0.006 C 
ENDBRANCH  19  20
BRANCH  19  26
ATOM     26  C   UNL     1       1.978  -1.474  -2.773  0.00  0.00    +0.234 C 
ATOM     27  O   UNL     1       0.841  -1.078  -2.633  0.00  0.00    -0.274 OA
ATOM     28  N   UNL     1       2.796  -0.874  -3.661  0.00  0.00    -0.311 N 
ATOM     29  H   UNL     1       3.678  -1.240  -3.833  0.00  0.00    +0.149 HD
BRANCH  28  30
ATOM     30  C   UNL     1       2.353   0.331  -4.367  0.00  0.00    +0.073 C 
ATOM     31  C   UNL     1       1.545  -0.070  -5.603  0.00  0.00    +0.022 C 
ATOM     32  C   UNL     1       1.082   1.188  -6.340  0.00  0.00    +0.002 C 
ATOM     33  C   UNL     1       2.303   2.005  -6.771  0.00  0.00    +0.000 C 
ATOM     34  C   UNL     1       3.110   2.406  -5.535  0.00  0.00    +0.002 C 
ATOM     35  C   UNL     1       3.573   1.147  -4.798  0.00  0.00    +0.022 C 
ENDBRANCH  28  30
ENDBRANCH  19  26
ENDBRANCH   1  19
TORSDOF 8
