REMARK  Name = ZINC04008413
REMARK  8 active torsions:
REMARK  status: ('A' for Active; 'I' for Inactive)
REMARK    1  A    between atoms: C_1  and  C_2
REMARK    2  A    between atoms: C_5  and  O_37
REMARK    3  A    between atoms: C_7  and  C_10
REMARK    4  A    between atoms: C_10  and  C_12
REMARK    5  A    between atoms: C_10  and  C_13
REMARK    6  A    between atoms: C_14  and  C_36
REMARK    7  A    between atoms: C_25  and  C_35
REMARK    8  A    between atoms: C_28  and  O_34
REMARK                            x       y       z     vdW  Elec       q    Type
REMARK                         _______ _______ _______ _____ _____    ______ ____
ROOT
ATOM      1  C   UNL     1       2.800   0.971   1.257  0.00  0.00    -0.068 C 
ATOM      2  C   UNL     1       2.236   1.583   0.211  0.00  0.00    -0.062 C 
ATOM      3  C   UNL     1       0.779   1.251   0.050  0.00  0.00    +0.093 C 
ATOM      4  C   UNL     1       0.758  -0.308   0.124  0.00  0.00    +0.031 C 
ATOM      5  C   UNL     1       0.888  -0.688   1.573  0.00  0.00    +0.013 C 
ATOM      6  C   UNL     1       2.064   0.068   2.195  0.00  0.00    +0.031 C 
ATOM      7  C   UNL     1      -0.452  -0.675  -0.640  0.00  0.00    -0.054 C 
ATOM      8  C   UNL     1      -0.768   0.351  -1.467  0.00  0.00    +0.005 C 
ATOM      9  C   UNL     1       0.191   1.455  -1.322  0.00  0.00    +0.168 C 
ATOM     10  O   UNL     1       0.450   2.329  -2.122  0.00  0.00    -0.292 OA
ATOM     11  C   UNL     1      -1.961   0.282  -2.381  0.00  0.00    +0.017 C 
ATOM     12  C   UNL     1      -2.438   1.666  -2.750  0.00  0.00    +0.018 C 
ATOM     13  C   UNL     1      -3.808   1.659  -3.393  0.00  0.00    +0.033 C 
ATOM     14  C   UNL     1      -4.854   1.000  -2.527  0.00  0.00    +0.119 C 
ATOM     15  C   UNL     1      -4.484  -0.374  -2.037  0.00  0.00    +0.062 C 
ATOM     16  C   UNL     1      -3.022  -0.583  -1.779  0.00  0.00    -0.060 C 
ATOM     17  C   UNL     1      -2.703  -1.579  -0.976  0.00  0.00    -0.022 C 
ATOM     18  C   UNL     1      -1.288  -1.929  -0.608  0.00  0.00    +0.058 C 
ATOM     19  C   UNL     1      -1.486  -0.399  -3.667  0.00  0.00    +0.021 C 
ATOM     20  C   UNL     1       2.973   2.524  -0.706  0.00  0.00    +0.040 C 
ENDROOT
BRANCH   1  21
ATOM     21  C   UNL     1       4.270   1.197   1.497  0.00  0.00    +0.000 C 
ATOM     22  C   UNL     1       5.001  -0.147   1.491  0.00  0.00    +0.010 C 
BRANCH  21  27
ATOM     23  C   UNL     1       5.929   5.046   3.359  0.00  0.00    +0.005 C 
ATOM     24  C   UNL     1       5.371   4.123   4.444  0.00  0.00    -0.029 C 
ATOM     25  C   UNL     1       6.151   2.806   4.447  0.00  0.00    +0.031 C 
ATOM     26  C   UNL     1       5.960   2.107   3.098  0.00  0.00    +0.101 C 
ATOM     27  C   UNL     1       4.467   1.878   2.853  0.00  0.00    -0.036 C 
ATOM     28  C   UNL     1       3.894   3.837   4.161  0.00  0.00    -0.079 C 
ATOM     29  N   UNL     1       3.759   3.173   2.850  0.00  0.00    +0.383 N 
ATOM     30  H   UNL     1       2.764   3.014   2.653  0.00  0.00    -0.085 HD
ATOM     31  H   UNL     1       4.161   3.776   2.123  0.00  0.00    -0.085 HD
BRANCH  26  32
ATOM     32  O   UNL     1       6.494   2.926   2.056  0.00  0.00    -0.393 OA
ATOM     33  H   UNL     1       7.438   3.112   2.147  0.00  0.00    +0.210 HD
ENDBRANCH  26  32
ENDBRANCH  21  27
ENDBRANCH   1  21
BRANCH  14  34
ATOM     34  O   UNL     1      -5.091   1.836  -1.393  0.00  0.00    -0.391 OA
ATOM     35  H   UNL     1      -5.805   1.526  -0.819  0.00  0.00    +0.210 HD
ENDBRANCH  14  34
TORSDOF 4
