REMARK  Name = ZINC09599910
REMARK  5 active torsions:
REMARK  status: ('A' for Active; 'I' for Inactive)
REMARK    1  A    between atoms: C_6  and  N_7
REMARK    2  A    between atoms: C_8  and  C_10
REMARK    3  A    between atoms: C_10  and  S_11
REMARK    4  A    between atoms: S_11  and  C_12
REMARK    5  A    between atoms: C_18  and  C_20
REMARK                            x       y       z     vdW  Elec       q    Type
REMARK                         _______ _______ _______ _____ _____    ______ ____
ROOT
ATOM      1  C   UNL     1       6.256  -5.229   0.356  0.00  0.00    +0.160 A 
ATOM      2  N   UNL     1       7.444  -4.643   0.354  0.00  0.00    -0.133 NA
ATOM      3  N   UNL     1       8.515  -5.305   0.434  0.00  0.00    -0.125 NA
ATOM      4  C   UNL     1       8.518  -6.625   0.525  0.00  0.00    +0.189 A 
ATOM      5  S   UNL     1       6.756  -6.942   0.498  0.00  0.00    -0.024 S 
ATOM      6  N   UNL     1       9.586  -7.513   0.621  0.00  0.00    -0.263 N 
ATOM      7  C   UNL     1      10.851  -7.047   0.629  0.00  0.00    +0.225 C 
ATOM      8  O   UNL     1      11.059  -5.854   0.553  0.00  0.00    -0.275 OA
ATOM      9  H   UNL     1       9.421  -8.466   0.681  0.00  0.00    +0.157 HD
ENDROOT
BRANCH   7  10
ATOM     10  C   UNL     1      12.007  -8.008   0.732  0.00  0.00    +0.048 C 
ATOM     11  C   UNL     1      11.976  -8.973  -0.455  0.00  0.00    +0.019 C 
ATOM     12  C   UNL     1      13.150  -9.949  -0.350  0.00  0.00    -0.009 C 
ATOM     13  C   UNL     1      14.466  -9.167  -0.362  0.00  0.00    +0.007 C 
ATOM     14  C   UNL     1      14.497  -8.203   0.826  0.00  0.00    -0.009 C 
ATOM     15  C   UNL     1      13.323  -7.227   0.720  0.00  0.00    +0.019 C 
ATOM     16  C   UNL     1      14.386  -8.995   2.130  0.00  0.00    +0.007 C 
ATOM     17  C   UNL     1      13.070  -9.776   2.142  0.00  0.00    -0.009 C 
ATOM     18  C   UNL     1      13.040 -10.741   0.955  0.00  0.00    +0.007 C 
ATOM     19  C   UNL     1      11.897  -8.800   2.037  0.00  0.00    +0.019 C 
ENDBRANCH   7  10
BRANCH   1  20
ATOM     20  S   UNL     1       4.645  -4.524   0.255  0.00  0.00    -0.088 S 
BRANCH  20  21
ATOM     21  C   UNL     1       4.953  -2.740   0.141  0.00  0.00    +0.172 C 
BRANCH  21  23
ATOM     22  N   UNL     1       3.621  -0.663  -0.045  0.00  0.00    -0.285 N 
ATOM     23  C   UNL     1       3.639  -2.008   0.048  0.00  0.00    +0.227 C 
ATOM     24  O   UNL     1       2.597  -2.629   0.058  0.00  0.00    -0.275 OA
ATOM     25  H   UNL     1       4.454  -0.172  -0.130  0.00  0.00    +0.155 HD
BRANCH  22  31
ATOM     26  C   UNL     1       1.346  -0.460   0.740  0.00  0.00    +0.027 A 
ATOM     27  C   UNL     1       0.142   0.217   0.764  0.00  0.00    +0.051 A 
ATOM     28  C   UNL     1      -0.016   1.383   0.030  0.00  0.00    +0.162 A 
ATOM     29  C   UNL     1       1.040   1.873  -0.731  0.00  0.00    +0.164 A 
ATOM     30  C   UNL     1       2.247   1.192  -0.756  0.00  0.00    +0.072 A 
ATOM     31  C   UNL     1       2.401   0.025  -0.021  0.00  0.00    +0.037 A 
ATOM     32  O   UNL     1       0.907   3.020  -1.451  0.00  0.00    -0.485 OA
ATOM     33  C   UNL     1      -0.429   3.473  -1.700  0.00  0.00    +0.270 C 
ATOM     34  C   UNL     1      -1.215   3.395  -0.384  0.00  0.00    +0.270 C 
ATOM     35  O   UNL     1      -1.213   2.033   0.059  0.00  0.00    -0.485 OA
ENDBRANCH  22  31
ENDBRANCH  21  23
ENDBRANCH  20  21
ENDBRANCH   1  20
TORSDOF 5
