REMARK  Name = ZINC63427974
REMARK  7 active torsions:
REMARK  status: ('A' for Active; 'I' for Inactive)
REMARK    1  A    between atoms: C_1  and  C_2
REMARK    2  A    between atoms: C_5  and  N_9
REMARK    3  A    between atoms: C_6  and  C_8
REMARK    4  A    between atoms: C_10  and  C_12
REMARK    5  A    between atoms: C_12  and  C_24
REMARK    6  A    between atoms: C_13  and  C_14
REMARK    7  A    between atoms: C_17  and  C_19
REMARK                            x       y       z     vdW  Elec       q    Type
REMARK                         _______ _______ _______ _____ _____    ______ ____
ROOT
ATOM      1  C   UNL     1      -0.137  -6.302  -1.215  0.00  0.00    +0.116 C 
ATOM      2  C   UNL     1      -1.358  -6.920  -1.025  0.00  0.00    +0.052 C 
ENDROOT
BRANCH   2   3
ATOM      3  C   UNL     1      -2.511  -6.142  -0.753  0.00  0.00    +0.073 A 
ATOM      4  C   UNL     1      -3.729  -6.749  -0.480  0.00  0.00    +0.075 A 
ATOM      5  S   UNL     1      -4.746  -5.432  -0.233  0.00  0.00    -0.072 S 
ATOM      6  C   UNL     1      -3.555  -4.130  -0.492  0.00  0.00    +0.144 A 
ATOM      7  N   UNL     1      -2.450  -4.810  -0.747  0.00  0.00    -0.236 NA
BRANCH   6   8
ATOM      8  C   UNL     1      -3.751  -2.673  -0.432  0.00  0.00    +0.160 A 
ATOM      9  C   UNL     1      -4.921  -2.034  -0.152  0.00  0.00    +0.052 A 
ATOM     10  C   UNL     1      -4.650  -0.654  -0.201  0.00  0.00    +0.042 A 
ATOM     11  C   UNL     1      -3.343  -0.517  -0.506  0.00  0.00    +0.196 A 
ATOM     12  O   UNL     1      -2.802  -1.738  -0.640  0.00  0.00    -0.461 OA
ENDBRANCH   6   8
ENDBRANCH   2   3
BRANCH   1  14
ATOM     13  N   UNL     1       0.167  -4.377   0.254  0.00  0.00    -0.281 N 
ATOM     14  C   UNL     1      -0.004  -4.856  -0.995  0.00  0.00    +0.259 C 
ATOM     15  O   UNL     1      -0.047  -4.090  -1.940  0.00  0.00    -0.269 OA
ATOM     16  H   UNL     1       0.274  -4.989   0.998  0.00  0.00    +0.155 HD
BRANCH  13  21
ATOM     17  C   UNL     1       0.256   1.223   1.155  0.00  0.00    +0.044 C 
ATOM     18  C   UNL     1       0.233  -0.265   0.915  0.00  0.00    -0.050 A 
ATOM     19  C   UNL     1       0.661  -0.775  -0.297  0.00  0.00    +0.005 A 
ATOM     20  C   UNL     1       0.640  -2.138  -0.519  0.00  0.00    +0.024 A 
ATOM     21  C   UNL     1       0.189  -2.996   0.476  0.00  0.00    +0.037 A 
ATOM     22  C   UNL     1      -0.240  -2.480   1.692  0.00  0.00    -0.029 A 
ATOM     23  C   UNL     1      -0.212  -1.116   1.910  0.00  0.00    +0.008 A 
ATOM     24  C   UNL     1      -0.730  -3.407   2.774  0.00  0.00    +0.045 C 
ENDBRANCH  13  21
ENDBRANCH   1  14
BRANCH   1  25
ATOM     25  C   UNL     1       0.999  -7.071  -1.626  0.00  0.00    +0.104 C 
ATOM     26  N   UNL     1       1.900  -7.681  -1.952  0.00  0.00    -0.191 NA
ENDBRANCH   1  25
TORSDOF 5
