REMARK  Name = ZINC50710448
REMARK  8 active torsions:
REMARK  status: ('A' for Active; 'I' for Inactive)
REMARK    1  A    between atoms: C_1  and  C_2
REMARK    2  A    between atoms: C_5  and  N_8
REMARK    3  A    between atoms: N_8  and  C_9
REMARK    4  A    between atoms: C_10  and  C_12
REMARK    5  A    between atoms: C_13  and  N_21
REMARK    6  A    between atoms: C_16  and  C_18
REMARK    7  A    between atoms: C_18  and  C_19
REMARK    8  A    between atoms: C_18  and  C_20
REMARK                            x       y       z     vdW  Elec       q    Type
REMARK                         _______ _______ _______ _____ _____    ______ ____
ROOT
ATOM      1  C   UNL     1      -2.698  -2.438   4.424  0.00  0.00    +0.150 A 
ATOM      2  C   UNL     1      -2.222  -2.599   5.734  0.00  0.00    +0.074 A 
ATOM      3  C   UNL     1      -2.996  -2.092   6.782  0.00  0.00    +0.137 A 
ATOM      4  N   UNL     1      -4.134  -1.485   6.502  0.00  0.00    -0.238 NA
ATOM      5  C   UNL     1      -4.548  -1.351   5.256  0.00  0.00    +0.132 A 
ATOM      6  N   UNL     1      -3.856  -1.806   4.236  0.00  0.00    -0.225 NA
ENDROOT
BRANCH   1   9
ATOM      7  N   UNL     1      -1.245  -2.099   2.481  0.00  0.00    -0.296 N 
ATOM      8  C   UNL     1      -1.175  -0.677   2.827  0.00  0.00    +0.132 C 
ATOM      9  C   UNL     1      -1.924  -2.953   3.272  0.00  0.00    +0.267 C 
ATOM     10  O   UNL     1      -1.902  -4.145   3.040  0.00  0.00    -0.268 OA
BRANCH   7  15
ATOM     11  C   UNL     1      -3.113  -0.073  -1.163  0.00  0.00    +0.007 C 
ATOM     12  C   UNL     1      -2.035  -1.085  -0.770  0.00  0.00    -0.014 C 
ATOM     13  C   UNL     1      -2.681  -2.257  -0.029  0.00  0.00    +0.005 C 
ATOM     14  C   UNL     1      -1.603  -3.269   0.363  0.00  0.00    +0.023 C 
ATOM     15  C   UNL     1      -0.576  -2.593   1.275  0.00  0.00    +0.076 C 
ATOM     16  C   UNL     1       0.070  -1.421   0.533  0.00  0.00    +0.023 C 
ATOM     17  C   UNL     1      -1.008  -0.409   0.141  0.00  0.00    +0.005 C 
ENDBRANCH   7  15
ENDBRANCH   1   9
BRANCH   5  18
ATOM     18  C   UNL     1      -5.856  -0.650   4.995  0.00  0.00    +0.051 C 
ATOM     19  C   UNL     1      -6.988  -1.401   5.698  0.00  0.00    +0.015 C 
ATOM     20  C   UNL     1      -5.783   0.781   5.531  0.00  0.00    +0.015 C 
ENDBRANCH   5  18
BRANCH   2  21
ATOM     21  N   UNL     1      -1.019  -3.246   5.983  0.00  0.00    -0.355 N 
ATOM     22  H   UNL     1      -0.458  -3.528   5.244  0.00  0.00    +0.142 HD
ATOM     23  H   UNL     1      -0.738  -3.415   6.896  0.00  0.00    +0.142 HD
ENDBRANCH   2  21
TORSDOF 4
