REMARK  Name = ZINC16225972
REMARK  10 active torsions:
REMARK  status: ('A' for Active; 'I' for Inactive)
REMARK    1  A    between atoms: C_1  and  C_2
REMARK    2  A    between atoms: N_6  and  C_14
REMARK    3  A    between atoms: C_14  and  C_15
REMARK    4  A    between atoms: C_15  and  C_16
REMARK    5  A    between atoms: N_18  and  N_19
REMARK    6  A    between atoms: C_20  and  C_22
REMARK    7  A    between atoms: C_22  and  O_23
REMARK    8  A    between atoms: O_23  and  C_24
REMARK    9  A    between atoms: C_27  and  C_30
REMARK   10  A    between atoms: C_33  and  C_36
REMARK                            x       y       z     vdW  Elec       q    Type
REMARK                         _______ _______ _______ _____ _____    ______ ____
ROOT
ATOM      1  N   UNL     1      -0.242   1.246   2.466  0.00  0.00    -0.232 N 
ATOM      2  C   UNL     1      -0.718   1.572   1.248  0.00  0.00    +0.267 C 
ATOM      3  O   UNL     1      -1.714   2.256   1.150  0.00  0.00    -0.271 OA
ATOM      4  H   UNL     1       0.555   0.699   2.544  0.00  0.00    +0.173 HD
ENDROOT
BRANCH   1   7
ATOM      5  C   UNL     1      -0.421   1.372   4.836  0.00  0.00    +0.231 C 
ATOM      6  O   UNL     1       0.576   0.688   4.934  0.00  0.00    -0.274 OA
ATOM      7  N   UNL     1      -0.897   1.698   3.618  0.00  0.00    -0.234 N 
ATOM      8  H   UNL     1      -1.694   2.245   3.540  0.00  0.00    +0.173 HD
BRANCH   5   9
ATOM      9  C   UNL     1      -1.126   1.858   6.076  0.00  0.00    +0.116 C 
BRANCH   9  10
ATOM     10  C   UNL     1      -0.386   1.351   7.316  0.00  0.00    +0.123 C 
BRANCH  10  15
ATOM     11  C   UNL     1      -1.445   4.985  10.396  0.00  0.00    +0.062 C 
ATOM     12  C   UNL     1      -1.425   3.456  10.346  0.00  0.00    +0.256 C 
ATOM     13  C   UNL     1      -0.730   3.001   9.087  0.00  0.00    +0.260 C 
ATOM     14  O   UNL     1       0.129   3.693   8.583  0.00  0.00    -0.271 OA
ATOM     15  N   UNL     1      -1.072   1.823   8.521  0.00  0.00    -0.265 N 
ATOM     16  C   UNL     1      -2.089   1.057   9.108  0.00  0.00    +0.078 A 
ATOM     17  C   UNL     1      -2.254  -0.276   8.772  0.00  0.00    +0.027 A 
ATOM     18  C   UNL     1      -3.265  -1.014   9.362  0.00  0.00    +0.002 A 
ATOM     19  C   UNL     1      -4.109  -0.423  10.284  0.00  0.00    +0.004 A 
ATOM     20  C   UNL     1      -3.949   0.908  10.624  0.00  0.00    +0.047 A 
ATOM     21  C   UNL     1      -2.940   1.652  10.039  0.00  0.00    +0.143 A 
ATOM     22  O   UNL     1      -2.767   2.961  10.362  0.00  0.00    -0.478 OA
ENDBRANCH  10  15
ENDBRANCH   9  10
ENDBRANCH   5   9
ENDBRANCH   1   7
BRANCH   2  23
ATOM     23  C   UNL     1      -0.013   1.086   0.008  0.00  0.00    +0.326 C 
BRANCH  23  24
ATOM     24  O   UNL     1      -0.704   1.559  -1.150  0.00  0.00    -0.483 OA
BRANCH  24  25
ATOM     25  C   UNL     1      -0.194   1.208  -2.359  0.00  0.00    +0.121 A 
ATOM     26  C   UNL     1       0.952   0.427  -2.427  0.00  0.00    +0.046 A 
ATOM     27  C   UNL     1       1.469   0.065  -3.653  0.00  0.00    +0.012 A 
ATOM     28  C   UNL     1       0.846   0.492  -4.825  0.00  0.00    -0.018 A 
ATOM     29  C   UNL     1      -0.302   1.280  -4.753  0.00  0.00    +0.012 A 
ATOM     30  C   UNL     1      -0.818   1.635  -3.524  0.00  0.00    +0.046 A 
BRANCH  28  31
ATOM     31  C   UNL     1       1.403   0.110  -6.144  0.00  0.00    -0.018 A 
ATOM     32  C   UNL     1       0.774   0.534  -7.316  0.00  0.00    +0.010 A 
ATOM     33  C   UNL     1       1.294   0.185  -8.541  0.00  0.00    +0.019 A 
ATOM     34  C   UNL     1       2.444  -0.606  -8.612  0.00  0.00    +0.052 A 
ATOM     35  C   UNL     1       3.069  -1.035  -7.438  0.00  0.00    +0.019 A 
ATOM     36  C   UNL     1       2.552  -0.679  -6.214  0.00  0.00    +0.010 A 
BRANCH  34  37
ATOM     37  C   UNL     1       2.982  -0.976  -9.887  0.00  0.00    +0.099 C 
ATOM     38  N   UNL     1       3.408  -1.270 -10.898  0.00  0.00    -0.191 NA
ENDBRANCH  34  37
ENDBRANCH  28  31
ENDBRANCH  24  25
ENDBRANCH  23  24
ENDBRANCH   2  23
TORSDOF 9
