REMARK  Name = ZINC15036609
REMARK  10 active torsions:
REMARK  status: ('A' for Active; 'I' for Inactive)
REMARK    1  A    between atoms: C_1  and  O_2
REMARK    2  A    between atoms: O_2  and  C_3
REMARK    3  A    between atoms: C_5  and  C_13
REMARK    4  A    between atoms: C_8  and  O_9
REMARK    5  A    between atoms: O_9  and  C_10
REMARK    6  A    between atoms: C_13  and  N_14
REMARK    7  A    between atoms: N_14  and  C_15
REMARK    8  A    between atoms: N_14  and  C_33
REMARK    9  A    between atoms: C_15  and  C_16
REMARK   10  A    between atoms: C_23  and  C_27
REMARK                            x       y       z     vdW  Elec       q    Type
REMARK                         _______ _______ _______ _____ _____    ______ ____
ROOT
ATOM      1  N   UNL     1       1.498   0.572   5.269  0.00  0.00    +0.389 N 
ATOM      2  H   UNL     1       0.748   1.034   4.777  0.00  0.00    -0.080 HD
ENDROOT
BRANCH   1   3
ATOM      3  C   UNL     1       0.983  -0.642   5.917  0.00  0.00    -0.068 C 
ATOM      4  C   UNL     1      -0.399  -1.140   5.488  0.00  0.00    -0.017 C 
ATOM      5  C   UNL     1      -0.212  -0.487   6.859  0.00  0.00    -0.017 C 
ENDBRANCH   1   3
BRANCH   1   6
ATOM      6  C   UNL     1       2.556   0.208   4.317  0.00  0.00    -0.042 C 
BRANCH   6   9
ATOM      7  C   UNL     1       0.938  -0.759   1.044  0.00  0.00    +0.162 A 
ATOM      8  C   UNL     1       1.479  -0.000   2.068  0.00  0.00    +0.051 A 
ATOM      9  C   UNL     1       1.968  -0.620   3.204  0.00  0.00    -0.060 A 
ATOM     10  C   UNL     1       1.918  -1.996   3.319  0.00  0.00    +0.005 A 
ATOM     11  C   UNL     1       1.379  -2.760   2.300  0.00  0.00    +0.050 A 
ATOM     12  C   UNL     1       0.882  -2.145   1.162  0.00  0.00    +0.168 A 
BRANCH   7  14
ATOM     13  C   UNL     1       0.546   1.274  -0.127  0.00  0.00    +0.277 C 
ATOM     14  O   UNL     1       0.456  -0.152  -0.074  0.00  0.00    -0.491 OA
ENDBRANCH   7  14
BRANCH  12  15
ATOM     15  O   UNL     1       0.347  -2.894   0.162  0.00  0.00    -0.431 OA
BRANCH  15  16
ATOM     16  C   UNL     1       0.323  -4.310   0.352  0.00  0.00    +0.541 C 
ATOM     17  F   UNL     1       1.631  -4.780   0.516  0.00  0.00    -0.166 F 
ATOM     18  F   UNL     1      -0.428  -4.614   1.493  0.00  0.00    -0.166 F 
ENDBRANCH  15  16
ENDBRANCH  12  15
ENDBRANCH   6   9
ENDBRANCH   1   6
BRANCH   1  19
ATOM     19  C   UNL     1       2.046   1.476   6.289  0.00  0.00    -0.002 C 
BRANCH  19  20
ATOM     20  C   UNL     1       2.420   2.787   5.648  0.00  0.00    +0.094 A 
ATOM     21  N   UNL     1       3.067   3.728   6.383  0.00  0.00    -0.312 N 
ATOM     22  H   UNL     1       3.280   3.542   7.311  0.00  0.00    +0.170 HD
ATOM     23  C   UNL     1       3.420   4.913   5.851  0.00  0.00    +0.260 A 
ATOM     24  O   UNL     1       4.001   5.745   6.526  0.00  0.00    -0.267 OA
ATOM     25  C   UNL     1       3.103   5.181   4.477  0.00  0.00    +0.073 A 
ATOM     26  C   UNL     1       3.370   6.332   3.719  0.00  0.00    +0.031 A 
ATOM     27  C   UNL     1       2.984   6.389   2.418  0.00  0.00    +0.022 A 
ATOM     28  S   UNL     1       2.205   4.804   2.166  0.00  0.00    -0.068 S 
ATOM     29  C   UNL     1       2.431   4.144   3.799  0.00  0.00    +0.116 A 
ATOM     30  N   UNL     1       2.121   2.998   4.393  0.00  0.00    -0.229 NA
BRANCH  27  31
ATOM     31  C   UNL     1       3.164   7.493   1.451  0.00  0.00    -0.011 A 
ATOM     32  C   UNL     1       3.811   8.667   1.840  0.00  0.00    +0.009 A 
ATOM     33  C   UNL     1       3.976   9.693   0.932  0.00  0.00    +0.001 A 
ATOM     34  C   UNL     1       3.502   9.559  -0.361  0.00  0.00    +0.000 A 
ATOM     35  C   UNL     1       2.860   8.398  -0.752  0.00  0.00    +0.001 A 
ATOM     36  C   UNL     1       2.693   7.362   0.144  0.00  0.00    +0.009 A 
ENDBRANCH  27  31
ENDBRANCH  19  20
ENDBRANCH   1  19
TORSDOF 9
