REMARK  Name = ZINC13735015
REMARK  11 active torsions:
REMARK  status: ('A' for Active; 'I' for Inactive)
REMARK    1  A    between atoms: C_1  and  C_2
REMARK    2  A    between atoms: C_2  and  N_3
REMARK    3  A    between atoms: N_3  and  C_4
REMARK    4  A    between atoms: C_4  and  C_5
REMARK    5  A    between atoms: C_5  and  C_6
REMARK    6  A    between atoms: C_6  and  N_7
REMARK    7  A    between atoms: N_7  and  C_8
REMARK    8  A    between atoms: C_8  and  C_9
REMARK    9  A    between atoms: C_14  and  O_15
REMARK   10  A    between atoms: O_15  and  C_16
REMARK   11  A    between atoms: C_16  and  C_17
REMARK                            x       y       z     vdW  Elec       q    Type
REMARK                         _______ _______ _______ _____ _____    ______ ____
ROOT
ATOM      1  C   UNL     1       2.884  -6.359  -4.984  0.00  0.00    +0.009 A 
ATOM      2  C   UNL     1       2.156  -6.768  -6.084  0.00  0.00    +0.028 A 
ATOM      3  C   UNL     1       2.808  -7.180  -7.233  0.00  0.00    +0.041 A 
ATOM      4  C   UNL     1       4.191  -7.182  -7.282  0.00  0.00    +0.023 A 
ATOM      5  C   UNL     1       4.923  -6.774  -6.184  0.00  0.00    +0.047 A 
ATOM      6  C   UNL     1       4.271  -6.356  -5.033  0.00  0.00    +0.125 A 
ATOM      7 CL   UNL     1       1.891  -7.694  -8.614  0.00  0.00    -0.084 Cl
ENDROOT
BRANCH   1   8
ATOM      8  C   UNL     1       2.173  -5.912  -3.733  0.00  0.00    +0.120 C 
BRANCH   8   9
ATOM      9  N   UNL     1       2.134  -4.444  -3.691  0.00  0.00    -0.312 NA
ATOM     10  H   UNL     1       1.702  -4.069  -4.522  0.00  0.00    +0.122 HD
BRANCH   9  11
ATOM     11  C   UNL     1       1.446  -3.970  -2.482  0.00  0.00    +0.079 C 
BRANCH  11  12
ATOM     12  C   UNL     1       1.426  -2.440  -2.474  0.00  0.00    -0.004 C 
BRANCH  12  13
ATOM     13  C   UNL     1       0.710  -1.947  -1.215  0.00  0.00    -0.081 C 
BRANCH  13  14
ATOM     14  N   UNL     1       0.690  -0.478  -1.207  0.00  0.00    +0.379 N 
ATOM     15  H   UNL     1       0.202  -0.144  -2.024  0.00  0.00    -0.086 HD
ATOM     16  H   UNL     1       1.636  -0.129  -1.214  0.00  0.00    -0.086 HD
BRANCH  14  18
ATOM     17  C   UNL     1      -0.019   1.526   0.010  0.00  0.00    -0.017 C 
ATOM     18  C   UNL     1       0.002  -0.004   0.002  0.00  0.00    -0.086 C 
ENDBRANCH  14  18
ENDBRANCH  13  14
ENDBRANCH  12  13
ENDBRANCH  11  12
ENDBRANCH   9  11
ENDBRANCH   8   9
ENDBRANCH   1   8
BRANCH   6  19
ATOM     19  O   UNL     1       4.989  -5.948  -3.953  0.00  0.00    -0.487 OA
BRANCH  19  20
ATOM     20  C   UNL     1       6.412  -5.970  -4.075  0.00  0.00    +0.266 C 
BRANCH  20  21
ATOM     21  C   UNL     1       7.034  -5.488  -2.790  0.00  0.00    +0.008 A 
ATOM     22  C   UNL     1       6.229  -5.117  -1.729  0.00  0.00    +0.010 A 
ATOM     23  C   UNL     1       6.798  -4.675  -0.550  0.00  0.00    +0.020 A 
ATOM     24  C   UNL     1       8.175  -4.604  -0.430  0.00  0.00    +0.042 A 
ATOM     25  C   UNL     1       8.981  -4.975  -1.491  0.00  0.00    +0.040 A 
ATOM     26  C   UNL     1       8.411  -5.422  -2.670  0.00  0.00    +0.049 A 
ATOM     27 CL   UNL     1       9.422  -5.894  -3.999  0.00  0.00    -0.083 Cl
ATOM     28 CL   UNL     1       8.890  -4.048   1.050  0.00  0.00    -0.083 Cl
ENDBRANCH  20  21
ENDBRANCH  19  20
ENDBRANCH   6  19
TORSDOF 10
