REMARK  Name = ZINC15797179
REMARK  4 active torsions:
REMARK  status: ('A' for Active; 'I' for Inactive)
REMARK    1  A    between atoms: C_1  and  C_2
REMARK    2  A    between atoms: C_8  and  N_10
REMARK    3  A    between atoms: C_11  and  C_13
REMARK    4  A    between atoms: C_14  and  C_15
REMARK                            x       y       z     vdW  Elec       q    Type
REMARK                         _______ _______ _______ _____ _____    ______ ____
ROOT
ATOM      1  N   UNL     1       4.864   5.015  -0.019  0.00  0.00    -0.309 N 
ATOM      2  C   UNL     1       3.542   4.753  -0.008  0.00  0.00    +0.237 C 
ATOM      3  O   UNL     1       2.739   5.669   0.004  0.00  0.00    -0.271 OA
ATOM      4  H   UNL     1       5.503   4.286  -0.028  0.00  0.00    +0.149 HD
ENDROOT
BRANCH   1  11
ATOM      5  C   UNL     1       6.673   5.951  -2.078  0.00  0.00    +0.009 C 
ATOM      6  C   UNL     1       6.731   6.467  -0.639  0.00  0.00    +0.006 C 
ATOM      7  C   UNL     1       7.224   7.916  -0.637  0.00  0.00    +0.005 C 
ATOM      8  C   UNL     1       7.282   8.433   0.802  0.00  0.00    +0.000 C 
ATOM      9  C   UNL     1       5.886   8.368   1.424  0.00  0.00    +0.002 C 
ATOM     10  C   UNL     1       5.394   6.919   1.422  0.00  0.00    +0.022 C 
ATOM     11  C   UNL     1       5.335   6.402  -0.017  0.00  0.00    +0.076 C 
ENDBRANCH   1  11
BRANCH   2  12
ATOM     12  C   UNL     1       3.087   3.413  -0.010  0.00  0.00    +0.071 C 
ATOM     13  C   UNL     1       1.756   3.149   0.001  0.00  0.00    +0.051 C 
BRANCH  13  14
ATOM     14  C   UNL     1       1.300   1.809  -0.001  0.00  0.00    +0.129 A 
ATOM     15  C   UNL     1      -0.017   1.398   0.010  0.00  0.00    +0.050 A 
ATOM     16  C   UNL     1       0.002  -0.004   0.002  0.00  0.00    +0.057 A 
ATOM     17  C   UNL     1       1.300  -0.387  -0.012  0.00  0.00    +0.171 A 
ATOM     18  O   UNL     1       2.077   0.705  -0.014  0.00  0.00    -0.449 OA
ATOM     19 BR   UNL     1       1.918  -2.174  -0.029  0.00  0.00    -0.008 Br
ENDBRANCH  13  14
ENDBRANCH   2  12
TORSDOF 3
