REMARK  Name = ZINC12453851
REMARK  8 active torsions:
REMARK  status: ('A' for Active; 'I' for Inactive)
REMARK    1  A    between atoms: C_1  and  C_2
REMARK    2  A    between atoms: C_2  and  O_3
REMARK    3  A    between atoms: O_3  and  C_4
REMARK    4  A    between atoms: C_7  and  C_10
REMARK    5  A    between atoms: C_24  and  C_25
REMARK    6  A    between atoms: C_24  and  N_56
REMARK    7  A    between atoms: C_28  and  C_30
REMARK    8  A    between atoms: C_30  and  O_31
REMARK                            x       y       z     vdW  Elec       q    Type
REMARK                         _______ _______ _______ _____ _____    ______ ____
ROOT
ATOM      1  C   UNL     1      -2.001  -6.092  -0.011  0.00  0.00    +0.011 C 
ATOM      2  C   UNL     1      -1.792  -6.634   1.383  0.00  0.00    +0.011 A 
ATOM      3  C   UNL     1      -1.066  -7.750   1.636  0.00  0.00    -0.022 A 
ATOM      4  C   UNL     1      -1.081  -7.952   3.068  0.00  0.00    +0.003 A 
ATOM      5  C   UNL     1      -0.514  -8.924   3.897  0.00  0.00    +0.010 A 
ATOM      6  C   UNL     1      -0.739  -8.799   5.246  0.00  0.00    +0.001 A 
ATOM      7  C   UNL     1      -1.491  -7.762   5.773  0.00  0.00    +0.002 A 
ATOM      8  C   UNL     1      -2.064  -6.786   4.976  0.00  0.00    +0.026 A 
ATOM      9  C   UNL     1      -1.852  -6.887   3.603  0.00  0.00    +0.047 A 
ATOM     10  N   UNL     1      -2.262  -6.114   2.555  0.00  0.00    -0.359 N 
ATOM     11  H   UNL     1      -2.808  -5.316   2.630  0.00  0.00    +0.166 HD
ATOM     12  C   UNL     1      -0.401  -8.573   0.561  0.00  0.00    +0.019 C 
ATOM     13  C   UNL     1      -1.008  -8.169  -0.789  0.00  0.00    -0.072 C 
ATOM     14  N   UNL     1      -0.978  -6.693  -0.900  0.00  0.00    +0.393 N 
ATOM     15  H   UNL     1      -0.051  -6.357  -0.615  0.00  0.00    -0.080 HD
ENDROOT
BRANCH   1  19
ATOM     16  C   UNL     1      -1.498  -1.848   0.006  0.00  0.00    +0.121 A 
ATOM     17  C   UNL     1      -0.388  -2.679  -0.014  0.00  0.00    +0.046 A 
ATOM     18  C   UNL     1      -0.553  -4.051  -0.015  0.00  0.00    +0.006 A 
ATOM     19  C   UNL     1      -1.824  -4.596  -0.005  0.00  0.00    -0.055 A 
ATOM     20  C   UNL     1      -2.932  -3.769   0.010  0.00  0.00    +0.006 A 
ATOM     21  C   UNL     1      -2.772  -2.397   0.016  0.00  0.00    +0.046 A 
BRANCH  16  22
ATOM     22  O   UNL     1      -1.339  -0.499   0.012  0.00  0.00    -0.492 OA
BRANCH  22  24
ATOM     23  C   UNL     1      -0.019   1.526   0.010  0.00  0.00    +0.048 C 
ATOM     24  C   UNL     1       0.002  -0.004   0.002  0.00  0.00    +0.225 C 
ENDBRANCH  22  24
ENDBRANCH  16  22
ENDBRANCH   1  19
BRANCH  14  25
ATOM     25  C   UNL     1      -1.226  -6.288  -2.299  0.00  0.00    -0.002 C 
BRANCH  25  26
ATOM     26  C   UNL     1      -0.059  -6.728  -3.145  0.00  0.00    +0.089 A 
ATOM     27  C   UNL     1       0.047  -7.904  -3.790  0.00  0.00    +0.043 A 
ATOM     28  C   UNL     1       1.294  -7.896  -4.455  0.00  0.00    +0.047 A 
ATOM     29  C   UNL     1       1.877  -6.716  -4.176  0.00  0.00    +0.130 A 
ATOM     30  O   UNL     1       1.050  -6.010  -3.388  0.00  0.00    -0.464 OA
BRANCH  29  31
ATOM     31  C   UNL     1       3.225  -6.260  -4.672  0.00  0.00    +0.230 C 
BRANCH  31  32
ATOM     32  O   UNL     1       3.068  -5.572  -5.914  0.00  0.00    -0.387 OA
ATOM     33  H   UNL     1       3.898  -5.250  -6.293  0.00  0.00    +0.210 HD
ENDBRANCH  31  32
ENDBRANCH  29  31
ENDBRANCH  25  26
ENDBRANCH  14  25
TORSDOF 7
