REMARK  Name = ZINC36557479
REMARK  15 active torsions:
REMARK  status: ('A' for Active; 'I' for Inactive)
REMARK    1  A    between atoms: C_1  and  C_2
REMARK    2  A    between atoms: C_2  and  C_3
REMARK    3  A    between atoms: C_3  and  C_4
REMARK    4  A    between atoms: C_4  and  C_5
REMARK    5  A    between atoms: C_5  and  C_6
REMARK    6  A    between atoms: C_7  and  C_8
REMARK    7  A    between atoms: N_10  and  C_11
REMARK    8  A    between atoms: N_10  and  C_18
REMARK    9  A    between atoms: C_11  and  C_12
REMARK   10  A    between atoms: C_15  and  C_17
REMARK   11  A    between atoms: C_18  and  C_20
REMARK   12  A    between atoms: C_18  and  C_32
REMARK   13  A    between atoms: C_29  and  O_30
REMARK   14  A    between atoms: O_30  and  C_31
REMARK   15  A    between atoms: N_34  and  C_35
REMARK                            x       y       z     vdW  Elec       q    Type
REMARK                         _______ _______ _______ _____ _____    ______ ____
ROOT
ATOM      1  C   UNL     1      -4.897  -7.418   2.779  0.00  0.00    +0.197 C 
ENDROOT
BRANCH   1   2
ATOM      2  C   UNL     1      -6.359  -7.061   2.844  0.00  0.00    +0.031 A 
ATOM      3  C   UNL     1      -7.326  -7.947   2.341  0.00  0.00    -0.009 A 
ATOM      4  C   UNL     1      -6.960  -9.178   1.771  0.00  0.00    +0.009 A 
ATOM      5  C   UNL     1      -7.923 -10.013   1.294  0.00  0.00    +0.001 A 
ATOM      6  C   UNL     1      -9.271  -9.665   1.362  0.00  0.00    +0.001 A 
ATOM      7  C   UNL     1      -9.663  -8.481   1.907  0.00  0.00    +0.008 A 
ATOM      8  C   UNL     1      -8.697  -7.594   2.410  0.00  0.00    -0.017 A 
ATOM      9  C   UNL     1      -9.065  -6.362   2.981  0.00  0.00    +0.012 A 
ATOM     10  C   UNL     1      -8.105  -5.526   3.459  0.00  0.00    +0.046 A 
ATOM     11  C   UNL     1      -6.752  -5.875   3.396  0.00  0.00    +0.126 A 
BRANCH  11  12
ATOM     12  O   UNL     1      -5.816  -5.021   3.887  0.00  0.00    -0.495 OA
ATOM     13  C   UNL     1      -6.293  -3.846   4.547  0.00  0.00    +0.277 C 
ENDBRANCH  11  12
ENDBRANCH   1   2
BRANCH   1  14
ATOM     14  C   UNL     1      -4.102  -6.434   3.597  0.00  0.00    +0.238 C 
ATOM     15  O   UNL     1      -3.500  -5.535   3.048  0.00  0.00    -0.273 OA
ATOM     16  N   UNL     1      -4.060  -6.552   4.939  0.00  0.00    -0.311 N 
ATOM     17  H   UNL     1      -4.541  -7.270   5.378  0.00  0.00    +0.149 HD
BRANCH  16  18
ATOM     18  C   UNL     1      -3.287  -5.594   5.735  0.00  0.00    +0.073 C 
ATOM     19  C   UNL     1      -1.826  -6.044   5.796  0.00  0.00    +0.022 C 
ATOM     20  C   UNL     1      -1.019  -5.044   6.627  0.00  0.00    +0.002 C 
ATOM     21  C   UNL     1      -1.593  -4.978   8.044  0.00  0.00    +0.000 C 
ATOM     22  C   UNL     1      -3.054  -4.529   7.983  0.00  0.00    +0.002 C 
ATOM     23  C   UNL     1      -3.861  -5.529   7.152  0.00  0.00    +0.022 C 
ENDBRANCH  16  18
ENDBRANCH   1  14
BRANCH   1  26
ATOM     24  C   UNL     1      -4.539  -6.228   0.683  0.00  0.00    +0.240 C 
ATOM     25  O   UNL     1      -5.084  -5.258   1.173  0.00  0.00    -0.271 OA
ATOM     26  N   UNL     1      -4.444  -7.374   1.387  0.00  0.00    -0.275 N 
BRANCH  24  28
ATOM     27  C   UNL     1      -4.078  -5.021  -1.371  0.00  0.00    -0.022 C 
ATOM     28  C   UNL     1      -3.984  -6.152  -0.677  0.00  0.00    +0.063 C 
BRANCH  27  29
ATOM     29  C   UNL     1      -3.509  -4.943  -2.764  0.00  0.00    +0.027 C 
BRANCH  29  30
ATOM     30  C   UNL     1      -4.600  -4.487  -3.736  0.00  0.00    +0.004 C 
BRANCH  30  31
ATOM     31  C   UNL     1      -4.022  -4.408  -5.150  0.00  0.00    +0.000 C 
BRANCH  31  33
ATOM     32  C   UNL     1      -4.535  -3.872  -7.536  0.00  0.00    +0.004 C 
ATOM     33  C   UNL     1      -5.113  -3.952  -6.122  0.00  0.00    -0.003 C 
ENDBRANCH  31  33
ENDBRANCH  30  31
ENDBRANCH  29  30
ENDBRANCH  27  29
ENDBRANCH  24  28
BRANCH  26  34
ATOM     34  C   UNL     1      -3.888  -8.575   0.758  0.00  0.00    +0.183 C 
BRANCH  34  35
ATOM     35  C   UNL     1      -2.430  -8.701   1.119  0.00  0.00    +0.122 A 
ATOM     36  C   UNL     1      -1.907  -9.588   1.984  0.00  0.00    +0.046 A 
ATOM     37  C   UNL     1      -0.513  -9.354   2.019  0.00  0.00    +0.045 A 
ATOM     38  C   UNL     1      -0.267  -8.338   1.172  0.00  0.00    +0.102 A 
ATOM     39  O   UNL     1      -1.431  -7.950   0.626  0.00  0.00    -0.463 OA
ATOM     40  C   UNL     1       1.085  -7.739   0.882  0.00  0.00    +0.086 C 
ENDBRANCH  34  35
ENDBRANCH  26  34
ENDBRANCH   1  26
TORSDOF 12
