REMARK  Name = ZINC07457596
REMARK  7 active torsions:
REMARK  status: ('A' for Active; 'I' for Inactive)
REMARK    1  A    between atoms: C_1  and  C_2
REMARK    2  A    between atoms: C_5  and  N_8
REMARK    3  A    between atoms: C_12  and  O_27
REMARK    4  A    between atoms: C_13  and  C_15
REMARK    5  A    between atoms: N_17  and  C_18
REMARK    6  A    between atoms: C_24  and  C_26
REMARK    7  A    between atoms: O_27  and  C_28
REMARK                            x       y       z     vdW  Elec       q    Type
REMARK                         _______ _______ _______ _____ _____    ______ ____
ROOT
ATOM      1  N   UNL     1       3.622  -0.650  -0.036  0.00  0.00    -0.196 N 
ATOM      2  C   UNL     1       4.754   0.064  -0.151  0.00  0.00    +0.275 A 
ATOM      3  O   UNL     1       4.699   1.280  -0.239  0.00  0.00    -0.266 OA
ATOM      4  C   UNL     1       6.000  -0.584  -0.166  0.00  0.00    +0.120 A 
ATOM      5  C   UNL     1       6.011  -1.964  -0.068  0.00  0.00    +0.157 A 
ATOM      6  C   UNL     1       4.716  -2.643   0.048  0.00  0.00    +0.188 A 
ATOM      7  N   UNL     1       3.612  -1.929   0.056  0.00  0.00    -0.155 NA
ENDROOT
BRANCH   1  12
ATOM      8  C   UNL     1      -1.331   2.117   0.022  0.00  0.00    +0.044 C 
ATOM      9  C   UNL     1      -0.017   1.379   0.010  0.00  0.00    -0.050 A 
ATOM     10  C   UNL     1       1.013   1.791   0.836  0.00  0.00    +0.005 A 
ATOM     11  C   UNL     1       2.221   1.120   0.823  0.00  0.00    +0.028 A 
ATOM     12  C   UNL     1       2.400   0.031  -0.020  0.00  0.00    +0.069 A 
ATOM     13  C   UNL     1       1.363  -0.380  -0.849  0.00  0.00    +0.028 A 
ATOM     14  C   UNL     1       0.159   0.295  -0.831  0.00  0.00    +0.005 A 
ENDBRANCH   1  12
BRANCH   6  15
ATOM     15  C   UNL     1       4.653  -4.115   0.157  0.00  0.00    +0.268 C 
ATOM     16  O   UNL     1       5.678  -4.769   0.149  0.00  0.00    -0.268 OA
ATOM     17  N   UNL     1       3.460  -4.732   0.264  0.00  0.00    -0.307 N 
ATOM     18  H   UNL     1       2.642  -4.210   0.270  0.00  0.00    +0.149 HD
BRANCH  17  19
ATOM     19  C   UNL     1       3.397  -6.192   0.371  0.00  0.00    +0.076 C 
ATOM     20  C   UNL     1       3.425  -6.808  -1.029  0.00  0.00    +0.022 C 
ATOM     21  C   UNL     1       3.360  -8.333  -0.917  0.00  0.00    +0.002 C 
ATOM     22  C   UNL     1       2.066  -8.737  -0.207  0.00  0.00    +0.000 C 
ATOM     23  C   UNL     1       2.038  -8.121   1.193  0.00  0.00    +0.005 C 
ATOM     24  C   UNL     1       2.103  -6.596   1.080  0.00  0.00    +0.006 C 
ATOM     25  C   UNL     1       2.075  -5.980   2.481  0.00  0.00    +0.009 C 
ENDBRANCH  17  19
ENDBRANCH   6  15
BRANCH   5  26
ATOM     26  O   UNL     1       7.171  -2.661  -0.080  0.00  0.00    -0.493 OA
ATOM     27  C   UNL     1       8.379  -1.907  -0.197  0.00  0.00    +0.277 C 
ENDBRANCH   5  26
TORSDOF 4
