REMARK  Name = ZINC14661214
REMARK  13 active torsions:
REMARK  status: ('A' for Active; 'I' for Inactive)
REMARK    1  A    between atoms: C_1  and  C_2
REMARK    2  A    between atoms: C_2  and  C_3
REMARK    3  A    between atoms: C_2  and  C_4
REMARK    4  A    between atoms: C_2  and  C_5
REMARK    5  A    between atoms: C_8  and  O_15
REMARK    6  A    between atoms: C_9  and  C_11
REMARK    7  A    between atoms: C_11  and  C_12
REMARK    8  A    between atoms: C_11  and  C_13
REMARK    9  A    between atoms: C_11  and  C_14
REMARK   10  A    between atoms: O_15  and  C_16
REMARK   11  A    between atoms: C_16  and  C_17
REMARK   12  A    between atoms: N_19  and  C_20
REMARK   13  A    between atoms: C_21  and  C_29
REMARK                            x       y       z     vdW  Elec       q    Type
REMARK                         _______ _______ _______ _____ _____    ______ ____
ROOT
ATOM      1  C   UNL     1      -2.065   1.840   5.838  0.00  0.00    +0.255 C 
ATOM      2  O   UNL     1      -2.759   2.761   5.463  0.00  0.00    -0.272 OA
ATOM      3  N   UNL     1      -1.288   1.179   4.957  0.00  0.00    -0.277 N 
ATOM      4  H   UNL     1      -0.734   0.442   5.258  0.00  0.00    +0.155 HD
ENDROOT
BRANCH   3   5
ATOM      5  C   UNL     1      -1.282   1.552   3.622  0.00  0.00    +0.084 A 
ATOM      6  C   UNL     1      -0.558   0.999   2.575  0.00  0.00    +0.068 A 
ATOM      7  C   UNL     1      -0.732   1.580   1.257  0.00  0.00    -0.023 A 
ATOM      8  C   UNL     1      -1.601   2.615   1.194  0.00  0.00    -0.004 A 
ATOM      9  S   UNL     1      -2.178   2.821   2.855  0.00  0.00    -0.077 S 
ATOM     10  C   UNL     1      -1.979   3.405  -0.021  0.00  0.00    +0.043 C 
ATOM     11  C   UNL     1      -0.956   3.111  -1.127  0.00  0.00    +0.005 C 
ATOM     12  C   UNL     1      -0.758   1.595  -1.227  0.00  0.00    +0.005 C 
ATOM     13  C   UNL     1      -0.013   1.086   0.008  0.00  0.00    +0.037 C 
BRANCH   6  14
ATOM     14  C   UNL     1       0.351  -0.131   2.793  0.00  0.00    +0.244 C 
ATOM     15  O   UNL     1      -0.061  -1.272   2.693  0.00  0.00    -0.270 OA
ATOM     16  N   UNL     1       1.643   0.094   3.104  0.00  0.00    -0.325 N 
ATOM     17  H   UNL     1       1.971   1.004   3.184  0.00  0.00    +0.145 HD
ATOM     18  H   UNL     1       2.244  -0.653   3.248  0.00  0.00    +0.145 HD
ENDBRANCH   6  14
ENDBRANCH   3   5
BRANCH   1  19
ATOM     19  C   UNL     1      -2.071   1.434   7.290  0.00  0.00    +0.324 C 
BRANCH  19  20
ATOM     20  O   UNL     1      -2.967   2.279   8.016  0.00  0.00    -0.482 OA
BRANCH  20  24
ATOM     21  C   UNL     1      -3.342   1.569  12.063  0.00  0.00    -0.041 A 
ATOM     22  C   UNL     1      -2.493   0.788  11.301  0.00  0.00    +0.008 A 
ATOM     23  C   UNL     1      -2.365   1.023   9.946  0.00  0.00    +0.046 A 
ATOM     24  C   UNL     1      -3.090   2.045   9.349  0.00  0.00    +0.125 A 
ATOM     25  C   UNL     1      -3.938   2.830  10.117  0.00  0.00    -0.000 A 
ATOM     26  C   UNL     1      -4.066   2.587  11.471  0.00  0.00    +0.012 A 
BRANCH  21  28
ATOM     27  C   UNL     1      -2.578   0.139  13.939  0.00  0.00    +0.015 C 
ATOM     28  C   UNL     1      -3.479   1.310  13.541  0.00  0.00    -0.013 C 
ATOM     29  C   UNL     1      -3.063   2.560  14.319  0.00  0.00    +0.015 C 
ATOM     30  C   UNL     1      -4.934   0.967  13.866  0.00  0.00    +0.015 C 
ENDBRANCH  21  28
BRANCH  25  31
ATOM     31  C   UNL     1      -4.722   3.944   9.473  0.00  0.00    -0.009 C 
ATOM     32  C   UNL     1      -5.572   4.649  10.533  0.00  0.00    +0.015 C 
ATOM     33  C   UNL     1      -3.757   4.950   8.843  0.00  0.00    +0.015 C 
ATOM     34  C   UNL     1      -5.635   3.366   8.390  0.00  0.00    +0.015 C 
ENDBRANCH  25  31
ENDBRANCH  20  24
ENDBRANCH  19  20
ENDBRANCH   1  19
TORSDOF 7
