REMARK  Name = ZINC59832772
REMARK  7 active torsions:
REMARK  status: ('A' for Active; 'I' for Inactive)
REMARK    1  A    between atoms: C_4  and  O_7
REMARK    2  A    between atoms: O_7  and  C_8
REMARK    3  A    between atoms: C_8  and  C_10
REMARK    4  A    between atoms: C_10  and  S_11
REMARK    5  A    between atoms: S_11  and  C_12
REMARK    6  A    between atoms: N_17  and  N_18
REMARK    7  A    between atoms: C_19  and  C_20
REMARK                            x       y       z     vdW  Elec       q    Type
REMARK                         _______ _______ _______ _____ _____    ______ ____
ROOT
ATOM      1  C   UNL     1       6.076  -5.266   0.447  0.00  0.00    +0.211 A 
ATOM      2  N   UNL     1       6.308  -6.581   0.532  0.00  0.00    -0.186 NA
ATOM      3  C   UNL     1       7.605  -6.799   0.577  0.00  0.00    +0.232 A 
ATOM      4  N   UNL     1       8.231  -5.605   0.520  0.00  0.00    -0.245 N 
ATOM      5  N   UNL     1       7.223  -4.631   0.431  0.00  0.00    -0.144 NA
ATOM      6  N   UNL     1       8.219  -8.036   0.668  0.00  0.00    -0.205 N 
ATOM      7  H   UNL     1       9.186  -8.096   0.696  0.00  0.00    +0.177 HD
ATOM      8  H   UNL     1       9.189  -5.450   0.535  0.00  0.00    +0.192 HD
ENDROOT
BRANCH   6   9
ATOM      9  N   UNL     1       7.442  -9.201   0.720  0.00  0.00    -0.188 NA
ATOM     10  C   UNL     1       8.010 -10.345   0.804  0.00  0.00    +0.139 C 
BRANCH  10  11
ATOM     11  C   UNL     1       7.194 -11.570   0.859  0.00  0.00    +0.002 A 
ATOM     12  C   UNL     1       7.838 -12.877   1.084  0.00  0.00    +0.010 A 
ATOM     13  C   UNL     1       7.117 -13.979   1.135  0.00  0.00    +0.009 A 
ATOM     14  C   UNL     1       5.656 -13.904   0.966  0.00  0.00    -0.017 A 
ATOM     15  C   UNL     1       4.822 -15.117   1.018  0.00  0.00    +0.009 A 
ATOM     16  C   UNL     1       3.515 -15.029   0.865  0.00  0.00    +0.009 A 
ATOM     17  C   UNL     1       2.885 -13.717   0.641  0.00  0.00    -0.017 A 
ATOM     18  C   UNL     1       1.427 -13.595   0.468  0.00  0.00    +0.008 A 
ATOM     19  C   UNL     1       0.890 -12.408   0.270  0.00  0.00    +0.001 A 
ATOM     20  C   UNL     1       1.736 -11.202   0.219  0.00  0.00    +0.008 A 
ATOM     21  C   UNL     1       3.038 -11.308   0.373  0.00  0.00    -0.017 A 
ATOM     22  C   UNL     1       3.631 -12.639   0.595  0.00  0.00    -0.002 A 
ATOM     23  C   UNL     1       5.090 -12.737   0.766  0.00  0.00    -0.002 A 
ATOM     24  C   UNL     1       5.889 -11.499   0.713  0.00  0.00    -0.008 A 
ATOM     25  C   UNL     1       5.212 -10.213   0.492  0.00  0.00    +0.010 A 
ATOM     26  C   UNL     1       3.913 -10.126   0.330  0.00  0.00    +0.009 A 
ENDBRANCH  10  11
ENDBRANCH   6   9
BRANCH   1  27
ATOM     27  S   UNL     1       4.486  -4.511   0.360  0.00  0.00    -0.073 S 
BRANCH  27  28
ATOM     28  C   UNL     1       4.849  -2.736   0.253  0.00  0.00    +0.198 C 
BRANCH  28  29
ATOM     29  C   UNL     1       3.558  -1.964   0.173  0.00  0.00    +0.323 C 
ATOM     30  O   UNL     1       2.501  -2.550   0.187  0.00  0.00    -0.249 OA
BRANCH  29  31
ATOM     31  O   UNL     1       3.582  -0.624   0.086  0.00  0.00    -0.425 OA
BRANCH  31  35
ATOM     32  C   UNL     1      -0.018   1.389   0.194  0.00  0.00    +0.000 A 
ATOM     33  C   UNL     1       0.413   0.685   1.304  0.00  0.00    +0.004 A 
ATOM     34  C   UNL     1       1.618   0.011   1.270  0.00  0.00    +0.046 A 
ATOM     35  C   UNL     1       2.396   0.039   0.122  0.00  0.00    +0.132 A 
ATOM     36  C   UNL     1       1.961   0.746  -0.990  0.00  0.00    +0.046 A 
ATOM     37  C   UNL     1       0.756   1.419  -0.952  0.00  0.00    +0.004 A 
ENDBRANCH  31  35
ENDBRANCH  29  31
ENDBRANCH  28  29
ENDBRANCH  27  28
ENDBRANCH   1  27
TORSDOF 7
