REMARK  Name = ZINC22253481
REMARK  12 active torsions:
REMARK  status: ('A' for Active; 'I' for Inactive)
REMARK    1  A    between atoms: C_1  and  C_2
REMARK    2  A    between atoms: C_2  and  C_3
REMARK    3  A    between atoms: C_3  and  C_4
REMARK    4  A    between atoms: C_4  and  C_6
REMARK    5  A    between atoms: C_4  and  N_7
REMARK    6  A    between atoms: C_8  and  C_10
REMARK    7  A    between atoms: C_10  and  C_12
REMARK    8  A    between atoms: C_10  and  S_13
REMARK    9  A    between atoms: S_13  and  C_14
REMARK   10  A    between atoms: C_17  and  C_27
REMARK   11  A    between atoms: C_18  and  C_20
REMARK   12  A    between atoms: C_20  and  C_21
REMARK                            x       y       z     vdW  Elec       q    Type
REMARK                         _______ _______ _______ _____ _____    ______ ____
ROOT
ATOM      1  C   UNL     1       0.605   3.614   0.015  0.00  0.00    +0.167 A 
ATOM      2  N   UNL     1       1.077   2.337   0.004  0.00  0.00    -0.337 N 
ATOM      3  H   UNL     1       2.161   2.152  -0.007  0.00  0.00    +0.168 HD
ATOM      4  C   UNL     1      -0.018   1.503   0.010  0.00  0.00    +0.037 A 
ATOM      5  C   UNL     1      -1.109   2.288   0.019  0.00  0.00    +0.067 A 
ATOM      6  N   UNL     1      -0.707   3.570   0.027  0.00  0.00    -0.226 NA
ATOM      7  C   UNL     1       0.002  -0.004   0.002  0.00  0.00    +0.065 C 
ENDROOT
BRANCH   1   8
ATOM      8  S   UNL     1       1.587   5.076   0.013  0.00  0.00    -0.075 S 
BRANCH   8   9
ATOM      9  C   UNL     1       0.283   6.331   0.031  0.00  0.00    +0.137 C 
ATOM     10  C   UNL     1      -0.519   6.252  -1.269  0.00  0.00    +0.029 C 
BRANCH   9  12
ATOM     11  N   UNL     1       0.193   8.715   0.683  0.00  0.00    -0.312 N 
ATOM     12  C   UNL     1       0.903   7.699   0.156  0.00  0.00    +0.226 C 
ATOM     13  O   UNL     1       2.042   7.885  -0.218  0.00  0.00    -0.275 OA
ATOM     14  H   UNL     1      -0.840   8.547   1.023  0.00  0.00    +0.149 HD
BRANCH  11  15
ATOM     15  C   UNL     1       0.796  10.045   0.805  0.00  0.00    +0.070 C 
ATOM     16  C   UNL     1       1.598  10.124   2.105  0.00  0.00    +0.028 C 
BRANCH  15  17
ATOM     17  C   UNL     1      -0.306  11.106   0.820  0.00  0.00    +0.022 C 
BRANCH  17  19
ATOM     18  C   UNL     1      -2.131  12.171  -0.514  0.00  0.00    +0.004 C 
ATOM     19  C   UNL     1      -1.028  11.110  -0.529  0.00  0.00    -0.002 C 
ENDBRANCH  17  19
ENDBRANCH  15  17
ENDBRANCH  11  15
ENDBRANCH   9  12
ENDBRANCH   8   9
ENDBRANCH   1   8
BRANCH   5  20
ATOM     20  C   UNL     1      -2.539   1.811   0.022  0.00  0.00    +0.092 C 
BRANCH  20  21
ATOM     21  C   UNL     1      -3.010   1.645   1.444  0.00  0.00    -0.042 A 
ATOM     22  C   UNL     1      -2.852   0.431   2.087  0.00  0.00    +0.004 A 
ATOM     23  C   UNL     1      -3.280   0.280   3.393  0.00  0.00    +0.000 A 
ATOM     24  C   UNL     1      -3.874   1.339   4.053  0.00  0.00    +0.000 A 
ATOM     25  C   UNL     1      -4.036   2.551   3.408  0.00  0.00    +0.000 A 
ATOM     26  C   UNL     1      -3.604   2.704   2.104  0.00  0.00    +0.004 A 
ENDBRANCH  20  21
ENDBRANCH   5  20
TORSDOF 8
