REMARK  Name = ZINC17155414
REMARK  6 active torsions:
REMARK  status: ('A' for Active; 'I' for Inactive)
REMARK    1  A    between atoms: C_3  and  N_10
REMARK    2  A    between atoms: C_6  and  C_7
REMARK    3  A    between atoms: N_10  and  C_11
REMARK    4  A    between atoms: C_12  and  C_13
REMARK    5  A    between atoms: C_12  and  C_15
REMARK    6  A    between atoms: C_17  and  C_20
REMARK                            x       y       z     vdW  Elec       q    Type
REMARK                         _______ _______ _______ _____ _____    ______ ____
ROOT
ATOM      1  C   UNL     1       2.068  -8.588   0.042  0.00  0.00    +0.093 C 
ATOM      2  C   UNL     1       2.302  -7.282  -0.266  0.00  0.00    +0.098 C 
ENDROOT
BRANCH   2   3
ATOM      3  C   UNL     1       1.201  -6.429  -0.753  0.00  0.00    +0.120 A 
ATOM      4  N   UNL     1       1.194  -5.128  -1.000  0.00  0.00    -0.238 NA
ATOM      5  C   UNL     1       0.105  -4.519  -1.438  0.00  0.00    +0.086 A 
ATOM      6  C   UNL     1      -1.039  -5.247  -1.635  0.00  0.00    +0.075 A 
ATOM      7  S   UNL     1      -0.479  -6.879  -1.168  0.00  0.00    -0.074 S 
BRANCH   5   8
ATOM      8  C   UNL     1       0.121  -3.062  -1.707  0.00  0.00    +0.086 A 
ATOM      9  C   UNL     1       1.260  -2.330  -1.507  0.00  0.00    +0.028 A 
ATOM     10  C   UNL     1       1.220  -0.894  -1.788  0.00  0.00    +0.020 A 
ATOM     11  C   UNL     1       2.359  -0.101  -1.600  0.00  0.00    +0.031 A 
ATOM     12  C   UNL     1       2.303   1.248  -1.871  0.00  0.00    +0.042 A 
ATOM     13  C   UNL     1       1.123   1.822  -2.327  0.00  0.00    +0.023 A 
ATOM     14  C   UNL     1      -0.005   1.053  -2.517  0.00  0.00    +0.048 A 
ATOM     15  C   UNL     1       0.028  -0.310  -2.251  0.00  0.00    +0.139 A 
ATOM     16  O   UNL     1      -1.078  -1.063  -2.438  0.00  0.00    -0.422 OA
ATOM     17  C   UNL     1      -1.084  -2.382  -2.192  0.00  0.00    +0.347 A 
ATOM     18  O   UNL     1      -2.103  -3.022  -2.374  0.00  0.00    -0.244 OA
ATOM     19 CL   UNL     1       3.712   2.235  -1.639  0.00  0.00    -0.084 Cl
ENDBRANCH   5   8
ENDBRANCH   2   3
BRANCH   1  20
ATOM     20  N   UNL     1       0.788  -9.069   0.051  0.00  0.00    -0.319 N 
ATOM     21  H   UNL     1       0.042  -8.465  -0.085  0.00  0.00    +0.152 HD
BRANCH  20  24
ATOM     22  C   UNL     1      -0.980 -12.256   0.466  0.00  0.00    +0.015 A 
ATOM     23  C   UNL     1      -0.747 -10.915   0.265  0.00  0.00    +0.024 A 
ATOM     24  C   UNL     1       0.556 -10.426   0.256  0.00  0.00    +0.031 A 
ATOM     25  C   UNL     1       1.629 -11.293   0.445  0.00  0.00    +0.024 A 
ATOM     26  C   UNL     1       1.403 -12.635   0.653  0.00  0.00    +0.015 A 
ATOM     27  C   UNL     1       0.095 -13.128   0.663  0.00  0.00    +0.037 A 
BRANCH  27  28
ATOM     28  C   UNL     1      -0.151 -14.567   0.880  0.00  0.00    +0.242 C 
ATOM     29  O   UNL     1      -1.289 -14.995   0.888  0.00  0.00    -0.270 OA
ATOM     30  N   UNL     1       0.886 -15.407   1.069  0.00  0.00    -0.325 N 
ATOM     31  H   UNL     1       1.794 -15.066   1.062  0.00  0.00    +0.145 HD
ATOM     32  H   UNL     1       0.724 -16.353   1.212  0.00  0.00    +0.145 HD
ENDBRANCH  27  28
ENDBRANCH  20  24
ENDBRANCH   1  20
BRANCH   2  33
ATOM     33  C   UNL     1       3.618  -6.736  -0.117  0.00  0.00    +0.103 C 
ATOM     34  N   UNL     1       4.661  -6.303   0.001  0.00  0.00    -0.191 NA
ENDBRANCH   2  33
TORSDOF 6
