REMARK  Name = ZINC43046232
REMARK  8 active torsions:
REMARK  status: ('A' for Active; 'I' for Inactive)
REMARK    1  A    between atoms: C_1  and  C_2
REMARK    2  A    between atoms: C_8  and  N_10
REMARK    3  A    between atoms: N_13  and  N_14
REMARK    4  A    between atoms: C_18  and  S_21
REMARK    5  A    between atoms: S_21  and  N_24
REMARK    6  A    between atoms: N_24  and  C_25
REMARK    7  A    between atoms: C_25  and  C_26
REMARK    8  A    between atoms: C_25  and  C_27
REMARK                            x       y       z     vdW  Elec       q    Type
REMARK                         _______ _______ _______ _____ _____    ______ ____
ROOT
ATOM      1  N   UNL     1       4.668   0.942   1.166  0.00  0.00    -0.247 N 
ATOM      2  C   UNL     1       5.973   1.423   1.156  0.00  0.00    +0.135 A 
ATOM      3  C   UNL     1       6.569   1.773  -0.051  0.00  0.00    +0.047 A 
ATOM      4  C   UNL     1       7.867   2.251  -0.046  0.00  0.00    +0.033 A 
ATOM      5  C   UNL     1       8.527   2.364   1.170  0.00  0.00    +0.123 A 
ATOM      6  C   UNL     1       7.875   1.999   2.330  0.00  0.00    +0.141 A 
ATOM      7  N   UNL     1       6.634   1.550   2.296  0.00  0.00    -0.237 NA
ATOM      8  H   UNL     1       4.180   0.848   0.333  0.00  0.00    +0.172 HD
ENDROOT
BRANCH   1  12
ATOM      9  N   UNL     1       2.116  -0.004   1.231  0.00  0.00    -0.295 N 
ATOM     10  C   UNL     1       2.795   0.128   2.388  0.00  0.00    +0.316 C 
ATOM     11  O   UNL     1       2.266  -0.174   3.441  0.00  0.00    -0.251 OA
ATOM     12  N   UNL     1       4.059   0.594   2.379  0.00  0.00    -0.219 N 
ATOM     13  H   UNL     1       2.538   0.237   0.392  0.00  0.00    +0.151 HD
ATOM     14  H   UNL     1       4.548   0.689   3.211  0.00  0.00    +0.174 HD
BRANCH   9  21
ATOM     15  C   UNL     1      -0.019   1.526   0.010  0.00  0.00    +0.009 C 
ATOM     16  C   UNL     1       0.002  -0.004   0.002  0.00  0.00    +0.006 C 
ATOM     17  C   UNL     1      -1.433  -0.534   0.013  0.00  0.00    +0.005 C 
ATOM     18  C   UNL     1      -1.413  -2.063   0.004  0.00  0.00    +0.000 C 
ATOM     19  C   UNL     1      -0.673  -2.570   1.244  0.00  0.00    +0.002 C 
ATOM     20  C   UNL     1       0.763  -2.041   1.233  0.00  0.00    +0.022 C 
ATOM     21  C   UNL     1       0.742  -0.511   1.242  0.00  0.00    +0.077 C 
ENDBRANCH   9  21
ENDBRANCH   1  12
BRANCH   5  22
ATOM     22  S   UNL     1      10.182   2.966   1.232  0.00  0.00    +0.060 S 
ATOM     23  O   UNL     1      10.754   2.459   2.430  0.00  0.00    -0.153 OA
ATOM     24  O   UNL     1      10.751   2.723  -0.047  0.00  0.00    -0.153 OA
BRANCH  22  25
ATOM     25  N   UNL     1      10.098   4.611   1.408  0.00  0.00    -0.187 NA
ATOM     26  H   UNL     1      10.427   5.191   0.703  0.00  0.00    +0.148 HD
BRANCH  25  27
ATOM     27  C   UNL     1       9.527   5.189   2.626  0.00  0.00    +0.070 C 
ATOM     28  C   UNL     1      10.650   5.508   3.615  0.00  0.00    +0.025 C 
ATOM     29  C   UNL     1       8.775   6.475   2.277  0.00  0.00    +0.025 C 
ENDBRANCH  25  27
ENDBRANCH  22  25
ENDBRANCH   5  22
TORSDOF 5
