REMARK  Name = ZINC23498431
REMARK  7 active torsions:
REMARK  status: ('A' for Active; 'I' for Inactive)
REMARK    1  A    between atoms: C_1  and  C_2
REMARK    2  A    between atoms: C_2  and  C_3
REMARK    3  A    between atoms: C_2  and  C_4
REMARK    4  A    between atoms: C_4  and  C_6
REMARK    5  A    between atoms: C_4  and  S_12
REMARK    6  A    between atoms: S_12  and  C_13
REMARK    7  A    between atoms: N_23  and  C_24
REMARK                            x       y       z     vdW  Elec       q    Type
REMARK                         _______ _______ _______ _____ _____    ______ ____
ROOT
ATOM      1  C   UNL     1       2.494   1.375   0.851  0.00  0.00    +0.177 A 
ATOM      2  N   UNL     1       1.301   1.876   1.056  0.00  0.00    -0.223 NA
ATOM      3  C   UNL     1       0.181   1.222   0.668  0.00  0.00    +0.080 A 
ATOM      4  C   UNL     1      -1.091   1.754   0.892  0.00  0.00    +0.048 A 
ATOM      5  C   UNL     1      -2.203   1.054   0.475  0.00  0.00    +0.043 A 
ATOM      6  C   UNL     1      -2.073  -0.178  -0.156  0.00  0.00    +0.021 A 
ATOM      7  C   UNL     1      -0.839  -0.721  -0.381  0.00  0.00    +0.017 A 
ATOM      8  C   UNL     1       0.303  -0.032   0.026  0.00  0.00    +0.065 A 
ATOM      9  C   UNL     1       1.652  -0.571  -0.192  0.00  0.00    +0.267 A 
ATOM     10  O   UNL     1       1.821  -1.645  -0.739  0.00  0.00    -0.267 OA
ATOM     11  N   UNL     1       2.700   0.170   0.237  0.00  0.00    -0.255 N 
ATOM     12 CL   UNL     1      -3.784   1.716   0.746  0.00  0.00    -0.083 Cl
ENDROOT
BRANCH  11  13
ATOM     13  C   UNL     1       4.006  -0.302   0.052  0.00  0.00    +0.052 A 
ATOM     14  C   UNL     1       4.687  -0.019  -1.125  0.00  0.00    +0.028 A 
ATOM     15  C   UNL     1       5.976  -0.481  -1.303  0.00  0.00    +0.022 A 
ATOM     16  C   UNL     1       6.586  -1.233  -0.315  0.00  0.00    +0.041 A 
ATOM     17  C   UNL     1       5.908  -1.521   0.857  0.00  0.00    +0.022 A 
ATOM     18  C   UNL     1       4.620  -1.057   1.042  0.00  0.00    +0.028 A 
ATOM     19 CL   UNL     1       8.205  -1.817  -0.544  0.00  0.00    -0.084 Cl
ENDBRANCH  11  13
BRANCH   1  20
ATOM     20  S   UNL     1       3.897   2.294   1.389  0.00  0.00    -0.074 S 
BRANCH  20  21
ATOM     21  C   UNL     1       3.082   3.809   1.954  0.00  0.00    +0.143 C 
BRANCH  21  22
ATOM     22  C   UNL     1       2.513   4.544   0.768  0.00  0.00    +0.234 C 
ATOM     23  O   UNL     1       2.932   4.315  -0.346  0.00  0.00    -0.274 OA
ATOM     24  N   UNL     1       1.538   5.458   0.947  0.00  0.00    -0.239 N 
ATOM     25  C   UNL     1       1.028   6.116  -0.113  0.00  0.00    +0.303 C 
ATOM     26  O   UNL     1       1.448   5.885  -1.230  0.00  0.00    -0.253 OA
ATOM     27  N   UNL     1       0.054   7.029   0.066  0.00  0.00    -0.313 N 
ATOM     28  H   UNL     1       1.158   5.666   1.958  0.00  0.00    +0.159 HD
ATOM     29  H   UNL     1      -0.362   7.566  -0.800  0.00  0.00    +0.146 HD
ATOM     30  H   UNL     1      -0.326   7.237   1.077  0.00  0.00    +0.146 HD
ENDBRANCH  21  22
BRANCH  21  32
ATOM     31  C   UNL     1       3.416   5.987   3.131  0.00  0.00    +0.009 C 
ATOM     32  C   UNL     1       4.101   4.700   2.666  0.00  0.00    +0.005 C 
ATOM     33  C   UNL     1       4.669   3.959   3.878  0.00  0.00    +0.009 C 
ENDBRANCH  21  32
ENDBRANCH  20  21
ENDBRANCH   1  20
TORSDOF 5
