REMARK  Name = ZINC41850061
REMARK  4 active torsions:
REMARK  status: ('A' for Active; 'I' for Inactive)
REMARK    1  A    between atoms: C_1  and  N_2
REMARK    2  A    between atoms: N_2  and  C_3
REMARK    3  A    between atoms: N_2  and  C_9
REMARK    4  A    between atoms: C_9  and  C_19
REMARK                            x       y       z     vdW  Elec       q    Type
REMARK                         _______ _______ _______ _____ _____    ______ ____
ROOT
ATOM      1  C   UNL     1      -1.307  -0.520  -0.107  0.00  0.00    +0.066 C 
ATOM      2  C   UNL     1      -1.903  -0.053  -1.423  0.00  0.00    +0.015 C 
ATOM      3  C   UNL     1      -3.284  -0.700  -1.607  0.00  0.00    +0.074 C 
ATOM      4  S   UNL     1      -4.411   0.103  -0.429  0.00  0.00    -0.125 S 
ATOM      5  C   UNL     1      -3.478   0.136   1.069  0.00  0.00    +0.010 A 
ATOM      6  C   UNL     1      -2.124  -0.145   1.094  0.00  0.00    -0.034 A 
ATOM      7  C   UNL     1      -1.450  -0.085   2.312  0.00  0.00    +0.004 A 
ATOM      8  C   UNL     1      -2.114   0.238   3.475  0.00  0.00    +0.000 A 
ATOM      9  C   UNL     1      -3.470   0.509   3.448  0.00  0.00    +0.001 A 
ATOM     10  C   UNL     1      -4.147   0.459   2.249  0.00  0.00    +0.015 A 
ENDROOT
BRANCH   1  12
ATOM     11  C   UNL     1      -0.089   1.493   0.359  0.00  0.00    -0.094 C 
ATOM     12  N   UNL     1       0.033   0.065   0.035  0.00  0.00    +0.393 N 
ATOM     13  H   UNL     1       0.529  -0.407   0.777  0.00  0.00    -0.080 HD
BRANCH  12  14
ATOM     14  C   UNL     1       0.771  -0.091  -1.225  0.00  0.00    -0.067 C 
ATOM     15  C   UNL     1       2.100   0.662  -1.133  0.00  0.00    -0.015 C 
ATOM     16  C   UNL     1       2.869   0.500  -2.446  0.00  0.00    -0.002 C 
ATOM     17  C   UNL     1       3.141  -0.985  -2.698  0.00  0.00    -0.000 C 
ATOM     18  C   UNL     1       1.812  -1.738  -2.789  0.00  0.00    -0.002 C 
ATOM     19  C   UNL     1       1.042  -1.576  -1.477  0.00  0.00    -0.015 C 
ENDBRANCH  12  14
ENDBRANCH   1  12
BRANCH   1  20
ATOM     20  C   UNL     1      -1.174  -2.021  -0.148  0.00  0.00    +0.350 C 
ATOM     21  O   UNL     1      -0.500  -2.596   0.690  0.00  0.00    -0.248 OA
ATOM     22  O   UNL     1      -1.739  -2.660  -1.019  0.00  0.00    -0.248 OA
ENDBRANCH   1  20
TORSDOF 3
