REMARK  Name = ZINC66981897
REMARK  6 active torsions:
REMARK  status: ('A' for Active; 'I' for Inactive)
REMARK    1  A    between atoms: C_1  and  C_2
REMARK    2  A    between atoms: C_7  and  N_12
REMARK    3  A    between atoms: C_9  and  C_11
REMARK    4  A    between atoms: C_13  and  C_15
REMARK    5  A    between atoms: N_17  and  C_18
REMARK    6  A    between atoms: C_21  and  C_24
REMARK                            x       y       z     vdW  Elec       q    Type
REMARK                         _______ _______ _______ _____ _____    ______ ____
ROOT
ATOM      1  C   UNL     1       2.736  -4.257   3.637  0.00  0.00    +0.303 C 
ATOM      2  O   UNL     1       2.765  -3.585   4.648  0.00  0.00    -0.265 OA
ATOM      3  N   UNL     1       3.364  -5.449   3.602  0.00  0.00    -0.278 N 
ATOM      4  H   UNL     1       3.285  -6.015   2.818  0.00  0.00    +0.155 HD
ENDROOT
BRANCH   3   5
ATOM      5  C   UNL     1       4.126  -5.868   4.693  0.00  0.00    +0.034 A 
ATOM      6  C   UNL     1       3.721  -5.554   5.985  0.00  0.00    +0.024 A 
ATOM      7  C   UNL     1       4.472  -5.967   7.064  0.00  0.00    +0.013 A 
ATOM      8  C   UNL     1       5.641  -6.702   6.859  0.00  0.00    +0.019 A 
ATOM      9  C   UNL     1       6.046  -7.016   5.560  0.00  0.00    +0.013 A 
ATOM     10  C   UNL     1       5.288  -6.605   4.485  0.00  0.00    +0.024 A 
BRANCH   8  11
ATOM     11  C   UNL     1       6.449  -7.146   8.014  0.00  0.00    +0.164 A 
ATOM     12  N   UNL     1       6.056  -7.211   9.271  0.00  0.00    -0.129 NA
ATOM     13  N   UNL     1       7.021  -7.643  10.008  0.00  0.00    -0.134 NA
ATOM     14  C   UNL     1       8.068  -7.874   9.275  0.00  0.00    +0.134 A 
ATOM     15  N   UNL     1       7.741  -7.571   7.986  0.00  0.00    -0.311 N 
ATOM     16  C   UNL     1       8.645  -7.695   6.843  0.00  0.00    +0.125 C 
ATOM     17  C   UNL     1      10.083  -7.801   7.364  0.00  0.00    +0.022 C 
ATOM     18  C   UNL     1      10.160  -8.880   8.448  0.00  0.00    +0.009 C 
ATOM     19  C   UNL     1       9.420  -8.388   9.702  0.00  0.00    +0.076 C 
ENDBRANCH   8  11
ENDBRANCH   3   5
BRANCH   1  21
ATOM     20  N   UNL     1       1.377  -2.570   2.469  0.00  0.00    -0.304 N 
ATOM     21  C   UNL     1       2.004  -3.762   2.433  0.00  0.00    +0.300 C 
ATOM     22  O   UNL     1       1.975  -4.434   1.423  0.00  0.00    -0.265 OA
ATOM     23  H   UNL     1       1.400  -2.033   3.276  0.00  0.00    +0.149 HD
BRANCH  20  29
ATOM     24  C   UNL     1      -0.240   1.477   0.134  0.00  0.00    +0.008 C 
ATOM     25  C   UNL     1      -0.166  -0.050   0.094  0.00  0.00    -0.009 C 
ATOM     26  C   UNL     1      -1.581  -0.630   0.083  0.00  0.00    +0.003 C 
ATOM     27  C   UNL     1      -1.506  -2.158   0.043  0.00  0.00    +0.002 C 
ATOM     28  C   UNL     1      -0.757  -2.665   1.276  0.00  0.00    +0.022 C 
ATOM     29  C   UNL     1       0.659  -2.085   1.287  0.00  0.00    +0.076 C 
ATOM     30  C   UNL     1       0.584  -0.557   1.328  0.00  0.00    +0.009 C 
ATOM     31  C   UNL     1      -0.157  -0.116   2.591  0.00  0.00    +0.009 C 
ENDBRANCH  20  29
ENDBRANCH   1  21
TORSDOF 4
