REMARK  Name = ZINC20716746
REMARK  8 active torsions:
REMARK  status: ('A' for Active; 'I' for Inactive)
REMARK    1  A    between atoms: C_1  and  C_2
REMARK    2  A    between atoms: C_2  and  C_3
REMARK    3  A    between atoms: C_2  and  C_4
REMARK    4  A    between atoms: C_4  and  C_6
REMARK    5  A    between atoms: C_4  and  N_10
REMARK    6  A    between atoms: C_6  and  O_8
REMARK    7  A    between atoms: O_8  and  C_9
REMARK    8  A    between atoms: C_22  and  C_24
REMARK                            x       y       z     vdW  Elec       q    Type
REMARK                         _______ _______ _______ _____ _____    ______ ____
ROOT
ATOM      1  N   UNL     1       1.066   1.774  -2.371  0.00  0.00    -0.286 N 
ATOM      2  C   UNL     1       0.091   1.107  -3.021  0.00  0.00    +0.304 C 
ATOM      3  O   UNL     1      -0.187  -0.031  -2.698  0.00  0.00    -0.253 OA
ATOM      4  N   UNL     1      -0.575   1.703  -4.030  0.00  0.00    -0.273 N 
ATOM      5  C   UNL     1      -1.719   1.039  -4.673  0.00  0.00    +0.116 C 
ATOM      6  C   UNL     1      -2.987   1.862  -4.414  0.00  0.00    +0.074 C 
ATOM      7  C   UNL     1      -2.679   3.317  -4.652  0.00  0.00    +0.040 A 
ATOM      8  C   UNL     1      -1.437   3.846  -4.694  0.00  0.00    +0.062 A 
ATOM      9  N   UNL     1      -1.552   5.156  -4.920  0.00  0.00    -0.348 N 
ATOM     10  C   UNL     1      -2.818   5.464  -5.024  0.00  0.00    +0.171 A 
ATOM     11  N   UNL     1      -3.554   4.340  -4.863  0.00  0.00    -0.349 N 
ATOM     12  H   UNL     1      -4.521   4.275  -4.893  0.00  0.00    +0.166 HD
ATOM     13  C   UNL     1      -0.179   3.039  -4.511  0.00  0.00    +0.159 C 
ATOM     14  H   UNL     1       1.338   2.654  -2.675  0.00  0.00    +0.151 HD
ATOM     15  H   UNL     1      -0.813   5.781  -4.996  0.00  0.00    +0.167 HD
ENDROOT
BRANCH  13  16
ATOM     16  C   UNL     1       0.543   2.916  -5.828  0.00  0.00    +0.014 A 
ATOM     17  C   UNL     1       0.219   3.759  -6.875  0.00  0.00    +0.010 A 
ATOM     18  C   UNL     1       0.880   3.647  -8.083  0.00  0.00    +0.020 A 
ATOM     19  C   UNL     1       1.868   2.692  -8.246  0.00  0.00    +0.044 A 
ATOM     20  C   UNL     1       2.194   1.848  -7.200  0.00  0.00    +0.058 A 
ATOM     21  C   UNL     1       1.534   1.964  -5.988  0.00  0.00    +0.130 A 
ATOM     22  F   UNL     1       1.855   1.143  -4.964  0.00  0.00    -0.205 F 
ATOM     23 CL   UNL     1       2.698   2.552  -9.765  0.00  0.00    -0.083 Cl
ENDBRANCH  13  16
BRANCH   1  24
ATOM     24  C   UNL     1       1.715   1.169  -1.205  0.00  0.00    +0.186 C 
BRANCH  24  26
ATOM     25  C   UNL     1       2.285  -0.847  -2.568  0.00  0.00    +0.009 C 
ATOM     26  C   UNL     1       2.851   0.255  -1.670  0.00  0.00    +0.014 C 
ATOM     27  C   UNL     1       3.876   1.076  -2.456  0.00  0.00    +0.009 C 
ENDBRANCH  24  26
BRANCH  24  28
ATOM     28  C   UNL     1       2.273   2.254  -0.321  0.00  0.00    +0.328 C 
ATOM     29  O   UNL     1       2.142   3.414  -0.633  0.00  0.00    -0.249 OA
BRANCH  28  30
ATOM     30  O   UNL     1       2.915   1.932   0.813  0.00  0.00    -0.467 OA
ATOM     31  C   UNL     1       3.418   3.012   1.602  0.00  0.00    +0.280 C 
ENDBRANCH  28  30
ENDBRANCH  24  28
ENDBRANCH   1  24
TORSDOF 5
