REMARK  Name = ZINC38688184
REMARK  11 active torsions:
REMARK  status: ('A' for Active; 'I' for Inactive)
REMARK    1  A    between atoms: C_1  and  C_2
REMARK    2  A    between atoms: C_2  and  C_3
REMARK    3  A    between atoms: C_3  and  C_4
REMARK    4  A    between atoms: C_4  and  C_5
REMARK    5  A    between atoms: C_8  and  C_11
REMARK    6  A    between atoms: C_11  and  O_13
REMARK    7  A    between atoms: O_13  and  C_14
REMARK    8  A    between atoms: C_21  and  N_36
REMARK    9  A    between atoms: C_22  and  C_34
REMARK   10  A    between atoms: C_23  and  C_25
REMARK   11  A    between atoms: C_29  and  N_31
REMARK                            x       y       z     vdW  Elec       q    Type
REMARK                         _______ _______ _______ _____ _____    ______ ____
ROOT
ATOM      1  C   UNL     1      -3.330  -6.832  -3.406  0.00  0.00    +0.135 A 
ATOM      2  C   UNL     1      -4.490  -6.071  -3.434  0.00  0.00    +0.047 A 
ATOM      3  C   UNL     1      -5.722  -6.687  -3.332  0.00  0.00    +0.012 A 
ATOM      4  C   UNL     1      -5.806  -8.062  -3.200  0.00  0.00    +0.008 A 
ATOM      5  C   UNL     1      -4.650  -8.827  -3.171  0.00  0.00    +0.138 A 
ATOM      6  C   UNL     1      -3.411  -8.210  -3.280  0.00  0.00    +0.093 A 
ATOM      7  O   UNL     1      -4.712 -10.175  -3.042  0.00  0.00    -0.441 OA
ATOM      8  C   UNL     1      -5.826 -10.752  -2.563  0.00  0.00    +0.199 C 
ATOM      9  C   UNL     1      -7.019 -10.112  -2.557  0.00  0.00    +0.098 C 
ATOM     10  C   UNL     1      -7.159  -8.714  -3.090  0.00  0.00    +0.098 C 
ENDROOT
BRANCH  10  11
ATOM     11  C   UNL     1      -7.803  -8.760  -4.452  0.00  0.00    -0.033 A 
ATOM     12  C   UNL     1      -7.188  -9.444  -5.484  0.00  0.00    +0.005 A 
ATOM     13  C   UNL     1      -7.779  -9.487  -6.733  0.00  0.00    +0.003 A 
ATOM     14  C   UNL     1      -8.985  -8.846  -6.950  0.00  0.00    +0.033 A 
ATOM     15  C   UNL     1      -9.599  -8.163  -5.917  0.00  0.00    +0.126 A 
ATOM     16  C   UNL     1      -9.010  -8.124  -4.667  0.00  0.00    +0.037 A 
BRANCH  15  17
ATOM     17  N   UNL     1     -10.890  -7.476  -6.149  0.00  0.00    +0.056 N 
ATOM     18  O   UNL     1     -11.406  -7.512  -7.242  0.00  0.00    -0.126 OA
ATOM     19  O   UNL     1     -11.427  -6.878  -5.246  0.00  0.00    -0.126 OA
ENDBRANCH  15  17
ENDBRANCH  10  11
BRANCH   8  20
ATOM     20  N   UNL     1      -5.754 -12.030  -2.066  0.00  0.00    -0.328 N 
ATOM     21  H   UNL     1      -4.906 -12.502  -2.063  0.00  0.00    +0.145 HD
ATOM     22  H   UNL     1      -6.550 -12.460  -1.716  0.00  0.00    +0.145 HD
ENDBRANCH   8  20
BRANCH   9  23
ATOM     23  C   UNL     1      -8.172 -10.781  -2.033  0.00  0.00    +0.101 C 
ATOM     24  N   UNL     1      -9.086 -11.311  -1.616  0.00  0.00    -0.191 NA
ENDBRANCH   9  23
BRANCH   1  25
ATOM     25  O   UNL     1      -2.117  -6.228  -3.506  0.00  0.00    -0.426 OA
BRANCH  25  26
ATOM     26  C   UNL     1      -1.630  -5.606  -2.420  0.00  0.00    +0.315 C 
ATOM     27  O   UNL     1      -2.304  -5.519  -1.422  0.00  0.00    -0.250 OA
BRANCH  26  31
ATOM     28  C   UNL     1       2.490  -4.882  -1.401  0.00  0.00    -0.011 C 
ATOM     29  C   UNL     1       1.472  -3.775  -1.121  0.00  0.00    +0.004 C 
ATOM     30  C   UNL     1       0.063  -4.373  -1.094  0.00  0.00    +0.015 C 
ATOM     31  C   UNL     1      -0.243  -5.018  -2.447  0.00  0.00    +0.098 C 
ATOM     32  C   UNL     1       0.775  -6.125  -2.727  0.00  0.00    +0.015 C 
ATOM     33  C   UNL     1       2.184  -5.528  -2.754  0.00  0.00    +0.004 C 
BRANCH  28  34
ATOM     34  C   UNL     1       2.407  -5.942  -0.300  0.00  0.00    +0.003 C 
BRANCH  34  35
ATOM     35  C   UNL     1       2.834  -5.326   1.034  0.00  0.00    +0.000 C 
BRANCH  35  37
ATOM     36  C   UNL     1       3.178  -5.769   3.469  0.00  0.00    +0.004 C 
ATOM     37  C   UNL     1       2.750  -6.385   2.135  0.00  0.00    -0.003 C 
ENDBRANCH  35  37
ENDBRANCH  34  35
ENDBRANCH  28  34
ENDBRANCH  26  31
ENDBRANCH  25  26
ENDBRANCH   1  25
TORSDOF 10
