REMARK  Name = ZINC48310134
REMARK  6 active torsions:
REMARK  status: ('A' for Active; 'I' for Inactive)
REMARK    1  A    between atoms: C_8  and  C_10
REMARK    2  A    between atoms: C_13  and  C_15
REMARK    3  A    between atoms: C_15  and  N_16
REMARK    4  A    between atoms: N_19  and  C_20
REMARK    5  A    between atoms: C_20  and  C_21
REMARK    6  A    between atoms: C_24  and  C_27
REMARK                            x       y       z     vdW  Elec       q    Type
REMARK                         _______ _______ _______ _____ _____    ______ ____
ROOT
ATOM      1  C   UNL     1       2.223  -7.587  -0.072  0.00  0.00    +0.180 C 
ENDROOT
BRANCH   1   2
ATOM      2  N   UNL     1       2.036  -8.046   1.306  0.00  0.00    -0.292 N 
ATOM      3  C   UNL     1       1.513  -9.264   1.546  0.00  0.00    +0.300 C 
ATOM      4  O   UNL     1       1.196  -9.983   0.618  0.00  0.00    -0.253 OA
ATOM      5  N   UNL     1       1.342  -9.687   2.814  0.00  0.00    -0.295 N 
ATOM      6  H   UNL     1       2.289  -7.473   2.047  0.00  0.00    +0.151 HD
ATOM      7  H   UNL     1       1.595  -9.114   3.555  0.00  0.00    +0.151 HD
BRANCH   5   8
ATOM      8  C   UNL     1       0.773 -11.012   3.074  0.00  0.00    +0.141 C 
BRANCH   8   9
ATOM      9  C   UNL     1       0.688 -11.239   4.562  0.00  0.00    -0.030 A 
ATOM     10  C   UNL     1       1.753 -11.812   5.233  0.00  0.00    +0.006 A 
ATOM     11  C   UNL     1       1.681 -12.022   6.595  0.00  0.00    +0.019 A 
ATOM     12  C   UNL     1       0.531 -11.655   7.295  0.00  0.00    +0.052 A 
ATOM     13  C   UNL     1      -0.540 -11.076   6.611  0.00  0.00    +0.019 A 
ATOM     14  C   UNL     1      -0.454 -10.867   5.250  0.00  0.00    +0.006 A 
BRANCH  12  15
ATOM     15  C   UNL     1       0.449 -11.870   8.709  0.00  0.00    +0.099 C 
ATOM     16  N   UNL     1       0.385 -12.042   9.830  0.00  0.00    -0.191 NA
ENDBRANCH  12  15
ENDBRANCH   8   9
ENDBRANCH   5   8
ENDBRANCH   1   2
BRANCH   1  20
ATOM     17  C   UNL     1       2.985  -4.014  -0.049  0.00  0.00    +0.160 A 
ATOM     18  C   UNL     1       4.254  -4.513  -0.059  0.00  0.00    +0.052 A 
ATOM     19  C   UNL     1       4.137  -5.915  -0.069  0.00  0.00    +0.047 A 
ATOM     20  C   UNL     1       2.819  -6.202  -0.064  0.00  0.00    +0.123 A 
ATOM     21  O   UNL     1       2.127  -5.053  -0.047  0.00  0.00    -0.456 OA
BRANCH  17  29
ATOM     22  C   UNL     1      -0.016   1.355   0.009  0.00  0.00    +0.002 A 
ATOM     23  C   UNL     1       1.155   2.100   0.002  0.00  0.00    +0.001 A 
ATOM     24  C   UNL     1       2.373   1.447  -0.013  0.00  0.00    +0.017 A 
ATOM     25  C   UNL     1       2.403   0.074  -0.020  0.00  0.00    +0.040 A 
ATOM     26  C   UNL     1       1.227  -0.713  -0.013  0.00  0.00    +0.079 A 
ATOM     27  C   UNL     1       0.002  -0.004   0.002  0.00  0.00    +0.029 A 
ATOM     28  N   UNL     1       1.417  -2.046  -0.023  0.00  0.00    -0.236 NA
ATOM     29  C   UNL     1       2.617  -2.590  -0.037  0.00  0.00    +0.144 A 
ATOM     30  S   UNL     1       3.684  -1.156  -0.040  0.00  0.00    -0.064 S 
ENDBRANCH  17  29
ENDBRANCH   1  20
TORSDOF 6
