REMARK  Name = ZINC13112953
REMARK  7 active torsions:
REMARK  status: ('A' for Active; 'I' for Inactive)
REMARK    1  A    between atoms: C_1  and  N_2
REMARK    2  A    between atoms: N_2  and  C_3
REMARK    3  A    between atoms: N_2  and  S_4
REMARK    4  A    between atoms: S_4  and  C_7
REMARK    5  A    between atoms: C_11  and  N_13
REMARK    6  A    between atoms: N_13  and  S_14
REMARK    7  A    between atoms: S_14  and  C_17
REMARK                            x       y       z     vdW  Elec       q    Type
REMARK                         _______ _______ _______ _____ _____    ______ ____
ROOT
ATOM      1  N   UNL     1       1.018   8.199  -1.549  0.00  0.00    -0.215 N 
ATOM      2  H   UNL     1       1.767   8.701  -1.908  0.00  0.00    +0.174 HD
ENDROOT
BRANCH   1   7
ATOM      3  C   UNL     1      -2.372   7.418  -2.736  0.00  0.00    +0.107 A 
ATOM      4  C   UNL     1      -2.115   7.062  -4.047  0.00  0.00    +0.030 A 
ATOM      5  C   UNL     1      -0.820   7.082  -4.532  0.00  0.00    +0.024 A 
ATOM      6  C   UNL     1       0.222   7.464  -3.707  0.00  0.00    +0.063 A 
ATOM      7  C   UNL     1      -0.033   7.817  -2.388  0.00  0.00    +0.068 A 
ATOM      8  C   UNL     1      -1.335   7.796  -1.905  0.00  0.00    +0.054 A 
ATOM      9 CL   UNL     1       1.847   7.497  -4.318  0.00  0.00    -0.082 Cl
BRANCH   3  10
ATOM     10  S   UNL     1      -4.024   7.390  -2.125  0.00  0.00    +0.060 S 
ATOM     11  O   UNL     1      -4.744   6.478  -2.942  0.00  0.00    -0.153 OA
ATOM     12  O   UNL     1      -3.933   7.242  -0.714  0.00  0.00    -0.153 OA
BRANCH  10  14
ATOM     13  C   UNL     1      -5.374   9.162  -3.659  0.00  0.00    +0.131 C 
ATOM     14  N   UNL     1      -4.674   8.888  -2.402  0.00  0.00    -0.183 NA
ATOM     15  C   UNL     1      -4.548   9.940  -1.389  0.00  0.00    +0.131 C 
ENDBRANCH  10  14
ENDBRANCH   3  10
ENDBRANCH   1   7
BRANCH   1  16
ATOM     16  S   UNL     1       0.985   7.795   0.056  0.00  0.00    +0.072 S 
ATOM     17  O   UNL     1      -0.257   8.260   0.567  0.00  0.00    -0.150 OA
ATOM     18  O   UNL     1       2.233   8.200   0.603  0.00  0.00    -0.150 OA
BRANCH  16  19
ATOM     19  C   UNL     1       0.942   6.036   0.150  0.00  0.00    +0.109 A 
ATOM     20  C   UNL     1       2.138   5.322   0.204  0.00  0.00    +0.029 A 
ATOM     21  C   UNL     1       2.139   3.963   0.278  0.00  0.00    +0.010 A 
ATOM     22  C   UNL     1       0.919   3.266   0.299  0.00  0.00    -0.018 A 
ATOM     23  C   UNL     1       0.881   1.863   0.373  0.00  0.00    +0.008 A 
ATOM     24  C   UNL     1      -0.320   1.223   0.392  0.00  0.00    +0.001 A 
ATOM     25  C   UNL     1      -1.515   1.937   0.332  0.00  0.00    +0.001 A 
ATOM     26  C   UNL     1      -1.517   3.296   0.265  0.00  0.00    +0.008 A 
ATOM     27  C   UNL     1      -0.297   3.993   0.244  0.00  0.00    -0.016 A 
ATOM     28  C   UNL     1      -0.259   5.395   0.169  0.00  0.00    +0.037 A 
ENDBRANCH  16  19
ENDBRANCH   1  16
TORSDOF 5
