REMARK  Name = ZINC15935173
REMARK  9 active torsions:
REMARK  status: ('A' for Active; 'I' for Inactive)
REMARK    1  A    between atoms: C_1  and  C_2
REMARK    2  A    between atoms: C_7  and  N_12
REMARK    3  A    between atoms: C_9  and  C_11
REMARK    4  A    between atoms: C_13  and  C_15
REMARK    5  A    between atoms: C_15  and  C_16
REMARK    6  A    between atoms: C_16  and  N_17
REMARK    7  A    between atoms: N_17  and  S_18
REMARK    8  A    between atoms: S_18  and  C_21
REMARK    9  A    between atoms: C_26  and  N_27
REMARK                            x       y       z     vdW  Elec       q    Type
REMARK                         _______ _______ _______ _____ _____    ______ ____
ROOT
ATOM      1  N   UNL     1       4.163  -6.143   4.686  0.00  0.00    -0.189 NA
ATOM      2  H   UNL     1       4.419  -5.592   5.441  0.00  0.00    +0.148 HD
ENDROOT
BRANCH   1   3
ATOM      3  S   UNL     1       4.359  -7.786   4.756  0.00  0.00    +0.062 S 
ATOM      4  O   UNL     1       4.944  -8.072   6.019  0.00  0.00    -0.153 OA
ATOM      5  O   UNL     1       3.127  -8.360   4.340  0.00  0.00    -0.153 OA
BRANCH   3   6
ATOM      6  C   UNL     1       5.555  -8.221   3.538  0.00  0.00    +0.146 A 
ATOM      7  C   UNL     1       5.202  -9.019   2.463  0.00  0.00    +0.048 A 
ATOM      8  C   UNL     1       6.177  -9.337   1.526  0.00  0.00    +0.038 A 
ATOM      9  C   UNL     1       7.460  -8.852   1.694  0.00  0.00    +0.128 A 
ATOM     10  N   UNL     1       7.767  -8.094   2.729  0.00  0.00    -0.238 NA
ATOM     11  C   UNL     1       6.864  -7.763   3.640  0.00  0.00    +0.143 A 
ATOM     12 BR   UNL     1       5.754 -10.424   0.038  0.00  0.00    -0.049 Br
BRANCH  11  13
ATOM     13  N   UNL     1       7.229  -6.956   4.711  0.00  0.00    -0.342 N 
ATOM     14  H   UNL     1       6.555  -6.641   5.333  0.00  0.00    +0.144 HD
ATOM     15  H   UNL     1       8.159  -6.708   4.837  0.00  0.00    +0.144 HD
ENDBRANCH  11  13
ENDBRANCH   3   6
ENDBRANCH   1   3
BRANCH   1  16
ATOM     16  C   UNL     1       3.605  -5.523   3.482  0.00  0.00    +0.115 C 
BRANCH  16  17
ATOM     17  C   UNL     1       3.176  -4.089   3.799  0.00  0.00    +0.112 C 
BRANCH  17  19
ATOM     18  N   UNL     1       2.155  -2.180   2.602  0.00  0.00    -0.312 N 
ATOM     19  C   UNL     1       2.602  -3.451   2.560  0.00  0.00    +0.215 C 
ATOM     20  O   UNL     1       2.541  -4.081   1.526  0.00  0.00    -0.276 OA
ATOM     21  H   UNL     1       2.203  -1.676   3.429  0.00  0.00    +0.149 HD
BRANCH  18  27
ATOM     22  C   UNL     1       1.309   2.128   0.328  0.00  0.00    +0.008 C 
ATOM     23  C   UNL     1       1.161   0.608   0.234  0.00  0.00    -0.009 C 
ATOM     24  C   UNL     1      -0.321   0.246   0.115  0.00  0.00    +0.003 C 
ATOM     25  C   UNL     1      -0.469  -1.274   0.021  0.00  0.00    +0.002 C 
ATOM     26  C   UNL     1       0.115  -1.922   1.278  0.00  0.00    +0.022 C 
ATOM     27  C   UNL     1       1.596  -1.560   1.398  0.00  0.00    +0.076 C 
ATOM     28  C   UNL     1       1.744  -0.040   1.492  0.00  0.00    +0.009 C 
ATOM     29  C   UNL     1       0.993   0.470   2.723  0.00  0.00    +0.009 C 
ENDBRANCH  18  27
ENDBRANCH  17  19
ENDBRANCH  16  17
ENDBRANCH   1  16
TORSDOF 7
