REMARK  Name = ZINC38612383
REMARK  8 active torsions:
REMARK  status: ('A' for Active; 'I' for Inactive)
REMARK    1  A    between atoms: C_1  and  C_2
REMARK    2  A    between atoms: C_4  and  C_27
REMARK    3  A    between atoms: C_5  and  C_9
REMARK    4  A    between atoms: C_7  and  C_8
REMARK    5  A    between atoms: N_11  and  C_12
REMARK    6  A    between atoms: C_20  and  C_22
REMARK    7  A    between atoms: C_22  and  O_24
REMARK    8  A    between atoms: O_24  and  C_25
REMARK                            x       y       z     vdW  Elec       q    Type
REMARK                         _______ _______ _______ _____ _____    ______ ____
ROOT
ATOM      1  C   UNL     1       1.630  -6.485   1.146  0.00  0.00    +0.053 C 
ATOM      2  C   UNL     1       1.865  -7.620   1.903  0.00  0.00    +0.019 A 
ATOM      3  C   UNL     1       2.186  -7.807   3.269  0.00  0.00    +0.031 A 
ATOM      4  C   UNL     1       2.366  -9.062   3.752  0.00  0.00    +0.042 A 
ATOM      5  C   UNL     1       2.243 -10.188   2.930  0.00  0.00    +0.022 A 
ATOM      6  C   UNL     1       1.939 -10.083   1.614  0.00  0.00    +0.027 A 
ATOM      7  C   UNL     1       1.735  -8.803   1.036  0.00  0.00    +0.045 A 
ATOM      8  N   UNL     1       1.435  -8.441  -0.195  0.00  0.00    -0.367 N 
ATOM      9  C   UNL     1       1.333  -6.979  -0.253  0.00  0.00    +0.234 C 
ATOM     10 CL   UNL     1       2.759  -9.277   5.429  0.00  0.00    -0.084 Cl
ATOM     11  H   UNL     1       1.299  -9.044  -0.943  0.00  0.00    +0.161 HD
ENDROOT
BRANCH   1  14
ATOM     12  C   UNL     1       1.298  -4.199   0.735  0.00  0.00    +0.248 C 
ATOM     13  O   UNL     1       0.872  -4.462  -0.372  0.00  0.00    -0.270 OA
ATOM     14  N   UNL     1       1.654  -5.193   1.573  0.00  0.00    -0.282 N 
ATOM     15  H   UNL     1       1.928  -4.987   2.481  0.00  0.00    +0.155 HD
BRANCH  12  20
ATOM     16  C   UNL     1       1.799   1.286   2.399  0.00  0.00    +0.044 C 
ATOM     17  C   UNL     1       1.668  -0.151   1.963  0.00  0.00    -0.047 A 
ATOM     18  C   UNL     1       1.050  -0.452   0.762  0.00  0.00    +0.007 A 
ATOM     19  C   UNL     1       0.927  -1.765   0.357  0.00  0.00    -0.038 A 
ATOM     20  C   UNL     1       1.427  -2.791   1.162  0.00  0.00    +0.040 A 
ATOM     21  C   UNL     1       2.050  -2.479   2.372  0.00  0.00    +0.017 A 
ATOM     22  C   UNL     1       2.171  -1.161   2.763  0.00  0.00    -0.047 A 
ATOM     23  C   UNL     1       2.848  -0.823   4.066  0.00  0.00    +0.044 C 
ATOM     24  C   UNL     1       0.253  -2.092  -0.951  0.00  0.00    +0.044 C 
ENDBRANCH  12  20
ENDBRANCH   1  14
BRANCH   9  25
ATOM     25  C   UNL     1       2.346  -6.429  -1.223  0.00  0.00    +0.335 C 
ATOM     26  O   UNL     1       3.429  -6.955  -1.329  0.00  0.00    -0.248 OA
BRANCH  25  27
ATOM     27  O   UNL     1       2.046  -5.354  -1.970  0.00  0.00    -0.466 OA
ATOM     28  C   UNL     1       3.054  -4.887  -2.869  0.00  0.00    +0.280 C 
ENDBRANCH  25  27
ENDBRANCH   9  25
TORSDOF 4
