REMARK  Name = ZINC43730522
REMARK  8 active torsions:
REMARK  status: ('A' for Active; 'I' for Inactive)
REMARK    1  A    between atoms: C_1  and  C_2
REMARK    2  A    between atoms: C_2  and  C_3
REMARK    3  A    between atoms: C_2  and  C_4
REMARK    4  A    between atoms: C_2  and  C_5
REMARK    5  A    between atoms: C_12  and  C_14
REMARK    6  A    between atoms: C_19  and  C_22
REMARK    7  A    between atoms: C_22  and  C_23
REMARK    8  A    between atoms: N_29  and  C_30
REMARK                            x       y       z     vdW  Elec       q    Type
REMARK                         _______ _______ _______ _____ _____    ______ ____
ROOT
ATOM      1  C   UNL     1       5.893  -0.434  -4.730  0.00  0.00    +0.256 C 
ATOM      2  O   UNL     1       6.544   0.549  -4.431  0.00  0.00    -0.269 OA
ATOM      3  N   UNL     1       6.300  -1.231  -5.738  0.00  0.00    -0.260 N 
ATOM      4  C   UNL     1       7.462  -0.930  -6.435  0.00  0.00    +0.165 A 
ATOM      5  N   UNL     1       8.005  -1.583  -7.441  0.00  0.00    -0.229 NA
ATOM      6  C   UNL     1       9.124  -1.163  -8.001  0.00  0.00    +0.058 A 
ATOM      7  C   UNL     1       9.682  -0.036  -7.495  0.00  0.00    +0.072 A 
ATOM      8  S   UNL     1       8.515   0.363  -6.205  0.00  0.00    -0.060 S 
ATOM      9  H   UNL     1       5.780  -2.015  -5.976  0.00  0.00    +0.157 HD
ENDROOT
BRANCH   1  16
ATOM     10  C   UNL     1       0.718  -0.497  -1.257  0.00  0.00    -0.001 C 
ATOM     11  C   UNL     1       0.735  -2.029  -1.266  0.00  0.00    +0.009 C 
ATOM     12  C   UNL     1       1.206  -2.509  -2.645  0.00  0.00    +0.043 C 
ATOM     13  C   UNL     1       2.444  -1.747  -3.016  0.00  0.00    -0.006 A 
ATOM     14  C   UNL     1       2.906  -0.606  -2.429  0.00  0.00    -0.036 A 
ATOM     15  C   UNL     1       4.081  -0.074  -2.940  0.00  0.00    +0.024 A 
ATOM     16  C   UNL     1       4.666  -0.752  -3.994  0.00  0.00    +0.075 A 
ATOM     17  S   UNL     1       3.538  -2.114  -4.223  0.00  0.00    -0.088 S 
ATOM     18  C   UNL     1       2.151   0.035  -1.268  0.00  0.00    +0.040 C 
BRANCH  10  20
ATOM     19  C   UNL     1      -0.019   1.526   0.010  0.00  0.00    +0.011 C 
ATOM     20  C   UNL     1       0.002  -0.004   0.002  0.00  0.00    -0.035 C 
ATOM     21  C   UNL     1       0.742  -0.511   1.242  0.00  0.00    +0.011 C 
ATOM     22  C   UNL     1      -1.433  -0.534   0.013  0.00  0.00    +0.011 C 
ENDBRANCH  10  20
ENDBRANCH   1  16
BRANCH   6  23
ATOM     23  C   UNL     1       9.753  -1.904  -9.153  0.00  0.00    +0.132 C 
BRANCH  23  24
ATOM     24  C   UNL     1       9.977  -3.343  -8.762  0.00  0.00    +0.137 A 
ATOM     25  N   UNL     1       9.673  -3.869  -7.620  0.00  0.00    -0.158 NA
ATOM     26  N   UNL     1      10.037  -5.222  -7.652  0.00  0.00    -0.254 N 
ATOM     27  H   UNL     1       9.926  -5.864  -6.933  0.00  0.00    +0.191 HD
ATOM     28  C   UNL     1      10.569  -5.465  -8.868  0.00  0.00    +0.175 A 
ATOM     29  S   UNL     1      11.174  -6.966  -9.427  0.00  0.00    -0.011 S 
ATOM     30  N   UNL     1      10.531  -4.311  -9.563  0.00  0.00    -0.310 N 
ATOM     31  C   UNL     1      11.004  -4.121 -10.936  0.00  0.00    +0.152 C 
ENDBRANCH  23  24
ENDBRANCH   6  23
TORSDOF 4
