REMARK  Name = ZINC21602803
REMARK  7 active torsions:
REMARK  status: ('A' for Active; 'I' for Inactive)
REMARK    1  A    between atoms: C_1  and  C_2
REMARK    2  A    between atoms: C_2  and  C_4
REMARK    3  A    between atoms: C_2  and  O_18
REMARK    4  A    between atoms: N_6  and  C_7
REMARK    5  A    between atoms: C_8  and  C_15
REMARK    6  A    between atoms: O_18  and  C_19
REMARK    7  A    between atoms: C_19  and  C_21
REMARK                            x       y       z     vdW  Elec       q    Type
REMARK                         _______ _______ _______ _____ _____    ______ ____
ROOT
ATOM      1  C   UNL     1      -1.788   0.751  -5.193  0.00  0.00    +0.062 C 
ATOM      2  C   UNL     1      -1.803   2.255  -4.912  0.00  0.00    +0.259 C 
ENDROOT
BRANCH   2   3
ATOM      3  C   UNL     1      -2.257   2.497  -3.496  0.00  0.00    +0.258 C 
ATOM      4  O   UNL     1      -3.300   3.079  -3.285  0.00  0.00    -0.271 OA
ATOM      5  N   UNL     1      -1.504   2.067  -2.463  0.00  0.00    -0.276 N 
ATOM      6  H   UNL     1      -0.558   1.540  -2.655  0.00  0.00    +0.155 HD
BRANCH   5   7
ATOM      7  C   UNL     1      -1.923   2.290  -1.160  0.00  0.00    +0.084 A 
ATOM      8  C   UNL     1      -1.294   1.929   0.019  0.00  0.00    +0.068 A 
ATOM      9  C   UNL     1      -1.949   2.292   1.275  0.00  0.00    -0.023 A 
ATOM     10  C   UNL     1      -3.116   2.947   1.141  0.00  0.00    -0.004 A 
ATOM     11  S   UNL     1      -3.359   3.086  -0.613  0.00  0.00    -0.077 S 
ATOM     12  C   UNL     1      -3.727   3.290   2.473  0.00  0.00    +0.043 C 
ATOM     13  C   UNL     1      -2.568   3.137   3.483  0.00  0.00    +0.010 C 
ATOM     14  C   UNL     1      -1.659   2.119   2.766  0.00  0.00    +0.037 C 
BRANCH   8  15
ATOM     15  C   UNL     1      -0.014   1.213   0.009  0.00  0.00    +0.244 C 
ATOM     16  O   UNL     1       0.002  -0.004   0.002  0.00  0.00    -0.270 OA
ATOM     17  N   UNL     1       1.143   1.903   0.001  0.00  0.00    -0.325 N 
ATOM     18  H   UNL     1       2.103   1.366  -0.006  0.00  0.00    +0.145 HD
ATOM     19  H   UNL     1       1.129   3.002   0.003  0.00  0.00    +0.145 HD
ENDBRANCH   8  15
ENDBRANCH   5   7
ENDBRANCH   2   3
BRANCH   2  20
ATOM     20  O   UNL     1      -2.715   2.910  -5.832  0.00  0.00    -0.449 OA
BRANCH  20  21
ATOM     21  C   UNL     1      -2.202   3.341  -7.000  0.00  0.00    +0.341 C 
ATOM     22  O   UNL     1      -1.024   3.174  -7.244  0.00  0.00    -0.245 OA
BRANCH  21  23
ATOM     23  C   UNL     1      -3.071   4.016  -7.986  0.00  0.00    +0.073 A 
ATOM     24  C   UNL     1      -3.249   5.423  -7.961  0.00  0.00    +0.015 A 
ATOM     25  C   UNL     1      -2.599   6.225  -7.014  0.00  0.00    +0.011 A 
ATOM     26  C   UNL     1      -2.794   7.574  -7.027  0.00  0.00    +0.001 A 
ATOM     27  C   UNL     1      -3.627   8.166  -7.975  0.00  0.00    +0.002 A 
ATOM     28  C   UNL     1      -4.267   7.416  -8.912  0.00  0.00    +0.028 A 
ATOM     29  C   UNL     1      -4.090   6.020  -8.931  0.00  0.00    +0.072 A 
ATOM     30  N   UNL     1      -4.704   5.261  -9.840  0.00  0.00    -0.251 NA
ATOM     31  C   UNL     1      -4.559   3.955  -9.879  0.00  0.00    +0.046 A 
ATOM     32  C   UNL     1      -3.745   3.292  -8.962  0.00  0.00    -0.012 A 
ATOM     33  C   UNL     1      -3.766   1.805  -9.239  0.00  0.00    +0.038 C 
ATOM     34  C   UNL     1      -5.005   1.578 -10.130  0.00  0.00    +0.011 C 
ATOM     35  C   UNL     1      -5.171   2.943 -10.829  0.00  0.00    +0.056 C 
ENDBRANCH  21  23
ENDBRANCH  20  21
ENDBRANCH   2  20
TORSDOF 6
