REMARK  Name = ZINC39667171
REMARK  12 active torsions:
REMARK  status: ('A' for Active; 'I' for Inactive)
REMARK    1  A    between atoms: C_1  and  C_2
REMARK    2  A    between atoms: C_5  and  C_9
REMARK    3  A    between atoms: C_6  and  C_8
REMARK    4  A    between atoms: C_9  and  C_10
REMARK    5  A    between atoms: C_10  and  N_11
REMARK    6  A    between atoms: C_12  and  C_14
REMARK    7  A    between atoms: C_25  and  C_27
REMARK    8  A    between atoms: C_27  and  C_29
REMARK    9  A    between atoms: C_27  and  O_32
REMARK   10  A    between atoms: C_29  and  C_30
REMARK   11  A    between atoms: C_29  and  C_31
REMARK   12  A    between atoms: O_32  and  C_33
REMARK                            x       y       z     vdW  Elec       q    Type
REMARK                         _______ _______ _______ _____ _____    ______ ____
ROOT
ATOM      1  C   UNL     1      -1.304  -8.867   0.063  0.00  0.00    +0.100 C 
ATOM      2  C   UNL     1      -0.756  -9.213   1.466  0.00  0.00    +0.121 C 
ATOM      3  N   UNL     1      -1.963  -9.469   2.286  0.00  0.00    -0.297 N 
ATOM      4  C   UNL     1      -2.876 -10.205   1.379  0.00  0.00    +0.115 C 
ATOM      5  C   UNL     1      -2.694  -9.523   0.009  0.00  0.00    -0.004 C 
ATOM      6  C   UNL     1      -2.746 -10.560  -1.108  0.00  0.00    -0.010 C 
ATOM      7  C   UNL     1      -4.154 -11.156  -1.181  0.00  0.00    -0.082 C 
ATOM      8  N   UNL     1      -5.128 -10.087  -1.433  0.00  0.00    +0.379 N 
ATOM      9  C   UNL     1      -5.138  -9.144  -0.308  0.00  0.00    -0.082 C 
ATOM     10  C   UNL     1      -3.771  -8.462  -0.200  0.00  0.00    -0.010 C 
ATOM     11  C   UNL     1      -2.181  -9.113   3.568  0.00  0.00    +0.257 C 
ATOM     12  O   UNL     1      -3.193  -9.472   4.133  0.00  0.00    -0.272 OA
ATOM     13  H   UNL     1      -4.877  -9.598  -2.279  0.00  0.00    -0.086 HD
ATOM     14  H   UNL     1      -6.047 -10.490  -1.540  0.00  0.00    -0.086 HD
ENDROOT
BRANCH   1  16
ATOM     15  N   UNL     1      -1.040  -6.790  -1.254  0.00  0.00    -0.315 N 
ATOM     16  C   UNL     1      -1.421  -7.374  -0.101  0.00  0.00    +0.218 C 
ATOM     17  O   UNL     1      -1.860  -6.697   0.805  0.00  0.00    -0.275 OA
ATOM     18  H   UNL     1      -0.690  -7.331  -1.979  0.00  0.00    +0.149 HD
BRANCH  15  19
ATOM     19  C   UNL     1      -1.154  -5.338  -1.413  0.00  0.00    +0.109 C 
BRANCH  19  20
ATOM     20  C   UNL     1      -0.657  -4.937  -2.803  0.00  0.00    +0.054 C 
BRANCH  20  25
ATOM     21  C   UNL     1      -1.110   0.790  -3.428  0.00  0.00    +0.044 C 
ATOM     22  C   UNL     1      -0.992  -0.703  -3.265  0.00  0.00    -0.050 A 
ATOM     23  C   UNL     1      -2.002  -1.530  -3.721  0.00  0.00    +0.003 A 
ATOM     24  C   UNL     1      -1.893  -2.900  -3.572  0.00  0.00    +0.004 A 
ATOM     25  C   UNL     1      -0.775  -3.443  -2.967  0.00  0.00    -0.043 A 
ATOM     26  C   UNL     1       0.235  -2.616  -2.512  0.00  0.00    -0.047 A 
ATOM     27  C   UNL     1       0.128  -1.246  -2.665  0.00  0.00    +0.007 A 
ATOM     28  C   UNL     1       1.454  -3.208  -1.853  0.00  0.00    +0.044 C 
ENDBRANCH  20  25
ENDBRANCH  19  20
ENDBRANCH  15  19
ENDBRANCH   1  16
BRANCH  11  29
ATOM     29  C   UNL     1      -1.168  -8.271   4.299  0.00  0.00    +0.261 C 
BRANCH  29  30
ATOM     30  C   UNL     1      -1.794  -6.923   4.665  0.00  0.00    +0.033 C 
ATOM     31  C   UNL     1      -0.790  -6.096   5.470  0.00  0.00    +0.011 C 
ATOM     32  C   UNL     1      -2.167  -6.170   3.386  0.00  0.00    +0.011 C 
ENDBRANCH  29  30
BRANCH  29  33
ATOM     33  O   UNL     1      -0.759  -8.945   5.490  0.00  0.00    -0.479 OA
BRANCH  33  34
ATOM     34  C   UNL     1       0.548  -8.831   5.846  0.00  0.00    +0.122 A 
ATOM     35  C   UNL     1       1.009  -9.440   7.003  0.00  0.00    +0.045 A 
ATOM     36  C   UNL     1       2.338  -9.323   7.362  0.00  0.00    +0.004 A 
ATOM     37  C   UNL     1       3.208  -8.599   6.568  0.00  0.00    +0.000 A 
ATOM     38  C   UNL     1       2.751  -7.991   5.414  0.00  0.00    +0.004 A 
ATOM     39  C   UNL     1       1.425  -8.110   5.048  0.00  0.00    +0.045 A 
ENDBRANCH  33  34
ENDBRANCH  29  33
ENDBRANCH  11  29
TORSDOF 8
