REMARK  Name = ZINC04898248
REMARK  11 active torsions:
REMARK  status: ('A' for Active; 'I' for Inactive)
REMARK    1  A    between atoms: C_1  and  C_2
REMARK    2  A    between atoms: C_2  and  C_3
REMARK    3  A    between atoms: C_2  and  C_4
REMARK    4  A    between atoms: C_2  and  C_5
REMARK    5  A    between atoms: C_15  and  S_18
REMARK    6  A    between atoms: S_18  and  C_19
REMARK    7  A    between atoms: C_19  and  C_20
REMARK    8  A    between atoms: N_22  and  C_23
REMARK    9  A    between atoms: C_23  and  C_24
REMARK   10  A    between atoms: C_23  and  C_25
REMARK   11  A    between atoms: C_23  and  C_26
REMARK                            x       y       z     vdW  Elec       q    Type
REMARK                         _______ _______ _______ _____ _____    ______ ____
ROOT
ATOM      1  C   UNL     1       2.167   2.261   0.006  0.00  0.00    +0.123 A 
ATOM      2  N   UNL     1       1.468   1.170  -0.009  0.00  0.00    -0.233 NA
ATOM      3  C   UNL     1       0.109   1.177   0.015  0.00  0.00    +0.077 A 
ATOM      4  C   UNL     1      -0.624  -0.010  -0.003  0.00  0.00    +0.028 A 
ATOM      5  C   UNL     1      -2.000   0.034   0.021  0.00  0.00    +0.002 A 
ATOM      6  C   UNL     1      -2.671   1.248   0.063  0.00  0.00    +0.001 A 
ATOM      7  C   UNL     1      -1.969   2.435   0.081  0.00  0.00    +0.014 A 
ATOM      8  C   UNL     1      -0.577   2.411   0.057  0.00  0.00    +0.045 A 
ATOM      9  C   UNL     1       0.226   3.640   0.073  0.00  0.00    +0.172 A 
ATOM     10  N   UNL     1       1.603   3.504   0.047  0.00  0.00    -0.257 N 
ATOM     11  C   UNL     1       2.094   4.777   0.070  0.00  0.00    +0.198 A 
ATOM     12  N   UNL     1       1.063   5.592   0.108  0.00  0.00    -0.122 NA
ATOM     13  N   UNL     1      -0.036   4.921   0.104  0.00  0.00    -0.128 NA
ENDROOT
BRANCH   1  15
ATOM     14  C   UNL     1       4.075   0.680  -0.066  0.00  0.00    +0.019 C 
ATOM     15  C   UNL     1       3.670   2.154  -0.022  0.00  0.00    +0.021 C 
ATOM     16  C   UNL     1       4.209   2.869  -1.263  0.00  0.00    +0.019 C 
ATOM     17  C   UNL     1       4.252   2.806   1.234  0.00  0.00    +0.019 C 
ENDBRANCH   1  15
BRANCH  11  18
ATOM     18  S   UNL     1       3.793   5.242   0.053  0.00  0.00    -0.076 S 
BRANCH  18  19
ATOM     19  C   UNL     1       3.626   7.044   0.100  0.00  0.00    +0.173 C 
BRANCH  19  20
ATOM     20  C   UNL     1       4.995   7.675   0.093  0.00  0.00    +0.224 C 
ATOM     21  O   UNL     1       5.985   6.976   0.059  0.00  0.00    -0.275 OA
ATOM     22  N   UNL     1       5.118   9.017   0.124  0.00  0.00    -0.310 N 
ATOM     23  H   UNL     1       4.326   9.576   0.151  0.00  0.00    +0.149 HD
BRANCH  22  24
ATOM     24  C   UNL     1       6.448   9.631   0.117  0.00  0.00    +0.026 C 
ATOM     25  C   UNL     1       7.192   9.220  -1.155  0.00  0.00    +0.031 C 
ATOM     26  C   UNL     1       6.307  11.154   0.157  0.00  0.00    +0.031 C 
ATOM     27  C   UNL     1       7.234   9.159   1.342  0.00  0.00    +0.031 C 
ENDBRANCH  22  24
ENDBRANCH  19  20
ENDBRANCH  18  19
ENDBRANCH  11  18
TORSDOF 5
