REMARK  Name = ZINC09332098
REMARK  3 active torsions:
REMARK  status: ('A' for Active; 'I' for Inactive)
REMARK    1  A    between atoms: C_1  and  C_2
REMARK    2  A    between atoms: N_20  and  C_23
REMARK    3  A    between atoms: C_28  and  C_29
REMARK                            x       y       z     vdW  Elec       q    Type
REMARK                         _______ _______ _______ _____ _____    ______ ____
ROOT
ATOM      1  C   UNL     1      -6.417   4.071  -1.730  0.00  0.00    +0.044 C 
ATOM      2  C   UNL     1      -5.620   4.268  -0.466  0.00  0.00    -0.050 A 
ATOM      3  C   UNL     1      -5.905   5.329   0.374  0.00  0.00    +0.005 A 
ATOM      4  C   UNL     1      -5.180   5.514   1.533  0.00  0.00    +0.024 A 
ATOM      5  C   UNL     1      -4.154   4.632   1.866  0.00  0.00    +0.036 A 
ATOM      6  C   UNL     1      -3.876   3.569   1.012  0.00  0.00    -0.027 A 
ATOM      7  C   UNL     1      -4.602   3.388  -0.143  0.00  0.00    +0.008 A 
ATOM      8  C   UNL     1      -2.736   2.820   1.645  0.00  0.00    +0.053 C 
ATOM      9  C   UNL     1      -3.118   1.365   1.939  0.00  0.00    +0.089 C 
ATOM     10  C   UNL     1      -1.819   0.555   1.671  0.00  0.00    +0.074 C 
ATOM     11  C   UNL     1      -0.771   1.601   1.244  0.00  0.00    -0.054 C 
ATOM     12  C   UNL     1      -1.990   2.388  -0.615  0.00  0.00    -0.076 C 
ATOM     13  C   UNL     1      -0.796   1.615  -1.209  0.00  0.00    -0.020 C 
ATOM     14  C   UNL     1      -0.013   1.086   0.008  0.00  0.00    -0.016 C 
ATOM     15  C   UNL     1      -1.458   0.012   3.035  0.00  0.00    +0.228 C 
ATOM     16  O   UNL     1      -0.497  -0.685   3.279  0.00  0.00    -0.275 OA
ATOM     17  N   UNL     1      -2.365   0.421   3.930  0.00  0.00    -0.210 N 
ATOM     18  C   UNL     1      -3.355   1.189   3.422  0.00  0.00    +0.229 C 
ATOM     19  O   UNL     1      -4.281   1.664   4.044  0.00  0.00    -0.275 OA
ATOM     20  C   UNL     1      -2.430   3.574   2.911  0.00  0.00    +0.212 C 
ATOM     21  O   UNL     1      -1.573   3.303   3.725  0.00  0.00    -0.277 OA
ATOM     22  N   UNL     1      -3.292   4.607   2.965  0.00  0.00    -0.286 N 
ATOM     23  H   UNL     1      -3.313   5.258   3.683  0.00  0.00    +0.155 HD
ATOM     24  N   UNL     1      -1.567   2.708   0.759  0.00  0.00    +0.395 N 
ATOM     25  H   UNL     1      -1.026   3.580   0.770  0.00  0.00    -0.079 HD
ENDROOT
BRANCH  17  26
ATOM     26  C   UNL     1      -2.298   0.077   5.287  0.00  0.00    +0.048 A 
ATOM     27  C   UNL     1      -1.607   0.888   6.177  0.00  0.00    +0.044 A 
ATOM     28  C   UNL     1      -1.544   0.546   7.515  0.00  0.00    +0.043 A 
ATOM     29  C   UNL     1      -2.169  -0.603   7.967  0.00  0.00    +0.020 A 
ATOM     30  C   UNL     1      -2.857  -1.412   7.082  0.00  0.00    +0.006 A 
ATOM     31  C   UNL     1      -2.928  -1.072   5.745  0.00  0.00    -0.029 A 
ATOM     32  C   UNL     1      -3.684  -1.952   4.782  0.00  0.00    +0.045 C 
ATOM     33 CL   UNL     1      -0.680   1.559   8.629  0.00  0.00    -0.083 Cl
ENDBRANCH  17  26
TORSDOF 1
