REMARK  Name = ZINC16309432
REMARK  9 active torsions:
REMARK  status: ('A' for Active; 'I' for Inactive)
REMARK    1  A    between atoms: C_1  and  C_2
REMARK    2  A    between atoms: C_2  and  C_3
REMARK    3  A    between atoms: C_3  and  C_4
REMARK    4  A    between atoms: C_4  and  C_5
REMARK    5  A    between atoms: C_5  and  C_27
REMARK    6  A    between atoms: N_6  and  N_7
REMARK    7  A    between atoms: C_8  and  S_10
REMARK    8  A    between atoms: S_10  and  C_11
REMARK    9  A    between atoms: N_16  and  C_19
REMARK                            x       y       z     vdW  Elec       q    Type
REMARK                         _______ _______ _______ _____ _____    ______ ____
ROOT
ATOM      1  N   UNL     1      -0.546  -2.557   3.600  0.00  0.00    -0.217 N 
ATOM      2  C   UNL     1      -1.240  -2.802   4.764  0.00  0.00    +0.146 C 
ATOM      3  N   UNL     1      -0.609  -3.234   5.821  0.00  0.00    -0.380 N 
ATOM      4  H   UNL     1      -1.015  -2.235   2.814  0.00  0.00    +0.176 HD
ATOM      5  H   UNL     1      -1.098  -3.407   6.640  0.00  0.00    +0.158 HD
ATOM      6  H   UNL     1       0.349  -3.383   5.787  0.00  0.00    +0.158 HD
ENDROOT
BRANCH   1   8
ATOM      7  C   UNL     1       1.492  -2.540   2.454  0.00  0.00    +0.066 C 
ATOM      8  N   UNL     1       0.838  -2.771   3.551  0.00  0.00    -0.185 NA
BRANCH   7   9
ATOM      9  C   UNL     1       2.948  -2.766   2.402  0.00  0.00    -0.002 A 
ATOM     10  C   UNL     1       3.656  -2.513   1.225  0.00  0.00    +0.010 A 
ATOM     11  C   UNL     1       5.018  -2.726   1.184  0.00  0.00    +0.001 A 
ATOM     12  C   UNL     1       5.683  -3.190   2.305  0.00  0.00    +0.000 A 
ATOM     13  C   UNL     1       4.989  -3.443   3.475  0.00  0.00    +0.001 A 
ATOM     14  C   UNL     1       3.627  -3.228   3.532  0.00  0.00    +0.010 A 
ENDBRANCH   7   9
BRANCH   7  15
ATOM     15  C   UNL     1       0.763  -2.041   1.233  0.00  0.00    +0.057 C 
BRANCH  15  16
ATOM     16  C   UNL     1       0.742  -0.511   1.242  0.00  0.00    +0.006 C 
BRANCH  16  18
ATOM     17  C   UNL     1      -0.019   1.526   0.010  0.00  0.00    +0.004 C 
ATOM     18  C   UNL     1       0.002  -0.004   0.002  0.00  0.00    -0.003 C 
ENDBRANCH  16  18
ENDBRANCH  15  16
ENDBRANCH   7  15
ENDBRANCH   1   8
BRANCH   2  19
ATOM     19  S   UNL     1      -2.980  -2.532   4.825  0.00  0.00    -0.078 S 
BRANCH  19  20
ATOM     20  C   UNL     1      -3.434  -2.983   6.523  0.00  0.00    +0.149 C 
ATOM     21  C   UNL     1      -4.959  -2.869   6.726  0.00  0.00    +0.120 C 
ATOM     22  C   UNL     1      -5.095  -1.816   7.804  0.00  0.00    +0.228 C 
ATOM     23  O   UNL     1      -6.142  -1.419   8.268  0.00  0.00    -0.275 OA
ATOM     24  N   UNL     1      -3.877  -1.394   8.165  0.00  0.00    -0.208 N 
ATOM     25  C   UNL     1      -2.866  -1.985   7.509  0.00  0.00    +0.240 C 
ATOM     26  O   UNL     1      -1.687  -1.757   7.677  0.00  0.00    -0.274 OA
BRANCH  24  27
ATOM     27  C   UNL     1      -3.673  -0.416   9.148  0.00  0.00    +0.064 A 
ATOM     28  C   UNL     1      -3.518  -0.787  10.477  0.00  0.00    +0.045 A 
ATOM     29  C   UNL     1      -3.317   0.179  11.444  0.00  0.00    +0.043 A 
ATOM     30  C   UNL     1      -3.270   1.516  11.090  0.00  0.00    +0.021 A 
ATOM     31  C   UNL     1      -3.424   1.889   9.768  0.00  0.00    +0.023 A 
ATOM     32  C   UNL     1      -3.620   0.926   8.795  0.00  0.00    +0.063 A 
ATOM     33 CL   UNL     1      -3.807   1.395   7.134  0.00  0.00    -0.082 Cl
ATOM     34 CL   UNL     1      -3.122  -0.285  13.106  0.00  0.00    -0.083 Cl
ENDBRANCH  24  27
ENDBRANCH  19  20
ENDBRANCH   2  19
TORSDOF 8
