REMARK  Name = ZINC09965943
REMARK  6 active torsions:
REMARK  status: ('A' for Active; 'I' for Inactive)
REMARK    1  A    between atoms: C_1  and  C_2
REMARK    2  A    between atoms: C_5  and  N_9
REMARK    3  A    between atoms: C_18  and  S_19
REMARK    4  A    between atoms: S_19  and  C_20
REMARK    5  A    between atoms: C_20  and  C_21
REMARK    6  A    between atoms: C_28  and  C_32
REMARK                            x       y       z     vdW  Elec       q    Type
REMARK                         _______ _______ _______ _____ _____    ______ ____
ROOT
ATOM      1  N   UNL     1      -0.115   1.168   4.055  0.00  0.00    -0.255 N 
ATOM      2  C   UNL     1       0.223   0.115   4.822  0.00  0.00    +0.268 A 
ATOM      3  O   UNL     1      -0.434  -0.166   5.810  0.00  0.00    -0.267 OA
ATOM      4  C   UNL     1       1.366  -0.668   4.465  0.00  0.00    +0.076 A 
ATOM      5  C   UNL     1       1.911  -1.842   5.150  0.00  0.00    -0.023 A 
ATOM      6  C   UNL     1       3.008  -2.410   4.611  0.00  0.00    -0.004 A 
ATOM      7  S   UNL     1       3.378  -1.431   3.180  0.00  0.00    -0.073 S 
ATOM      8  C   UNL     1       2.052  -0.258   3.310  0.00  0.00    +0.117 A 
ATOM      9  N   UNL     1       1.665   0.789   2.592  0.00  0.00    -0.215 NA
ATOM     10  C   UNL     1       0.608   1.494   2.942  0.00  0.00    +0.178 A 
ATOM     11  C   UNL     1       3.751  -3.610   5.116  0.00  0.00    +0.046 C 
ATOM     12  C   UNL     1       2.863  -4.334   6.139  0.00  0.00    -0.009 C 
ATOM     13  C   UNL     1       2.305  -3.301   7.122  0.00  0.00    +0.008 C 
ATOM     14  C   UNL     1       1.280  -2.412   6.418  0.00  0.00    +0.037 C 
ATOM     15  C   UNL     1       3.695  -5.369   6.898  0.00  0.00    +0.008 C 
ENDROOT
BRANCH   1  20
ATOM     16  C   UNL     1      -4.633   4.301   5.462  0.00  0.00    +0.045 C 
ATOM     17  C   UNL     1      -3.433   3.469   5.088  0.00  0.00    -0.032 A 
ATOM     18  C   UNL     1      -2.184   3.800   5.578  0.00  0.00    +0.007 A 
ATOM     19  C   UNL     1      -1.083   3.037   5.242  0.00  0.00    +0.026 A 
ATOM     20  C   UNL     1      -1.230   1.941   4.402  0.00  0.00    +0.053 A 
ATOM     21  C   UNL     1      -2.486   1.610   3.910  0.00  0.00    +0.046 A 
ATOM     22  C   UNL     1      -3.585   2.375   4.254  0.00  0.00    +0.046 A 
ATOM     23 CL   UNL     1      -5.155   1.962   3.641  0.00  0.00    -0.083 Cl
ENDBRANCH   1  20
BRANCH  10  24
ATOM     24  S   UNL     1       0.123   2.878   1.965  0.00  0.00    -0.078 S 
BRANCH  24  25
ATOM     25  C   UNL     1       1.403   2.824   0.686  0.00  0.00    +0.173 C 
BRANCH  25  26
ATOM     26  C   UNL     1       1.184   3.950  -0.291  0.00  0.00    +0.231 C 
ATOM     27  O   UNL     1       0.255   4.713  -0.138  0.00  0.00    -0.274 OA
ATOM     28  N   UNL     1       2.022   4.108  -1.335  0.00  0.00    -0.240 N 
ATOM     29  C   UNL     1       1.826   5.115  -2.209  0.00  0.00    +0.303 C 
ATOM     30  O   UNL     1       0.895   5.881  -2.056  0.00  0.00    -0.253 OA
ATOM     31  N   UNL     1       2.664   5.274  -3.253  0.00  0.00    -0.313 N 
ATOM     32  H   UNL     1       2.765   3.498  -1.457  0.00  0.00    +0.159 HD
ATOM     33  H   UNL     1       3.407   4.663  -3.375  0.00  0.00    +0.146 HD
ATOM     34  H   UNL     1       2.523   5.999  -3.882  0.00  0.00    +0.146 HD
ENDBRANCH  25  26
ENDBRANCH  24  25
ENDBRANCH  10  24
TORSDOF 4
