REMARK  Name = ZINC64344595
REMARK  5 active torsions:
REMARK  status: ('A' for Active; 'I' for Inactive)
REMARK    1  A    between atoms: C_1  and  C_2
REMARK    2  A    between atoms: C_5  and  N_9
REMARK    3  A    between atoms: C_10  and  C_12
REMARK    4  A    between atoms: C_12  and  N_13
REMARK    5  A    between atoms: C_21  and  C_23
REMARK                            x       y       z     vdW  Elec       q    Type
REMARK                         _______ _______ _______ _____ _____    ______ ____
ROOT
ATOM      1  N   UNL     1       0.669  -7.007  -2.166  0.00  0.00    -0.309 N 
ATOM      2  C   UNL     1      -0.693  -7.080  -2.464  0.00  0.00    +0.034 A 
ATOM      3  C   UNL     1      -1.790  -7.055  -1.600  0.00  0.00    +0.023 A 
ATOM      4  C   UNL     1      -3.071  -7.141  -2.101  0.00  0.00    +0.002 A 
ATOM      5  C   UNL     1      -3.280  -7.254  -3.464  0.00  0.00    +0.000 A 
ATOM      6  C   UNL     1      -2.199  -7.280  -4.325  0.00  0.00    +0.005 A 
ATOM      7  C   UNL     1      -0.913  -7.193  -3.828  0.00  0.00    -0.024 A 
ATOM      8  C   UNL     1       0.425  -7.197  -4.532  0.00  0.00    +0.069 C 
ATOM      9  C   UNL     1       1.457  -7.066  -3.400  0.00  0.00    +0.164 C 
ENDROOT
BRANCH   9  10
ATOM     10  C   UNL     1       2.262  -5.803  -3.567  0.00  0.00    +0.231 C 
ATOM     11  O   UNL     1       1.937  -4.794  -2.977  0.00  0.00    -0.274 OA
ATOM     12  N   UNL     1       3.344  -5.794  -4.371  0.00  0.00    -0.328 N 
ATOM     13  H   UNL     1       3.604  -6.601  -4.842  0.00  0.00    +0.145 HD
ATOM     14  H   UNL     1       3.862  -4.981  -4.478  0.00  0.00    +0.145 HD
ENDBRANCH   9  10
BRANCH   1  15
ATOM     15  C   UNL     1       1.228  -6.883  -0.818  0.00  0.00    +0.201 C 
BRANCH  15  17
ATOM     16  N   UNL     1       1.769  -8.380   1.076  0.00  0.00    -0.283 N 
ATOM     17  C   UNL     1       1.371  -8.253  -0.205  0.00  0.00    +0.235 C 
ATOM     18  O   UNL     1       1.129  -9.241  -0.866  0.00  0.00    -0.274 OA
ATOM     19  H   UNL     1       1.889  -7.590   1.627  0.00  0.00    +0.155 HD
BRANCH  16  24
ATOM     20  C   UNL     1       2.741 -13.531   3.247  0.00  0.00    +0.044 C 
ATOM     21  C   UNL     1       2.483 -12.163   2.671  0.00  0.00    -0.049 A 
ATOM     22  C   UNL     1       2.488 -11.979   1.301  0.00  0.00    +0.005 A 
ATOM     23  C   UNL     1       2.252 -10.726   0.769  0.00  0.00    +0.025 A 
ATOM     24  C   UNL     1       2.008  -9.650   1.612  0.00  0.00    +0.052 A 
ATOM     25  C   UNL     1       2.002  -9.838   2.989  0.00  0.00    +0.062 A 
ATOM     26  C   UNL     1       2.235 -11.095   3.514  0.00  0.00    +0.025 A 
ATOM     27 CL   UNL     1       1.698  -8.496   4.047  0.00  0.00    -0.082 Cl
ENDBRANCH  16  24
ENDBRANCH  15  17
ENDBRANCH   1  15
TORSDOF 4
