REMARK  Name = ZINC39230570
REMARK  6 active torsions:
REMARK  status: ('A' for Active; 'I' for Inactive)
REMARK    1  A    between atoms: C_1  and  O_2
REMARK    2  A    between atoms: O_2  and  C_3
REMARK    3  A    between atoms: C_6  and  O_33
REMARK    4  A    between atoms: C_7  and  C_9
REMARK    5  A    between atoms: C_24  and  C_26
REMARK    6  A    between atoms: O_33  and  C_34
REMARK                            x       y       z     vdW  Elec       q    Type
REMARK                         _______ _______ _______ _____ _____    ______ ____
ROOT
ATOM      1  C   UNL     1      -2.652  -4.434   0.065  0.00  0.00    +0.157 C 
ATOM      2  C   UNL     1      -2.957  -5.197   1.334  0.00  0.00    +0.046 A 
ATOM      3  H   UNL     1      -4.911  -4.648   1.805  0.00  0.00    +0.166 HD
ATOM      4  C   UNL     1      -2.075  -6.025   1.936  0.00  0.00    -0.015 A 
ATOM      5  C   UNL     1      -2.730  -6.558   3.113  0.00  0.00    +0.003 A 
ATOM      6  C   UNL     1      -2.314  -7.447   4.108  0.00  0.00    +0.010 A 
ATOM      7  C   UNL     1      -3.220  -7.738   5.098  0.00  0.00    +0.001 A 
ATOM      8  C   UNL     1      -4.489  -7.183   5.121  0.00  0.00    +0.002 A 
ATOM      9  C   UNL     1      -4.927  -6.300   4.149  0.00  0.00    +0.026 A 
ATOM     10  C   UNL     1      -4.028  -5.985   3.132  0.00  0.00    +0.047 A 
ATOM     11  N   UNL     1      -4.128  -5.169   2.042  0.00  0.00    -0.356 N 
ATOM     12  C   UNL     1      -0.683  -6.311   1.432  0.00  0.00    +0.056 C 
ATOM     13  C   UNL     1      -0.278  -5.218   0.436  0.00  0.00    +0.113 C 
ATOM     14  N   UNL     1      -1.397  -4.973  -0.488  0.00  0.00    -0.288 N 
ATOM     15  C   UNL     1      -1.279  -5.237  -1.804  0.00  0.00    +0.219 C 
ATOM     16  O   UNL     1      -2.178  -4.945  -2.564  0.00  0.00    -0.275 OA
ENDROOT
BRANCH  15  17
ATOM     17  C   UNL     1      -0.030  -5.894  -2.332  0.00  0.00    +0.075 C 
ATOM     18  C   UNL     1       1.159  -4.929  -2.147  0.00  0.00    +0.013 C 
ATOM     19  C   UNL     1       2.433  -5.728  -2.181  0.00  0.00    +0.001 C 
ATOM     20  C   UNL     1       3.061  -5.776  -3.587  0.00  0.00    +0.000 C 
ATOM     21  C   UNL     1       2.017  -5.980  -4.701  0.00  0.00    +0.000 C 
ATOM     22  C   UNL     1       0.970  -6.996  -4.330  0.00  0.00    +0.001 C 
ATOM     23  C   UNL     1      -0.240  -6.255  -3.726  0.00  0.00    +0.013 C 
ENDBRANCH  15  17
BRANCH   1  28
ATOM     24  C   UNL     1      -2.164  -1.207   1.971  0.00  0.00    +0.121 A 
ATOM     25  C   UNL     1      -2.179  -0.274   0.945  0.00  0.00    +0.049 A 
ATOM     26  C   UNL     1      -2.347  -0.687  -0.362  0.00  0.00    +0.049 A 
ATOM     27  C   UNL     1      -2.501  -2.035  -0.649  0.00  0.00    +0.126 A 
ATOM     28  C   UNL     1      -2.485  -2.969   0.377  0.00  0.00    +0.024 A 
ATOM     29  C   UNL     1      -2.311  -2.556   1.683  0.00  0.00    +0.055 A 
BRANCH  24  31
ATOM     30  C   UNL     1      -1.852   0.603   3.481  0.00  0.00    +0.277 C 
ATOM     31  O   UNL     1      -1.998  -0.801   3.258  0.00  0.00    -0.495 OA
ENDBRANCH  24  31
BRANCH  27  32
ATOM     32  O   UNL     1      -2.667  -2.442  -1.936  0.00  0.00    -0.495 OA
ATOM     33  C   UNL     1      -2.673  -1.427  -2.942  0.00  0.00    +0.277 C 
ENDBRANCH  27  32
ENDBRANCH   1  28
TORSDOF 4
