REMARK  Name = ZINC26103659
REMARK  6 active torsions:
REMARK  status: ('A' for Active; 'I' for Inactive)
REMARK    1  A    between atoms: C_1  and  C_2
REMARK    2  A    between atoms: C_12  and  C_14
REMARK    3  A    between atoms: C_14  and  C_16
REMARK    4  A    between atoms: C_14  and  S_17
REMARK    5  A    between atoms: S_17  and  C_18
REMARK    6  A    between atoms: N_27  and  C_28
REMARK                            x       y       z     vdW  Elec       q    Type
REMARK                         _______ _______ _______ _____ _____    ______ ____
ROOT
ATOM      1  C   UNL     1      -0.840   4.010   0.017  0.00  0.00    +0.137 C 
ATOM      2  C   UNL     1      -1.465   3.413   1.280  0.00  0.00    +0.029 C 
ENDROOT
BRANCH   1  13
ATOM      3  C   UNL     1      -2.829   8.011   0.471  0.00  0.00    +0.029 C 
ATOM      4  C   UNL     1      -2.821   7.214  -0.835  0.00  0.00    +0.083 C 
ATOM      5  C   UNL     1      -4.244   7.105  -1.405  0.00  0.00    +0.059 C 
ATOM      6  C   UNL     1      -4.532   5.621  -1.427  0.00  0.00    -0.024 A 
ATOM      7  C   UNL     1      -5.653   4.921  -1.833  0.00  0.00    +0.005 A 
ATOM      8  C   UNL     1      -5.676   3.541  -1.755  0.00  0.00    +0.000 A 
ATOM      9  C   UNL     1      -4.574   2.861  -1.270  0.00  0.00    +0.002 A 
ATOM     10  C   UNL     1      -3.454   3.555  -0.865  0.00  0.00    +0.024 A 
ATOM     11  C   UNL     1      -3.423   4.949  -0.940  0.00  0.00    +0.040 A 
ATOM     12  N   UNL     1      -2.400   5.833  -0.586  0.00  0.00    -0.267 N 
ATOM     13  C   UNL     1      -1.204   5.469  -0.083  0.00  0.00    +0.233 C 
ATOM     14  O   UNL     1      -0.419   6.316   0.290  0.00  0.00    -0.274 OA
ENDBRANCH   1  13
BRANCH   1  15
ATOM     15  S   UNL     1       0.960   3.840   0.095  0.00  0.00    -0.075 S 
BRANCH  15  16
ATOM     16  C   UNL     1       1.104   2.084   0.052  0.00  0.00    +0.173 A 
ATOM     17  N   UNL     1       0.013   1.370  -0.019  0.00  0.00    -0.222 NA
ATOM     18  C   UNL     1       0.044   0.005  -0.058  0.00  0.00    +0.086 A 
ATOM     19  C   UNL     1      -1.034  -0.889  -0.133  0.00  0.00    +0.036 A 
ATOM     20  C   UNL     1      -0.811  -2.221  -0.160  0.00  0.00    +0.048 A 
ATOM     21  S   UNL     1       0.969  -2.324  -0.081  0.00  0.00    -0.090 S 
ATOM     22  C   UNL     1       1.319  -0.587  -0.016  0.00  0.00    +0.102 A 
ATOM     23  C   UNL     1       2.478   0.182   0.059  0.00  0.00    +0.269 A 
ATOM     24  O   UNL     1       3.577  -0.345   0.095  0.00  0.00    -0.266 OA
ATOM     25  N   UNL     1       2.352   1.530   0.092  0.00  0.00    -0.290 N 
ATOM     26  C   UNL     1       3.539   2.384   0.170  0.00  0.00    +0.154 C 
ENDBRANCH  15  16
ENDBRANCH   1  15
TORSDOF 3
