REMARK  Name = ZINC18176854
REMARK  11 active torsions:
REMARK  status: ('A' for Active; 'I' for Inactive)
REMARK    1  A    between atoms: C_1  and  C_2
REMARK    2  A    between atoms: C_2  and  C_3
REMARK    3  A    between atoms: C_3  and  C_4
REMARK    4  A    between atoms: C_4  and  O_5
REMARK    5  A    between atoms: O_5  and  C_6
REMARK    6  A    between atoms: C_9  and  C_15
REMARK    7  A    between atoms: C_11  and  O_12
REMARK    8  A    between atoms: O_12  and  C_13
REMARK    9  A    between atoms: C_13  and  C_14
REMARK   10  A    between atoms: N_23  and  C_26
REMARK   11  A    between atoms: N_34  and  C_35
REMARK                            x       y       z     vdW  Elec       q    Type
REMARK                         _______ _______ _______ _____ _____    ______ ____
ROOT
ATOM      1  C   UNL     1      -3.411  -8.156  -0.009  0.00  0.00    +0.157 C 
ATOM      2  C   UNL     1      -3.181  -8.717  -1.407  0.00  0.00    +0.145 C 
ATOM      3  C   UNL     1      -2.607 -10.118  -0.968  0.00  0.00    +0.249 C 
ATOM      4  C   UNL     1      -2.767 -10.890  -2.184  0.00  0.00    +0.259 C 
ATOM      5  O   UNL     1      -2.049 -11.778  -2.590  0.00  0.00    -0.272 OA
ATOM      6  N   UNL     1      -3.903 -10.403  -2.776  0.00  0.00    -0.208 N 
ATOM      7  C   UNL     1      -4.330  -9.213  -2.227  0.00  0.00    +0.235 C 
ATOM      8  O   UNL     1      -5.409  -8.678  -2.369  0.00  0.00    -0.274 OA
ATOM      9  O   UNL     1      -1.663  -9.781  -0.039  0.00  0.00    -0.257 OA
ATOM     10  N   UNL     1      -2.352  -8.811   0.812  0.00  0.00    -0.244 N 
ENDROOT
BRANCH   6  11
ATOM     11  C   UNL     1      -4.558 -11.040  -3.839  0.00  0.00    +0.044 A 
ATOM     12  C   UNL     1      -5.702 -10.477  -4.388  0.00  0.00    +0.025 A 
ATOM     13  C   UNL     1      -6.346 -11.107  -5.435  0.00  0.00    +0.022 A 
ATOM     14  C   UNL     1      -5.852 -12.297  -5.938  0.00  0.00    +0.041 A 
ATOM     15  C   UNL     1      -4.712 -12.861  -5.392  0.00  0.00    +0.022 A 
ATOM     16  C   UNL     1      -4.061 -12.232  -4.348  0.00  0.00    +0.025 A 
ATOM     17 CL   UNL     1      -6.663 -13.086  -7.254  0.00  0.00    -0.084 Cl
ENDBRANCH   6  11
BRANCH   1  21
ATOM     18  C   UNL     1      -2.913  -3.909   0.009  0.00  0.00    +0.162 A 
ATOM     19  C   UNL     1      -1.804  -4.739  -0.000  0.00  0.00    +0.050 A 
ATOM     20  C   UNL     1      -1.968  -6.112  -0.006  0.00  0.00    +0.009 A 
ATOM     21  C   UNL     1      -3.238  -6.659  -0.002  0.00  0.00    -0.018 A 
ATOM     22  C   UNL     1      -4.348  -5.836   0.006  0.00  0.00    +0.055 A 
ATOM     23  C   UNL     1      -4.191  -4.460   0.018  0.00  0.00    +0.162 A 
BRANCH  18  24
ATOM     24  O   UNL     1      -2.753  -2.558   0.015  0.00  0.00    -0.488 OA
BRANCH  24  25
ATOM     25  C   UNL     1      -1.413  -2.063   0.004  0.00  0.00    +0.229 C 
BRANCH  25  26
ATOM     26  C   UNL     1      -1.433  -0.534   0.013  0.00  0.00    +0.041 C 
BRANCH  26  28
ATOM     27  C   UNL     1      -0.019   1.526   0.010  0.00  0.00    +0.004 C 
ATOM     28  C   UNL     1       0.002  -0.004   0.002  0.00  0.00    -0.000 C 
ENDBRANCH  26  28
ENDBRANCH  25  26
ENDBRANCH  24  25
ENDBRANCH  18  24
BRANCH  23  29
ATOM     29  O   UNL     1      -5.282  -3.649   0.033  0.00  0.00    -0.489 OA
BRANCH  29  30
ATOM     30  C   UNL     1      -6.562  -4.284   0.042  0.00  0.00    +0.226 C 
ATOM     31  C   UNL     1      -7.660  -3.219   0.058  0.00  0.00    +0.048 C 
ENDBRANCH  29  30
ENDBRANCH  23  29
ENDBRANCH   1  21
BRANCH  10  32
ATOM     32  C   UNL     1      -2.064  -8.536   2.151  0.00  0.00    +0.065 A 
ATOM     33  C   UNL     1      -2.800  -7.579   2.839  0.00  0.00    +0.028 A 
ATOM     34  C   UNL     1      -2.513  -7.311   4.163  0.00  0.00    +0.002 A 
ATOM     35  C   UNL     1      -1.494  -7.992   4.804  0.00  0.00    +0.000 A 
ATOM     36  C   UNL     1      -0.760  -8.945   4.122  0.00  0.00    +0.002 A 
ATOM     37  C   UNL     1      -1.045  -9.223   2.800  0.00  0.00    +0.028 A 
ENDBRANCH  10  32
TORSDOF 9
