REMARK  Name = ZINC35768565
REMARK  11 active torsions:
REMARK  status: ('A' for Active; 'I' for Inactive)
REMARK    1  A    between atoms: C_1  and  C_2
REMARK    2  A    between atoms: C_2  and  C_3
REMARK    3  A    between atoms: C_12  and  C_13
REMARK    4  A    between atoms: C_13  and  C_15
REMARK    5  A    between atoms: C_13  and  C_26
REMARK    6  A    between atoms: C_15  and  C_16
REMARK    7  A    between atoms: N_18  and  C_19
REMARK    8  A    between atoms: C_28  and  O_34
REMARK    9  A    between atoms: C_30  and  O_32
REMARK   10  A    between atoms: O_32  and  C_33
REMARK   11  A    between atoms: O_34  and  C_35
REMARK                            x       y       z     vdW  Elec       q    Type
REMARK                         _______ _______ _______ _____ _____    ______ ____
ROOT
ATOM      1  C   UNL     1       5.263  -1.484  -3.062  0.00  0.00    +0.060 C 
ENDROOT
BRANCH   1  11
ATOM      2  C   UNL     1       0.680  -0.471  -1.297  0.00  0.00    -0.024 A 
ATOM      3  C   UNL     1      -0.037  -0.799  -2.427  0.00  0.00    +0.005 A 
ATOM      4  C   UNL     1       0.609  -1.251  -3.569  0.00  0.00    +0.001 A 
ATOM      5  C   UNL     1       1.969  -1.379  -3.592  0.00  0.00    +0.010 A 
ATOM      6  C   UNL     1       2.716  -1.052  -2.459  0.00  0.00    +0.004 A 
ATOM      7  C   UNL     1       2.066  -0.588  -1.300  0.00  0.00    +0.050 A 
ATOM      8  N   UNL     1       3.040  -0.343  -0.359  0.00  0.00    -0.360 N 
ATOM      9  H   UNL     1       2.877  -0.016   0.540  0.00  0.00    +0.165 HD
ATOM     10  C   UNL     1       4.273  -0.627  -0.880  0.00  0.00    +0.088 A 
ATOM     11  C   UNL     1       4.146  -1.067  -2.142  0.00  0.00    -0.015 A 
BRANCH   2  13
ATOM     12  C   UNL     1      -0.053   1.548  -0.058  0.00  0.00    +0.009 C 
ATOM     13  C   UNL     1      -0.035   0.018  -0.063  0.00  0.00    +0.034 C 
ENDBRANCH   2  13
ENDBRANCH   1  11
BRANCH   1  14
ATOM     14  C   UNL     1       6.007  -2.646  -2.456  0.00  0.00    -0.033 A 
ATOM     15  C   UNL     1       6.617  -2.507  -1.224  0.00  0.00    +0.050 A 
ATOM     16  C   UNL     1       7.303  -3.575  -0.663  0.00  0.00    +0.124 A 
ATOM     17  C   UNL     1       7.375  -4.783  -1.340  0.00  0.00    +0.091 A 
ATOM     18  C   UNL     1       6.763  -4.920  -2.576  0.00  0.00    +0.124 A 
ATOM     19  C   UNL     1       6.074  -3.850  -3.130  0.00  0.00    +0.050 A 
BRANCH  18  20
ATOM     20  O   UNL     1       6.833  -6.102  -3.242  0.00  0.00    -0.495 OA
ATOM     21  C   UNL     1       7.554  -7.162  -2.610  0.00  0.00    +0.277 C 
ENDBRANCH  18  20
BRANCH  16  22
ATOM     22  O   UNL     1       7.902  -3.438   0.549  0.00  0.00    -0.495 OA
ATOM     23  C   UNL     1       8.590  -4.578   1.065  0.00  0.00    +0.277 C 
ENDBRANCH  16  22
ENDBRANCH   1  14
BRANCH   1  24
ATOM     24  C   UNL     1       6.225  -0.311  -3.261  0.00  0.00    +0.109 C 
BRANCH  24  25
ATOM     25  C   UNL     1       7.273  -0.687  -4.276  0.00  0.00    +0.218 C 
ATOM     26  O   UNL     1       7.253  -1.785  -4.790  0.00  0.00    -0.275 OA
ATOM     27  N   UNL     1       8.233   0.197  -4.613  0.00  0.00    -0.283 N 
ATOM     28  H   UNL     1       8.212   1.097  -4.252  0.00  0.00    +0.155 HD
BRANCH  27  29
ATOM     29  C   UNL     1       9.261  -0.183  -5.485  0.00  0.00    +0.069 A 
ATOM     30  C   UNL     1       9.002  -1.071  -6.521  0.00  0.00    +0.026 A 
ATOM     31  C   UNL     1      10.017  -1.444  -7.380  0.00  0.00    +0.002 A 
ATOM     32  C   UNL     1      11.292  -0.934  -7.210  0.00  0.00    +0.003 A 
ATOM     33  C   UNL     1      11.555  -0.051  -6.179  0.00  0.00    +0.040 A 
ATOM     34  C   UNL     1      10.542   0.332  -5.319  0.00  0.00    +0.144 A 
ATOM     35  F   UNL     1      10.797   1.200  -4.316  0.00  0.00    -0.204 F 
ENDBRANCH  27  29
ENDBRANCH  24  25
ENDBRANCH   1  24
TORSDOF 8
