REMARK  Name = ZINC12882744
REMARK  12 active torsions:
REMARK  status: ('A' for Active; 'I' for Inactive)
REMARK    1  A    between atoms: C_1  and  C_2
REMARK    2  A    between atoms: C_3  and  C_13
REMARK    3  A    between atoms: C_4  and  C_12
REMARK    4  A    between atoms: C_9  and  C_10
REMARK    5  A    between atoms: C_13  and  C_14
REMARK    6  A    between atoms: C_14  and  C_15
REMARK    7  A    between atoms: N_17  and  C_18
REMARK    8  A    between atoms: C_18  and  C_19
REMARK    9  A    between atoms: C_19  and  C_21
REMARK   10  A    between atoms: C_19  and  N_61
REMARK   11  A    between atoms: C_24  and  O_27
REMARK   12  A    between atoms: O_27  and  C_28
REMARK                            x       y       z     vdW  Elec       q    Type
REMARK                         _______ _______ _______ _____ _____    ______ ____
ROOT
ATOM      1  C   UNL     1       4.123   5.427   1.424  0.00  0.00    +0.213 C 
ATOM      2  O   UNL     1       4.559   5.874   0.384  0.00  0.00    -0.276 OA
ATOM      3  N   UNL     1       4.779   5.648   2.580  0.00  0.00    -0.317 N 
ATOM      4  H   UNL     1       4.431   5.291   3.411  0.00  0.00    +0.149 HD
ENDROOT
BRANCH   1   5
ATOM      5  C   UNL     1       2.847   4.625   1.423  0.00  0.00    +0.100 C 
BRANCH   5   6
ATOM      6  C   UNL     1       2.309   4.524  -0.006  0.00  0.00    +0.046 C 
BRANCH   6   9
ATOM      7  C   UNL     1       2.413   1.616  -0.137  0.00  0.00    +0.045 C 
ATOM      8  C   UNL     1       1.087   2.328  -0.070  0.00  0.00    -0.023 A 
ATOM      9  C   UNL     1       1.033   3.721  -0.006  0.00  0.00    -0.024 A 
ATOM     10  C   UNL     1      -0.165   4.355   0.054  0.00  0.00    +0.019 A 
ATOM     11  N   UNL     1      -1.328   3.660   0.055  0.00  0.00    -0.325 N 
ATOM     12  H   UNL     1      -2.171   4.139   0.099  0.00  0.00    +0.169 HD
ATOM     13  C   UNL     1      -1.333   2.315  -0.010  0.00  0.00    +0.267 A 
ATOM     14  O   UNL     1      -2.390   1.707  -0.013  0.00  0.00    -0.266 OA
ATOM     15  C   UNL     1      -0.104   1.607  -0.070  0.00  0.00    +0.119 A 
ATOM     16  C   UNL     1      -0.203   5.860   0.122  0.00  0.00    +0.063 C 
BRANCH  15  17
ATOM     17  C   UNL     1      -0.090   0.176  -0.135  0.00  0.00    +0.105 C 
ATOM     18  N   UNL     1      -0.078  -0.958  -0.186  0.00  0.00    -0.191 NA
ENDBRANCH  15  17
ENDBRANCH   6   9
ENDBRANCH   5   6
ENDBRANCH   1   5
BRANCH   3  19
ATOM     19  C   UNL     1       6.019   6.428   2.580  0.00  0.00    +0.093 C 
BRANCH  19  20
ATOM     20  C   UNL     1       6.558   6.529   4.009  0.00  0.00    -0.020 C 
BRANCH  20  21
ATOM     21  C   UNL     1       7.894   7.225   3.994  0.00  0.00    -0.059 A 
ATOM     22  C   UNL     1       8.227   8.102   5.009  0.00  0.00    +0.005 A 
ATOM     23  C   UNL     1       9.454   8.737   5.001  0.00  0.00    +0.046 A 
ATOM     24  C   UNL     1      10.348   8.502   3.967  0.00  0.00    +0.120 A 
ATOM     25  C   UNL     1      10.010   7.625   2.946  0.00  0.00    +0.046 A 
ATOM     26  C   UNL     1       8.784   6.988   2.962  0.00  0.00    +0.005 A 
BRANCH  24  27
ATOM     27  O   UNL     1      11.553   9.130   3.953  0.00  0.00    -0.495 OA
ATOM     28  C   UNL     1      11.834  10.019   5.036  0.00  0.00    +0.277 C 
ENDBRANCH  24  27
ENDBRANCH  20  21
BRANCH  20  33
ATOM     29  C   UNL     1       7.792   4.435   3.872  0.00  0.00    -0.078 C 
ATOM     30  C   UNL     1       8.165   3.322   4.883  0.00  0.00    -0.020 C 
ATOM     31  C   UNL     1       8.049   4.040   6.247  0.00  0.00    -0.020 C 
ATOM     32  C   UNL     1       7.120   5.241   5.991  0.00  0.00    -0.078 C 
ATOM     33  N   UNL     1       6.728   5.160   4.583  0.00  0.00    +0.385 N 
ATOM     34  H   UNL     1       5.842   4.648   4.499  0.00  0.00    -0.081 HD
ENDBRANCH  20  33
ENDBRANCH  19  20
ENDBRANCH   3  19
TORSDOF 9
