REMARK  Name = ZINC12219197
REMARK  9 active torsions:
REMARK  status: ('A' for Active; 'I' for Inactive)
REMARK    1  A    between atoms: C_1  and  C_2
REMARK    2  A    between atoms: C_2  and  C_3
REMARK    3  A    between atoms: C_2  and  C_4
REMARK    4  A    between atoms: C_4  and  N_54
REMARK    5  A    between atoms: C_5  and  N_54
REMARK    6  A    between atoms: N_16  and  C_19
REMARK    7  A    between atoms: C_19  and  C_20
REMARK    8  A    between atoms: C_24  and  O_26
REMARK    9  A    between atoms: O_26  and  C_27
REMARK                            x       y       z     vdW  Elec       q    Type
REMARK                         _______ _______ _______ _____ _____    ______ ____
ROOT
ATOM      1  C   UNL     1       3.077  10.124   6.844  0.00  0.00    -0.067 C 
ATOM      2  C   UNL     1       1.682  10.500   6.336  0.00  0.00    -0.011 C 
ATOM      3  C   UNL     1       1.095   9.343   5.526  0.00  0.00    +0.035 C 
ATOM      4  C   UNL     1       1.170   8.069   6.363  0.00  0.00    -0.023 A 
ATOM      5  C   UNL     1       2.002   7.987   7.422  0.00  0.00    -0.006 A 
ATOM      6  S   UNL     1       1.756   6.358   8.076  0.00  0.00    -0.073 S 
ATOM      7  C   UNL     1       0.532   5.791   6.923  0.00  0.00    +0.116 A 
ATOM      8  C   UNL     1       0.357   6.890   6.066  0.00  0.00    +0.076 A 
ATOM      9  C   UNL     1      -0.598   6.709   5.013  0.00  0.00    +0.263 A 
ATOM     10  O   UNL     1      -0.821   7.606   4.218  0.00  0.00    -0.267 OA
ATOM     11  N   UNL     1      -1.245   5.533   4.916  0.00  0.00    -0.294 N 
ATOM     12  C   UNL     1      -1.013   4.525   5.795  0.00  0.00    +0.203 A 
ATOM     13  N   UNL     1      -0.146   4.658   6.763  0.00  0.00    -0.230 NA
ATOM     14  C   UNL     1       2.932   9.047   7.929  0.00  0.00    +0.027 C 
ENDROOT
BRANCH   1  15
ATOM     15  N   UNL     1       3.725  11.319   7.416  0.00  0.00    +0.381 N 
ATOM     16  H   UNL     1       3.454  12.146   6.870  0.00  0.00    -0.086 HD
ATOM     17  H   UNL     1       3.421  11.437   8.389  0.00  0.00    -0.086 HD
BRANCH  15  18
ATOM     18  C   UNL     1       5.192  11.173   7.380  0.00  0.00    -0.079 C 
BRANCH  18  20
ATOM     19  C   UNL     1       5.472  12.527   9.460  0.00  0.00    +0.005 C 
ATOM     20  C   UNL     1       5.837  12.425   7.978  0.00  0.00    -0.034 C 
ATOM     21  C   UNL     1       7.357  12.336   7.831  0.00  0.00    +0.005 C 
ENDBRANCH  18  20
ENDBRANCH  15  18
ENDBRANCH   1  15
BRANCH  11  22
ATOM     22  C   UNL     1      -2.223   5.338   3.843  0.00  0.00    +0.161 C 
BRANCH  22  23
ATOM     23  C   UNL     1      -1.531   4.776   2.628  0.00  0.00    -0.024 A 
ATOM     24  C   UNL     1      -1.003   5.630   1.677  0.00  0.00    +0.005 A 
ATOM     25  C   UNL     1      -0.368   5.117   0.561  0.00  0.00    +0.004 A 
ATOM     26  C   UNL     1      -0.253   3.750   0.397  0.00  0.00    +0.045 A 
ATOM     27  C   UNL     1      -0.787   2.892   1.346  0.00  0.00    +0.120 A 
ATOM     28  C   UNL     1      -1.425   3.409   2.465  0.00  0.00    +0.051 A 
BRANCH  27  29
ATOM     29  O   UNL     1      -0.682   1.547   1.184  0.00  0.00    -0.495 OA
ATOM     30  C   UNL     1      -0.013   1.086   0.008  0.00  0.00    +0.277 C 
ENDBRANCH  27  29
ENDBRANCH  22  23
ENDBRANCH  11  22
TORSDOF 6
