REMARK  Name = ZINC00676404
REMARK  6 active torsions:
REMARK  status: ('A' for Active; 'I' for Inactive)
REMARK    1  A    between atoms: C_3  and  S_19
REMARK    2  A    between atoms: C_6  and  N_7
REMARK    3  A    between atoms: N_7  and  C_8
REMARK    4  A    between atoms: C_8  and  N_10
REMARK    5  A    between atoms: C_11  and  C_13
REMARK    6  A    between atoms: S_19  and  N_22
REMARK                            x       y       z     vdW  Elec       q    Type
REMARK                         _______ _______ _______ _____ _____    ______ ____
ROOT
ATOM      1  C   UNL     1      -2.372   1.325   3.275  0.00  0.00    +0.025 A 
ATOM      2  C   UNL     1      -1.667   0.944   2.151  0.00  0.00    +0.030 A 
ATOM      3  C   UNL     1      -0.954   1.883   1.428  0.00  0.00    +0.106 A 
ATOM      4  C   UNL     1      -0.940   3.205   1.832  0.00  0.00    +0.030 A 
ATOM      5  C   UNL     1      -1.647   3.595   2.953  0.00  0.00    +0.025 A 
ATOM      6  C   UNL     1      -2.364   2.654   3.680  0.00  0.00    +0.033 A 
ENDROOT
BRANCH   3   7
ATOM      7  S   UNL     1      -0.056   1.392  -0.006  0.00  0.00    +0.061 S 
ATOM      8  O   UNL     1       0.220   0.006   0.142  0.00  0.00    -0.153 OA
ATOM      9  O   UNL     1       0.971   2.357  -0.193  0.00  0.00    -0.153 OA
BRANCH   7  10
ATOM     10  N   UNL     1      -1.081   1.536  -1.299  0.00  0.00    -0.177 NA
ATOM     11  C   UNL     1      -1.967   0.481  -1.811  0.00  0.00    +0.109 C 
ATOM     12  C   UNL     1      -2.711   1.060  -3.033  0.00  0.00    +0.018 C 
ATOM     13  C   UNL     1      -1.780   2.215  -3.488  0.00  0.00    +0.018 C 
ATOM     14  C   UNL     1      -1.252   2.741  -2.130  0.00  0.00    +0.109 C 
ENDBRANCH   7  10
ENDBRANCH   3   7
BRANCH   6  15
ATOM     15  N   UNL     1      -3.077   3.043   4.819  0.00  0.00    -0.297 N 
ATOM     16  H   UNL     1      -3.588   3.868   4.813  0.00  0.00    +0.154 HD
BRANCH  15  17
ATOM     17  C   UNL     1      -3.055   2.273   5.924  0.00  0.00    +0.141 C 
ATOM     18  S   UNL     1      -2.044   0.893   5.986  0.00  0.00    -0.018 S 
BRANCH  17  19
ATOM     19  N   UNL     1      -3.830   2.589   6.981  0.00  0.00    -0.261 N 
ATOM     20  C   UNL     1      -3.808   1.818   8.087  0.00  0.00    +0.285 C 
ATOM     21  O   UNL     1      -3.089   0.837   8.131  0.00  0.00    -0.266 OA
ATOM     22  H   UNL     1      -4.403   3.370   6.947  0.00  0.00    +0.157 HD
BRANCH  20  23
ATOM     23  C   UNL     1      -4.649   2.161   9.236  0.00  0.00    +0.191 A 
ATOM     24  C   UNL     1      -4.727   1.466  10.410  0.00  0.00    +0.056 A 
ATOM     25  C   UNL     1      -5.645   2.148  11.222  0.00  0.00    +0.058 A 
ATOM     26  C   UNL     1      -6.091   3.212  10.513  0.00  0.00    +0.171 A 
ATOM     27  O   UNL     1      -5.488   3.215   9.317  0.00  0.00    -0.444 OA
ATOM     28 BR   UNL     1      -7.355   4.483  11.114  0.00  0.00    -0.008 Br
ENDBRANCH  20  23
ENDBRANCH  17  19
ENDBRANCH  15  17
ENDBRANCH   6  15
TORSDOF 6
