REMARK  Name = ZINC13719618
REMARK  4 active torsions:
REMARK  status: ('A' for Active; 'I' for Inactive)
REMARK    1  A    between atoms: C_1  and  C_2
REMARK    2  A    between atoms: C_3  and  C_18
REMARK    3  A    between atoms: C_18  and  C_25
REMARK    4  A    between atoms: N_19  and  C_20
REMARK                            x       y       z     vdW  Elec       q    Type
REMARK                         _______ _______ _______ _____ _____    ______ ____
ROOT
ATOM      1  C   UNL     1      -0.170   1.469   0.044  0.00  0.00    +0.066 C 
ATOM      2  C   UNL     1      -0.146  -0.020   0.277  0.00  0.00    +0.044 A 
ATOM      3  C   UNL     1      -1.250  -0.847   0.320  0.00  0.00    +0.082 A 
ATOM      4  C   UNL     1      -0.745  -2.206   0.570  0.00  0.00    +0.283 A 
ATOM      5  O   UNL     1      -1.409  -3.220   0.676  0.00  0.00    -0.265 OA
ATOM      6  N   UNL     1       0.598  -2.107   0.658  0.00  0.00    -0.194 N 
ATOM      7  N   UNL     1       0.959  -0.769   0.472  0.00  0.00    -0.292 N 
ATOM      8  H   UNL     1       1.867  -0.430   0.485  0.00  0.00    +0.187 HD
ATOM      9  C   UNL     1       1.472  -3.155   0.889  0.00  0.00    +0.196 A 
ATOM     10  N   UNL     1       1.203  -4.429   1.060  0.00  0.00    -0.221 NA
ATOM     11  C   UNL     1       2.166  -5.351   1.278  0.00  0.00    +0.081 A 
ATOM     12  C   UNL     1       2.013  -6.743   1.478  0.00  0.00    +0.029 A 
ATOM     13  C   UNL     1       3.104  -7.544   1.689  0.00  0.00    +0.002 A 
ATOM     14  C   UNL     1       4.391  -7.025   1.714  0.00  0.00    +0.001 A 
ATOM     15  C   UNL     1       4.577  -5.668   1.523  0.00  0.00    +0.017 A 
ATOM     16  C   UNL     1       3.490  -4.858   1.311  0.00  0.00    +0.041 A 
ATOM     17  S   UNL     1       3.254  -3.121   1.021  0.00  0.00    -0.048 S 
ENDROOT
BRANCH   3  18
ATOM     18  C   UNL     1      -2.652  -0.449   0.150  0.00  0.00    +0.047 C 
ATOM     19  N   UNL     1      -3.602  -1.300   0.389  0.00  0.00    -0.284 NA
ATOM     20  C   UNL     1      -2.990   0.949  -0.301  0.00  0.00    +0.066 C 
BRANCH  19  21
ATOM     21  C   UNL     1      -5.000  -0.864   0.360  0.00  0.00    +0.106 C 
ATOM     22  C   UNL     1      -5.671  -1.152   1.720  0.00  0.00    +0.027 C 
ATOM     23  C   UNL     1      -7.112  -1.581   1.348  0.00  0.00    +0.002 C 
ATOM     24  C   UNL     1      -6.900  -2.415   0.060  0.00  0.00    +0.002 C 
ATOM     25  C   UNL     1      -5.781  -1.667  -0.694  0.00  0.00    +0.027 C 
ENDBRANCH  19  21
ENDBRANCH   3  18
TORSDOF 2
