REMARK  Name = ZINC01750939
REMARK  15 active torsions:
REMARK  status: ('A' for Active; 'I' for Inactive)
REMARK    1  A    between atoms: C_1  and  C_2
REMARK    2  A    between atoms: C_2  and  C_3
REMARK    3  A    between atoms: C_3  and  S_4
REMARK    4  A    between atoms: S_4  and  C_5
REMARK    5  A    between atoms: C_14  and  C_16
REMARK    6  A    between atoms: C_14  and  C_17
REMARK    7  A    between atoms: C_17  and  C_18
REMARK    8  A    between atoms: C_21  and  S_24
REMARK    9  A    between atoms: S_24  and  C_25
REMARK   10  A    between atoms: C_25  and  C_26
REMARK   11  A    between atoms: N_28  and  C_29
REMARK   12  A    between atoms: C_32  and  O_37
REMARK   13  A    between atoms: C_34  and  O_35
REMARK   14  A    between atoms: O_35  and  C_36
REMARK   15  A    between atoms: O_37  and  C_38
REMARK                            x       y       z     vdW  Elec       q    Type
REMARK                         _______ _______ _______ _____ _____    ______ ____
ROOT
ATOM      1  C   UNL     1      -3.109  -2.795   0.068  0.00  0.00    +0.178 A 
ATOM      2  N   UNL     1      -4.023  -1.853   0.087  0.00  0.00    -0.216 NA
ATOM      3  C   UNL     1      -5.325  -2.127   0.107  0.00  0.00    +0.115 A 
ATOM      4  C   UNL     1      -5.816  -3.441   0.110  0.00  0.00    +0.056 A 
ATOM      5  C   UNL     1      -7.267  -3.580   0.133  0.00  0.00    -0.019 A 
ATOM      6  C   UNL     1      -7.995  -2.439   0.150  0.00  0.00    +0.021 A 
ATOM      7  S   UNL     1      -6.799  -1.135   0.136  0.00  0.00    -0.071 S 
ATOM      8  C   UNL     1      -9.489  -2.342   0.175  0.00  0.00    +0.203 C 
ATOM      9  O   UNL     1     -10.021  -3.638  -0.141  0.00  0.00    -0.368 OA
ATOM     10  C   UNL     1      -9.422  -4.699   0.609  0.00  0.00    +0.071 C 
ATOM     11  C   UNL     1      -7.982  -4.929   0.141  0.00  0.00    +0.071 C 
ATOM     12  C   UNL     1      -9.421  -4.332   2.094  0.00  0.00    +0.042 C 
ATOM     13  C   UNL     1      -4.780  -4.497   0.088  0.00  0.00    +0.174 A 
ATOM     14  N   UNL     1      -3.455  -4.121   0.063  0.00  0.00    -0.248 N 
ATOM     15  C   UNL     1      -2.744  -5.290   0.041  0.00  0.00    +0.198 A 
ATOM     16  N   UNL     1      -3.615  -6.273   0.046  0.00  0.00    -0.122 NA
ATOM     17  N   UNL     1      -4.815  -5.807   0.082  0.00  0.00    -0.128 NA
ENDROOT
BRANCH  10  18
ATOM     18  C   UNL     1     -10.232  -5.981   0.407  0.00  0.00    +0.032 C 
ATOM     19  C   UNL     1     -11.667  -5.760   0.890  0.00  0.00    +0.007 C 
ENDBRANCH  10  18
BRANCH   1  20
ATOM     20  S   UNL     1      -1.405  -2.347   0.043  0.00  0.00    -0.087 S 
BRANCH  20  21
ATOM     21  C   UNL     1      -1.429  -0.533   0.058  0.00  0.00    +0.077 C 
BRANCH  21  23
ATOM     22  C   UNL     1      -0.014   1.526   0.051  0.00  0.00    +0.004 C 
ATOM     23  C   UNL     1       0.006  -0.004   0.038  0.00  0.00    +0.008 C 
ENDBRANCH  21  23
ENDBRANCH  20  21
ENDBRANCH   1  20
BRANCH  15  24
ATOM     24  S   UNL     1      -0.990  -5.447   0.010  0.00  0.00    -0.076 S 
BRANCH  24  25
ATOM     25  C   UNL     1      -0.710  -7.239  -0.010  0.00  0.00    +0.173 C 
BRANCH  25  26
ATOM     26  C   UNL     1       0.771  -7.516  -0.038  0.00  0.00    +0.228 C 
ATOM     27  O   UNL     1       1.560  -6.595  -0.043  0.00  0.00    -0.275 OA
ATOM     28  N   UNL     1       1.219  -8.787  -0.056  0.00  0.00    -0.282 N 
ATOM     29  H   UNL     1       0.591  -9.524   0.013  0.00  0.00    +0.155 HD
BRANCH  28  30
ATOM     30  C   UNL     1       2.593  -9.045  -0.176  0.00  0.00    +0.076 A 
ATOM     31  C   UNL     1       3.514  -8.191   0.412  0.00  0.00    +0.030 A 
ATOM     32  C   UNL     1       4.867  -8.445   0.294  0.00  0.00    +0.047 A 
ATOM     33  C   UNL     1       5.307  -9.555  -0.412  0.00  0.00    +0.124 A 
ATOM     34  C   UNL     1       4.391 -10.412  -1.002  0.00  0.00    +0.093 A 
ATOM     35  C   UNL     1       3.033 -10.164  -0.880  0.00  0.00    +0.145 A 
BRANCH  35  36
ATOM     36  O   UNL     1       2.133 -11.006  -1.452  0.00  0.00    -0.493 OA
ATOM     37  C   UNL     1       2.656 -12.132  -2.159  0.00  0.00    +0.277 C 
ENDBRANCH  35  36
BRANCH  33  38
ATOM     38  O   UNL     1       6.639  -9.802  -0.526  0.00  0.00    -0.495 OA
ATOM     39  C   UNL     1       7.527  -8.878   0.105  0.00  0.00    +0.277 C 
ENDBRANCH  33  38
ENDBRANCH  28  30
ENDBRANCH  25  26
ENDBRANCH  24  25
ENDBRANCH  15  24
TORSDOF 10
