REMARK  Name = ZINC66605705
REMARK  3 active torsions:
REMARK  status: ('A' for Active; 'I' for Inactive)
REMARK    1  A    between atoms: C_4  and  N_7
REMARK    2  A    between atoms: C_9  and  C_12
REMARK    3  A    between atoms: C_12  and  C_13
REMARK                            x       y       z     vdW  Elec       q    Type
REMARK                         _______ _______ _______ _____ _____    ______ ____
ROOT
ATOM      1  C   UNL     1       5.959  -4.053  -1.510  0.00  0.00    +0.115 A 
ATOM      2  N   UNL     1       6.522  -5.263  -1.760  0.00  0.00    -0.310 N 
ATOM      3  H   UNL     1       6.786  -5.827  -1.016  0.00  0.00    +0.170 HD
ATOM      4  C   UNL     1       6.720  -5.696  -3.019  0.00  0.00    +0.260 A 
ATOM      5  O   UNL     1       7.226  -6.785  -3.227  0.00  0.00    -0.267 OA
ATOM      6  C   UNL     1       6.327  -4.855  -4.111  0.00  0.00    +0.075 A 
ATOM      7  C   UNL     1       6.445  -5.114  -5.545  0.00  0.00    -0.023 A 
ATOM      8  C   UNL     1       5.995  -4.153  -6.380  0.00  0.00    -0.004 A 
ATOM      9  S   UNL     1       5.396  -2.866  -5.318  0.00  0.00    -0.073 S 
ATOM     10  C   UNL     1       5.754  -3.624  -3.753  0.00  0.00    +0.116 A 
ATOM     11  N   UNL     1       5.585  -3.267  -2.483  0.00  0.00    -0.226 NA
ATOM     12  C   UNL     1       6.004  -4.174  -7.878  0.00  0.00    +0.043 C 
ATOM     13  C   UNL     1       6.943  -5.298  -8.340  0.00  0.00    +0.005 C 
ATOM     14  C   UNL     1       6.613  -6.569  -7.553  0.00  0.00    +0.005 C 
ATOM     15  C   UNL     1       7.046  -6.404  -6.095  0.00  0.00    +0.037 C 
ENDROOT
BRANCH   1  16
ATOM     16  C   UNL     1       5.757  -3.612  -0.083  0.00  0.00    +0.112 C 
BRANCH  16  19
ATOM     17  N   UNL     1       3.624  -0.652  -0.037  0.00  0.00    -0.240 N 
ATOM     18  C   UNL     1       3.786  -1.994  -0.052  0.00  0.00    +0.118 A 
ATOM     19  C   UNL     1       5.115  -2.248  -0.065  0.00  0.00    -0.002 A 
ATOM     20  C   UNL     1       5.788  -1.022  -0.059  0.00  0.00    +0.138 A 
ATOM     21  N   UNL     1       4.895  -0.065  -0.048  0.00  0.00    -0.175 NA
BRANCH  17  25
ATOM     22  C   UNL     1      -0.017   1.379   0.010  0.00  0.00    +0.000 A 
ATOM     23  C   UNL     1       1.170   2.089   0.002  0.00  0.00    +0.002 A 
ATOM     24  C   UNL     1       2.377   1.419  -0.013  0.00  0.00    +0.028 A 
ATOM     25  C   UNL     1       2.399   0.031  -0.021  0.00  0.00    +0.065 A 
ATOM     26  C   UNL     1       1.207  -0.680  -0.013  0.00  0.00    +0.028 A 
ATOM     27  C   UNL     1       0.002  -0.004   0.002  0.00  0.00    +0.002 A 
ENDBRANCH  17  25
ENDBRANCH  16  19
ENDBRANCH   1  16
TORSDOF 3
