REMARK  Name = ZINC24632909
REMARK  15 active torsions:
REMARK  status: ('A' for Active; 'I' for Inactive)
REMARK    1  A    between atoms: C_1  and  C_2
REMARK    2  A    between atoms: C_2  and  C_4
REMARK    3  A    between atoms: C_2  and  O_28
REMARK    4  A    between atoms: N_6  and  N_7
REMARK    5  A    between atoms: C_8  and  C_10
REMARK    6  A    between atoms: C_10  and  C_12
REMARK    7  A    between atoms: C_10  and  N_16
REMARK    8  A    between atoms: C_12  and  C_13
REMARK    9  A    between atoms: C_13  and  C_14
REMARK   10  A    between atoms: C_13  and  C_15
REMARK   11  A    between atoms: N_16  and  S_17
REMARK   12  A    between atoms: S_17  and  C_20
REMARK   13  A    between atoms: C_23  and  O_26
REMARK   14  A    between atoms: O_26  and  C_27
REMARK   15  A    between atoms: O_28  and  C_29
REMARK                            x       y       z     vdW  Elec       q    Type
REMARK                         _______ _______ _______ _____ _____    ______ ____
ROOT
ATOM      1  N   UNL     1      -2.939  -0.776  -0.801  0.00  0.00    -0.233 N 
ATOM      2  C   UNL     1      -3.767  -0.627  -1.854  0.00  0.00    +0.248 C 
ATOM      3  O   UNL     1      -3.336  -0.213  -2.910  0.00  0.00    -0.273 OA
ATOM      4  H   UNL     1      -3.284  -1.106   0.044  0.00  0.00    +0.173 HD
ENDROOT
BRANCH   1   7
ATOM      5  C   UNL     1      -0.755  -0.601   0.129  0.00  0.00    +0.270 C 
ATOM      6  O   UNL     1      -1.186  -1.015   1.185  0.00  0.00    -0.270 OA
ATOM      7  N   UNL     1      -1.582  -0.453  -0.925  0.00  0.00    -0.231 N 
ATOM      8  H   UNL     1      -1.237  -0.122  -1.769  0.00  0.00    +0.173 HD
BRANCH   5  10
ATOM      9  C   UNL     1       0.852   1.248  -0.256  0.00  0.00    +0.062 C 
ATOM     10  C   UNL     1       0.706  -0.254  -0.004  0.00  0.00    +0.257 C 
BRANCH  10  11
ATOM     11  O   UNL     1       1.391  -0.604   1.200  0.00  0.00    -0.477 OA
BRANCH  11  12
ATOM     12  C   UNL     1       2.725  -0.844   1.104  0.00  0.00    +0.157 A 
ATOM     13  C   UNL     1       3.374  -0.684  -0.112  0.00  0.00    +0.048 A 
ATOM     14  C   UNL     1       4.730  -0.929  -0.207  0.00  0.00    +0.004 A 
ATOM     15  C   UNL     1       5.442  -1.334   0.907  0.00  0.00    +0.003 A 
ATOM     16  C   UNL     1       4.799  -1.495   2.120  0.00  0.00    +0.042 A 
ATOM     17  C   UNL     1       3.443  -1.245   2.223  0.00  0.00    +0.165 A 
ATOM     18  F   UNL     1       2.816  -1.397   3.410  0.00  0.00    -0.202 F 
ENDBRANCH  11  12
ENDBRANCH  10  11
ENDBRANCH   5  10
ENDBRANCH   1   7
BRANCH   2  19
ATOM     19  C   UNL     1      -5.227  -0.974  -1.721  0.00  0.00    +0.164 C 
BRANCH  19  20
ATOM     20  N   UNL     1      -5.906  -0.727  -2.995  0.00  0.00    -0.178 NA
ATOM     21  H   UNL     1      -5.879  -1.396  -3.697  0.00  0.00    +0.149 HD
BRANCH  20  22
ATOM     22  S   UNL     1      -6.720   0.695  -3.237  0.00  0.00    +0.059 S 
ATOM     23  O   UNL     1      -7.221   0.655  -4.566  0.00  0.00    -0.153 OA
ATOM     24  O   UNL     1      -7.566   0.875  -2.110  0.00  0.00    -0.153 OA
BRANCH  22  25
ATOM     25  C   UNL     1      -5.529   1.992  -3.186  0.00  0.00    +0.105 A 
ATOM     26  C   UNL     1      -5.225   2.603  -1.984  0.00  0.00    +0.032 A 
ATOM     27  C   UNL     1      -4.292   3.621  -1.942  0.00  0.00    +0.047 A 
ATOM     28  C   UNL     1      -3.660   4.030  -3.107  0.00  0.00    +0.120 A 
ATOM     29  C   UNL     1      -3.967   3.415  -4.312  0.00  0.00    +0.047 A 
ATOM     30  C   UNL     1      -4.897   2.394  -4.348  0.00  0.00    +0.032 A 
BRANCH  28  31
ATOM     31  O   UNL     1      -2.742   5.031  -3.068  0.00  0.00    -0.495 OA
ATOM     32  C   UNL     1      -2.132   5.400  -4.306  0.00  0.00    +0.277 C 
ENDBRANCH  28  31
ENDBRANCH  22  25
ENDBRANCH  20  22
ENDBRANCH  19  20
BRANCH  19  33
ATOM     33  C   UNL     1      -5.367  -2.451  -1.346  0.00  0.00    +0.033 C 
BRANCH  33  34
ATOM     34  C   UNL     1      -6.838  -2.770  -1.072  0.00  0.00    -0.015 C 
ATOM     35  C   UNL     1      -7.001  -4.274  -0.849  0.00  0.00    +0.007 C 
ATOM     36  C   UNL     1      -7.299  -2.016   0.177  0.00  0.00    +0.007 C 
ENDBRANCH  33  34
ENDBRANCH  19  33
ENDBRANCH   2  19
TORSDOF 11
