REMARK  Name = ZINC13362028
REMARK  5 active torsions:
REMARK  status: ('A' for Active; 'I' for Inactive)
REMARK    1  A    between atoms: C_1  and  C_2
REMARK    2  A    between atoms: C_2  and  C_3
REMARK    3  A    between atoms: C_6  and  C_9
REMARK    4  A    between atoms: C_17  and  C_26
REMARK    5  A    between atoms: N_19  and  C_20
REMARK                            x       y       z     vdW  Elec       q    Type
REMARK                         _______ _______ _______ _____ _____    ______ ____
ROOT
ATOM      1  C   UNL     1      -1.145  -0.982   0.023  0.00  0.00    +0.063 C 
ATOM      2  C   UNL     1      -0.697  -2.266  -0.681  0.00  0.00    +0.109 C 
ATOM      3  C   UNL     1       0.687  -2.666  -0.256  0.00  0.00    +0.219 C 
ATOM      4  O   UNL     1       0.937  -3.842  -0.097  0.00  0.00    -0.275 OA
ATOM      5  N   UNL     1       1.663  -1.756  -0.046  0.00  0.00    -0.270 N 
ATOM      6  C   UNL     1       1.308  -0.408  -0.020  0.00  0.00    +0.133 A 
ATOM      7  C   UNL     1       0.002  -0.004   0.002  0.00  0.00    +0.028 A 
ATOM      8  C   UNL     1      -0.017   1.393   0.010  0.00  0.00    +0.099 A 
ATOM      9  N   UNL     1       1.234   1.818   0.000  0.00  0.00    -0.164 NA
ATOM     10  N   UNL     1       2.082   0.699  -0.015  0.00  0.00    -0.217 N 
ATOM     11  H   UNL     1       2.583  -2.033   0.083  0.00  0.00    +0.156 HD
ENDROOT
BRANCH   1  15
ATOM     12  C   UNL     1      -2.220  -1.854   4.064  0.00  0.00    -0.048 A 
ATOM     13  C   UNL     1      -3.148  -1.292   3.208  0.00  0.00    +0.004 A 
ATOM     14  C   UNL     1      -2.800  -1.010   1.901  0.00  0.00    +0.004 A 
ATOM     15  C   UNL     1      -1.524  -1.289   1.449  0.00  0.00    -0.039 A 
ATOM     16  C   UNL     1      -0.597  -1.856   2.303  0.00  0.00    +0.004 A 
ATOM     17  C   UNL     1      -0.944  -2.134   3.612  0.00  0.00    +0.004 A 
BRANCH  12  19
ATOM     18  C   UNL     1      -3.158  -3.584   5.574  0.00  0.00    +0.009 C 
ATOM     19  C   UNL     1      -2.599  -2.162   5.490  0.00  0.00    +0.032 C 
ENDBRANCH  12  19
ENDBRANCH   1  15
BRANCH  10  20
ATOM     20  C   UNL     1       3.483   0.727  -0.024  0.00  0.00    +0.067 A 
ATOM     21  C   UNL     1       4.202  -0.247   0.657  0.00  0.00    +0.028 A 
ATOM     22  C   UNL     1       5.582  -0.221   0.642  0.00  0.00    +0.002 A 
ATOM     23  C   UNL     1       6.249   0.780  -0.040  0.00  0.00    +0.000 A 
ATOM     24  C   UNL     1       5.536   1.754  -0.715  0.00  0.00    +0.002 A 
ATOM     25  C   UNL     1       4.155   1.730  -0.708  0.00  0.00    +0.028 A 
ENDBRANCH  10  20
BRANCH   8  26
ATOM     26  C   UNL     1      -1.229   2.249   0.020  0.00  0.00    +0.002 A 
ATOM     27  C   UNL     1      -2.371   1.852  -0.672  0.00  0.00    +0.010 A 
ATOM     28  C   UNL     1      -3.498   2.650  -0.655  0.00  0.00    +0.001 A 
ATOM     29  C   UNL     1      -3.490   3.845   0.040  0.00  0.00    +0.000 A 
ATOM     30  C   UNL     1      -2.358   4.247   0.725  0.00  0.00    +0.001 A 
ATOM     31  C   UNL     1      -1.227   3.455   0.718  0.00  0.00    +0.010 A 
ENDBRANCH   8  26
TORSDOF 4
