REMARK  Name = ZINC18198913
REMARK  6 active torsions:
REMARK  status: ('A' for Active; 'I' for Inactive)
REMARK    1  A    between atoms: C_1  and  O_2
REMARK    2  A    between atoms: O_2  and  C_3
REMARK    3  A    between atoms: C_6  and  C_11
REMARK    4  A    between atoms: C_8  and  O_9
REMARK    5  A    between atoms: O_9  and  C_10
REMARK    6  A    between atoms: C_16  and  C_25
REMARK                            x       y       z     vdW  Elec       q    Type
REMARK                         _______ _______ _______ _____ _____    ______ ____
ROOT
ATOM      1  C   UNL     1      -1.333   2.112   0.020  0.00  0.00    +0.032 C 
ATOM      2  C   UNL     1      -1.438   2.999  -1.222  0.00  0.00    +0.060 C 
ATOM      3  C   UNL     1      -2.738   3.768  -1.190  0.00  0.00    +0.020 C 
ATOM      4  C   UNL     1      -3.301   4.129  -0.017  0.00  0.00    +0.041 C 
ATOM      5  C   UNL     1      -4.602   4.898   0.048  0.00  0.00    +0.175 C 
ATOM      6  N   UNL     1      -4.929   5.437  -1.267  0.00  0.00    -0.219 N 
ATOM      7  C   UNL     1      -4.317   5.039  -2.409  0.00  0.00    +0.220 A 
ATOM      8  N   UNL     1      -4.841   5.704  -3.403  0.00  0.00    -0.180 NA
ATOM      9  C   UNL     1      -5.783   6.536  -2.937  0.00  0.00    +0.233 A 
ATOM     10  N   UNL     1      -5.866   6.402  -1.631  0.00  0.00    -0.132 NA
ATOM     11  N   UNL     1      -6.553   7.404  -3.713  0.00  0.00    -0.326 N 
ATOM     12  N   UNL     1      -3.313   4.085  -2.397  0.00  0.00    -0.287 N 
ATOM     13  C   UNL     1      -2.693   3.798   1.208  0.00  0.00    +0.164 C 
ATOM     14  O   UNL     1      -3.212   4.158   2.246  0.00  0.00    -0.292 OA
ATOM     15  C   UNL     1      -1.415   3.008   1.260  0.00  0.00    +0.088 C 
ATOM     16  H   UNL     1      -6.425   7.437  -4.675  0.00  0.00    +0.145 HD
ATOM     17  H   UNL     1      -7.215   7.974  -3.292  0.00  0.00    +0.145 HD
ATOM     18  H   UNL     1      -3.025   3.653  -3.216  0.00  0.00    +0.155 HD
ENDROOT
BRANCH   1  22
ATOM     19  C   UNL     1       2.405   0.035  -0.021  0.00  0.00    +0.161 A 
ATOM     20  C   UNL     1       2.379   1.420  -0.013  0.00  0.00    +0.049 A 
ATOM     21  C   UNL     1       1.169   2.089   0.002  0.00  0.00    +0.008 A 
ATOM     22  C   UNL     1      -0.017   1.378   0.010  0.00  0.00    -0.040 A 
ATOM     23  C   UNL     1       0.002  -0.004   0.002  0.00  0.00    +0.053 A 
ATOM     24  C   UNL     1       1.211  -0.680  -0.013  0.00  0.00    +0.162 A 
BRANCH  19  26
ATOM     25  C   UNL     1       4.779   0.174  -0.043  0.00  0.00    +0.277 C 
ATOM     26  O   UNL     1       3.594  -0.625  -0.036  0.00  0.00    -0.491 OA
ENDBRANCH  19  26
BRANCH  24  27
ATOM     27  O   UNL     1       1.232  -2.040  -0.021  0.00  0.00    -0.491 OA
ATOM     28  C   UNL     1      -0.032  -2.708  -0.013  0.00  0.00    +0.277 C 
ENDBRANCH  24  27
ENDBRANCH   1  22
BRANCH   5  29
ATOM     29  C   UNL     1      -5.706   3.976   0.498  0.00  0.00    -0.018 A 
ATOM     30  C   UNL     1      -6.019   2.857  -0.249  0.00  0.00    +0.006 A 
ATOM     31  C   UNL     1      -7.029   2.008   0.166  0.00  0.00    +0.000 A 
ATOM     32  C   UNL     1      -7.731   2.285   1.325  0.00  0.00    +0.000 A 
ATOM     33  C   UNL     1      -7.420   3.407   2.070  0.00  0.00    +0.000 A 
ATOM     34  C   UNL     1      -6.408   4.253   1.656  0.00  0.00    +0.006 A 
ENDBRANCH   5  29
TORSDOF 4
