REMARK  Name = ZINC48867571
REMARK  10 active torsions:
REMARK  status: ('A' for Active; 'I' for Inactive)
REMARK    1  A    between atoms: C_1  and  C_2
REMARK    2  A    between atoms: C_3  and  C_14
REMARK    3  A    between atoms: C_4  and  C_13
REMARK    4  A    between atoms: C_8  and  C_11
REMARK    5  A    between atoms: C_14  and  C_15
REMARK    6  A    between atoms: C_15  and  C_16
REMARK    7  A    between atoms: C_16  and  O_18
REMARK    8  A    between atoms: O_18  and  C_19
REMARK    9  A    between atoms: C_26  and  C_28
REMARK   10  A    between atoms: C_26  and  C_29
REMARK                            x       y       z     vdW  Elec       q    Type
REMARK                         _______ _______ _______ _____ _____    ______ ____
ROOT
ATOM      1  C   UNL     1      -2.949   0.282   1.454  0.00  0.00    +0.126 C 
ENDROOT
BRANCH   1   2
ATOM      2  C   UNL     1      -4.266   1.014   1.474  0.00  0.00    +0.313 C 
ATOM      3  O   UNL     1      -4.887   1.168   0.449  0.00  0.00    -0.250 OA
BRANCH   2   4
ATOM      4  O   UNL     1      -4.749   1.497   2.630  0.00  0.00    -0.422 OA
BRANCH   4   5
ATOM      5  C   UNL     1      -5.886   2.241   2.585  0.00  0.00    +0.173 A 
ATOM      6  C   UNL     1      -5.806   3.621   2.513  0.00  0.00    +0.050 A 
ATOM      7  C   UNL     1      -6.957   4.385   2.468  0.00  0.00    +0.004 A 
ATOM      8  C   UNL     1      -8.194   3.767   2.499  0.00  0.00    +0.007 A 
ATOM      9  C   UNL     1      -8.278   2.393   2.573  0.00  0.00    +0.002 A 
ATOM     10  C   UNL     1      -7.133   1.611   2.607  0.00  0.00    +0.167 A 
ATOM     11  O   UNL     1      -7.441   0.285   2.651  0.00  0.00    -0.482 OA
ATOM     12  C   UNL     1      -8.801   0.130   3.090  0.00  0.00    +0.109 C 
ATOM     13  C   UNL     1      -9.463   1.449   2.633  0.00  0.00    +0.086 C 
ATOM     14  C   UNL     1      -8.868   0.001   4.613  0.00  0.00    +0.056 C 
ATOM     15  C   UNL     1      -9.455  -1.075   2.412  0.00  0.00    +0.056 C 
ENDBRANCH   4   5
ENDBRANCH   2   4
ENDBRANCH   1   2
BRANCH   1  16
ATOM     16  C   UNL     1      -2.632  -0.160   0.024  0.00  0.00    +0.050 C 
BRANCH  16  19
ATOM     17  C   UNL     1      -0.133   1.322  -0.182  0.00  0.00    +0.066 C 
ATOM     18  C   UNL     1      -0.113  -0.182  -0.094  0.00  0.00    +0.046 A 
ATOM     19  C   UNL     1      -1.315  -0.892   0.005  0.00  0.00    -0.005 A 
ATOM     20  C   UNL     1      -1.284  -2.247   0.083  0.00  0.00    +0.047 A 
ATOM     21  N   UNL     1      -0.079  -2.885   0.064  0.00  0.00    -0.217 N 
ATOM     22  C   UNL     1       1.073  -2.156  -0.034  0.00  0.00    +0.173 A 
ATOM     23  N   UNL     1       1.034  -0.825  -0.116  0.00  0.00    -0.232 NA
ATOM     24  C   UNL     1       2.137  -3.077  -0.029  0.00  0.00    +0.115 A 
ATOM     25  C   UNL     1       1.569  -4.359   0.073  0.00  0.00    +0.156 A 
ATOM     26  N   UNL     1       0.268  -4.239   0.127  0.00  0.00    -0.172 NA
ATOM     27  C   UNL     1      -2.564  -3.035   0.190  0.00  0.00    +0.066 C 
BRANCH  24  28
ATOM     28  C   UNL     1       3.533  -2.768  -0.113  0.00  0.00    +0.104 C 
ATOM     29  N   UNL     1       4.640  -2.522  -0.180  0.00  0.00    -0.191 NA
ENDBRANCH  24  28
ENDBRANCH  16  19
ENDBRANCH   1  16
TORSDOF 6
