REMARK  Name = ZINC13633297
REMARK  3 active torsions:
REMARK  status: ('A' for Active; 'I' for Inactive)
REMARK    1  A    between atoms: C_4  and  C_7
REMARK    2  A    between atoms: C_18  and  C_19
REMARK    3  A    between atoms: C_22  and  C_25
REMARK                            x       y       z     vdW  Elec       q    Type
REMARK                         _______ _______ _______ _____ _____    ______ ____
ROOT
ATOM      1  C   UNL     1       3.865  -0.453   0.086  0.00  0.00    +0.005 A 
ATOM      2  C   UNL     1       4.718  -0.442  -1.112  0.00  0.00    +0.008 A 
ATOM      3  C   UNL     1       4.495   0.486  -2.134  0.00  0.00    +0.030 A 
ATOM      4  C   UNL     1       5.304   0.481  -3.249  0.00  0.00    +0.042 A 
ATOM      5  C   UNL     1       6.337  -0.441  -3.361  0.00  0.00    +0.022 A 
ATOM      6  C   UNL     1       6.568  -1.362  -2.363  0.00  0.00    +0.028 A 
ATOM      7  C   UNL     1       5.764  -1.374  -1.227  0.00  0.00    +0.050 A 
ATOM      8  N   UNL     1       5.995  -2.296  -0.224  0.00  0.00    -0.322 N 
ATOM      9  H   UNL     1       6.722  -2.929  -0.324  0.00  0.00    +0.169 HD
ATOM     10  C   UNL     1       5.239  -2.338   0.886  0.00  0.00    +0.259 A 
ATOM     11  O   UNL     1       5.479  -3.167   1.745  0.00  0.00    -0.267 OA
ATOM     12  C   UNL     1       4.133  -1.395   1.080  0.00  0.00    +0.070 A 
ATOM     13 CL   UNL     1       5.031   1.632  -4.520  0.00  0.00    -0.084 Cl
ENDROOT
BRANCH   1  17
ATOM     14  C   UNL     1       0.682   2.325   0.517  0.00  0.00    +0.000 A 
ATOM     15  C   UNL     1       1.992   2.772   0.524  0.00  0.00    +0.001 A 
ATOM     16  C   UNL     1       3.031   1.875   0.385  0.00  0.00    +0.008 A 
ATOM     17  C   UNL     1       2.758   0.514   0.236  0.00  0.00    -0.016 A 
ATOM     18  C   UNL     1       1.434   0.070   0.230  0.00  0.00    +0.008 A 
ATOM     19  C   UNL     1       0.405   0.977   0.370  0.00  0.00    +0.001 A 
ENDBRANCH   1  17
BRANCH  12  20
ATOM     20  C   UNL     1       3.316  -1.445   2.299  0.00  0.00    +0.074 C 
ATOM     21  N   UNL     1       2.298  -2.216   2.483  0.00  0.00    -0.190 NA
ATOM     22  N   UNL     1       1.693  -2.072   3.729  0.00  0.00    -0.261 N 
ATOM     23  C   UNL     1       2.419  -1.046   4.495  0.00  0.00    +0.125 C 
ATOM     24  C   UNL     1       3.542  -0.606   3.536  0.00  0.00    +0.086 C 
ATOM     25  H   UNL     1       0.919  -2.566   4.042  0.00  0.00    +0.169 HD
BRANCH  23  26
ATOM     26  C   UNL     1       3.000  -1.638   5.754  0.00  0.00    -0.025 A 
ATOM     27  C   UNL     1       3.540  -2.910   5.734  0.00  0.00    +0.006 A 
ATOM     28  C   UNL     1       4.074  -3.453   6.888  0.00  0.00    +0.015 A 
ATOM     29  C   UNL     1       4.068  -2.722   8.062  0.00  0.00    +0.018 A 
ATOM     30  C   UNL     1       3.527  -1.449   8.082  0.00  0.00    +0.015 A 
ATOM     31  C   UNL     1       2.999  -0.905   6.926  0.00  0.00    +0.006 A 
ATOM     32 BR   UNL     1       4.797  -3.464   9.642  0.00  0.00    -0.050 Br
ENDBRANCH  23  26
ENDBRANCH  12  20
TORSDOF 3
