REMARK  Name = ZINC08816051
REMARK  8 active torsions:
REMARK  status: ('A' for Active; 'I' for Inactive)
REMARK    1  A    between atoms: C_1  and  C_2
REMARK    2  A    between atoms: C_2  and  C_3
REMARK    3  A    between atoms: C_2  and  C_4
REMARK    4  A    between atoms: C_2  and  O_5
REMARK    5  A    between atoms: O_5  and  C_6
REMARK    6  A    between atoms: C_12  and  C_14
REMARK    7  A    between atoms: N_16  and  C_17
REMARK    8  A    between atoms: C_20  and  C_23
REMARK                            x       y       z     vdW  Elec       q    Type
REMARK                         _______ _______ _______ _____ _____    ______ ____
ROOT
ATOM      1  C   UNL     1       0.999  -1.918   1.387  0.00  0.00    +0.238 C 
ATOM      2  O   UNL     1      -0.087  -2.415   1.599  0.00  0.00    -0.273 OA
ATOM      3  N   UNL     1       2.006  -2.099   2.265  0.00  0.00    -0.284 N 
ATOM      4  H   UNL     1       2.893  -1.767   2.059  0.00  0.00    +0.155 HD
ENDROOT
BRANCH   1  11
ATOM      5  C   UNL     1      -0.052  -2.602  -1.409  0.00  0.00    +0.404 C 
ATOM      6  O   UNL     1       0.637  -3.555  -1.104  0.00  0.00    -0.226 OA
ATOM      7  N   UNL     1       0.177  -1.398  -0.848  0.00  0.00    -0.256 N 
ATOM      8  C   UNL     1      -0.579  -0.163  -1.125  0.00  0.00    +0.112 C 
ATOM      9  C   UNL     1       0.395   0.987  -0.767  0.00  0.00    +0.021 C 
ATOM     10  C   UNL     1       1.122   0.405   0.474  0.00  0.00    +0.033 C 
ATOM     11  C   UNL     1       1.222  -1.099   0.142  0.00  0.00    +0.165 C 
BRANCH   5  12
ATOM     12  O   UNL     1      -1.044  -2.748  -2.307  0.00  0.00    -0.445 OA
BRANCH  12  14
ATOM     13  C   UNL     1      -1.545  -5.065  -1.748  0.00  0.00    +0.055 C 
ATOM     14  C   UNL     1      -1.233  -4.073  -2.870  0.00  0.00    +0.107 C 
ATOM     15  C   UNL     1      -2.397  -4.044  -3.863  0.00  0.00    +0.055 C 
ATOM     16  C   UNL     1       0.043  -4.506  -3.594  0.00  0.00    +0.055 C 
ENDBRANCH  12  14
ENDBRANCH   5  12
ENDBRANCH   1  11
BRANCH   3  17
ATOM     17  C   UNL     1       1.770  -2.765   3.473  0.00  0.00    +0.033 A 
ATOM     18  C   UNL     1       0.541  -2.639   4.108  0.00  0.00    +0.023 A 
ATOM     19  C   UNL     1       0.309  -3.303   5.297  0.00  0.00    +0.006 A 
ATOM     20  C   UNL     1       1.303  -4.082   5.861  0.00  0.00    -0.041 A 
ATOM     21  C   UNL     1       2.529  -4.204   5.233  0.00  0.00    +0.006 A 
ATOM     22  C   UNL     1       2.765  -3.548   4.041  0.00  0.00    +0.023 A 
BRANCH  20  23
ATOM     23  C   UNL     1       1.049  -4.800   7.161  0.00  0.00    -0.003 C 
ATOM     24  C   UNL     1       1.210  -6.307   6.952  0.00  0.00    +0.015 C 
ATOM     25  C   UNL     1       0.952  -7.036   8.272  0.00  0.00    -0.010 C 
ATOM     26  C   UNL     1      -0.471  -6.736   8.750  0.00  0.00    +0.007 C 
ATOM     27  C   UNL     1      -0.631  -5.229   8.960  0.00  0.00    -0.010 C 
ATOM     28  C   UNL     1      -0.373  -4.500   7.639  0.00  0.00    +0.015 C 
ATOM     29  C   UNL     1       0.372  -4.750  10.011  0.00  0.00    +0.007 C 
ATOM     30  C   UNL     1       1.794  -5.050   9.533  0.00  0.00    -0.010 C 
ATOM     31  C   UNL     1       1.955  -6.557   9.323  0.00  0.00    +0.007 C 
ATOM     32  C   UNL     1       2.052  -4.321   8.212  0.00  0.00    +0.015 C 
ENDBRANCH  20  23
ENDBRANCH   3  17
TORSDOF 5
