REMARK  Name = ZINC33703667
REMARK  8 active torsions:
REMARK  status: ('A' for Active; 'I' for Inactive)
REMARK    1  A    between atoms: C_1  and  C_2
REMARK    2  A    between atoms: C_5  and  N_9
REMARK    3  A    between atoms: C_6  and  C_8
REMARK    4  A    between atoms: C_10  and  C_12
REMARK    5  A    between atoms: C_20  and  O_36
REMARK    6  A    between atoms: C_23  and  C_35
REMARK    7  A    between atoms: N_24  and  C_28
REMARK    8  A    between atoms: O_36  and  C_37
REMARK                            x       y       z     vdW  Elec       q    Type
REMARK                         _______ _______ _______ _____ _____    ______ ____
ROOT
ATOM      1  C   UNL     1      -1.374  -0.685   0.113  0.00  0.00    +0.163 C 
ATOM      2  C   UNL     1      -2.295  -0.349  -1.071  0.00  0.00    +0.123 C 
ATOM      3  C   UNL     1      -1.651  -0.879  -2.335  0.00  0.00    +0.019 A 
ATOM      4  C   UNL     1      -1.994  -0.310  -3.550  0.00  0.00    +0.009 A 
ATOM      5  C   UNL     1      -1.437  -0.783  -4.723  0.00  0.00    +0.004 A 
ATOM      6  C   UNL     1      -0.532  -1.829  -4.685  0.00  0.00    +0.049 A 
ATOM      7  C   UNL     1      -0.183  -2.398  -3.473  0.00  0.00    +0.162 A 
ATOM      8  C   UNL     1      -0.742  -1.918  -2.287  0.00  0.00    +0.170 A 
ATOM      9  O   UNL     1      -0.370  -2.495  -1.114  0.00  0.00    -0.463 OA
ATOM     10  C   UNL     1      -1.115  -2.197   0.063  0.00  0.00    +0.194 C 
ATOM     11  N   UNL     1      -2.392  -2.906   0.056  0.00  0.00    -0.243 N 
ATOM     12  C   UNL     1      -3.527  -2.326  -0.359  0.00  0.00    +0.141 C 
ATOM     13  S   UNL     1      -4.996  -3.197  -0.228  0.00  0.00    -0.018 S 
ATOM     14  N   UNL     1      -3.554  -1.087  -0.878  0.00  0.00    -0.318 N 
ATOM     15  C   UNL     1      -0.309  -2.615   1.294  0.00  0.00    +0.079 C 
ATOM     16  H   UNL     1      -4.511  -0.624  -1.159  0.00  0.00    +0.148 HD
ENDROOT
BRANCH  11  17
ATOM     17  C   UNL     1      -2.436  -4.229   0.508  0.00  0.00    +0.039 A 
ATOM     18  C   UNL     1      -1.770  -5.226  -0.193  0.00  0.00    +0.025 A 
ATOM     19  C   UNL     1      -1.811  -6.531   0.258  0.00  0.00    +0.022 A 
ATOM     20  C   UNL     1      -2.524  -6.847   1.402  0.00  0.00    +0.041 A 
ATOM     21  C   UNL     1      -3.192  -5.856   2.099  0.00  0.00    +0.022 A 
ATOM     22  C   UNL     1      -3.150  -4.549   1.655  0.00  0.00    +0.025 A 
ATOM     23 CL   UNL     1      -2.579  -8.489   1.962  0.00  0.00    -0.084 Cl
ENDBRANCH  11  17
BRANCH   1  25
ATOM     24  N   UNL     1      -0.069   1.413  -0.025  0.00  0.00    -0.285 N 
ATOM     25  C   UNL     1      -0.073   0.065  -0.018  0.00  0.00    +0.228 C 
ATOM     26  O   UNL     1       0.971  -0.545  -0.117  0.00  0.00    -0.275 OA
ATOM     27  H   UNL     1      -1.020   1.965  -0.029  0.00  0.00    +0.155 HD
BRANCH  24  32
ATOM     28  C   UNL     1       4.852   4.235  -0.037  0.00  0.00    +0.044 C 
ATOM     29  C   UNL     1       3.545   3.485  -0.033  0.00  0.00    -0.050 A 
ATOM     30  C   UNL     1       3.487   2.201   0.477  0.00  0.00    +0.005 A 
ATOM     31  C   UNL     1       2.291   1.511   0.481  0.00  0.00    +0.024 A 
ATOM     32  C   UNL     1       1.145   2.109  -0.027  0.00  0.00    +0.036 A 
ATOM     33  C   UNL     1       1.207   3.397  -0.543  0.00  0.00    -0.029 A 
ATOM     34  C   UNL     1       2.405   4.083  -0.540  0.00  0.00    +0.008 A 
ATOM     35  C   UNL     1      -0.033   4.047  -1.100  0.00  0.00    +0.045 C 
ENDBRANCH  24  32
ENDBRANCH   1  25
BRANCH   7  36
ATOM     36  O   UNL     1       0.707  -3.426  -3.437  0.00  0.00    -0.491 OA
ATOM     37  C   UNL     1       1.240  -3.867  -4.688  0.00  0.00    +0.277 C 
ENDBRANCH   7  36
TORSDOF 4
