REMARK  Name = ZINC10128973
REMARK  11 active torsions:
REMARK  status: ('A' for Active; 'I' for Inactive)
REMARK    1  A    between atoms: C_1  and  N_2
REMARK    2  A    between atoms: N_2  and  C_3
REMARK    3  A    between atoms: N_2  and  C_4
REMARK    4  A    between atoms: C_7  and  C_10
REMARK    5  A    between atoms: C_10  and  C_12
REMARK    6  A    between atoms: C_10  and  N_28
REMARK    7  A    between atoms: C_12  and  N_13
REMARK    8  A    between atoms: C_14  and  C_16
REMARK    9  A    between atoms: N_18  and  C_19
REMARK   10  A    between atoms: C_19  and  C_20
REMARK   11  A    between atoms: C_20  and  C_21
REMARK                            x       y       z     vdW  Elec       q    Type
REMARK                         _______ _______ _______ _____ _____    ______ ____
ROOT
ATOM      1  C   UNL     1       1.950  -2.760  -0.887  0.00  0.00    +0.121 C 
ENDROOT
BRANCH   1   2
ATOM      2  N   UNL     1       1.020  -2.050   0.001  0.00  0.00    -0.321 N 
ATOM      3  C   UNL     1      -0.384  -2.306  -0.388  0.00  0.00    +0.110 C 
ATOM      4  C   UNL     1      -1.093  -0.995   0.021  0.00  0.00    +0.056 C 
ATOM      5  C   UNL     1       0.028   0.024  -0.029  0.00  0.00    -0.025 A 
ATOM      6  C   UNL     1       1.234  -0.667  -0.050  0.00  0.00    +0.033 A 
ATOM      7  C   UNL     1       2.426   0.052  -0.111  0.00  0.00    +0.023 A 
ATOM      8  C   UNL     1       2.404   1.431  -0.145  0.00  0.00    +0.002 A 
ATOM      9  C   UNL     1       1.199   2.109  -0.118  0.00  0.00    +0.000 A 
ATOM     10  C   UNL     1       0.011   1.402  -0.060  0.00  0.00    +0.005 A 
ENDBRANCH   1   2
BRANCH   1  14
ATOM     11  C   UNL     1       1.249  -1.567  -4.931  0.00  0.00    +0.029 A 
ATOM     12  C   UNL     1       2.213  -0.917  -4.171  0.00  0.00    +0.023 A 
ATOM     13  C   UNL     1       2.438  -1.305  -2.865  0.00  0.00    +0.007 A 
ATOM     14  C   UNL     1       1.703  -2.339  -2.313  0.00  0.00    -0.025 A 
ATOM     15  C   UNL     1       0.746  -2.991  -3.069  0.00  0.00    +0.007 A 
ATOM     16  C   UNL     1       0.513  -2.605  -4.374  0.00  0.00    +0.023 A 
BRANCH  11  18
ATOM     17  C   UNL     1       1.798  -0.082  -6.839  0.00  0.00    +0.129 C 
ATOM     18  N   UNL     1       1.020  -1.177  -6.253  0.00  0.00    -0.336 N 
ATOM     19  C   UNL     1       0.003  -1.863  -7.053  0.00  0.00    +0.129 C 
ENDBRANCH  11  18
ENDBRANCH   1  14
BRANCH   1  20
ATOM     20  C   UNL     1       1.731  -4.268  -0.755  0.00  0.00    +0.131 C 
BRANCH  20  21
ATOM     21  N   UNL     1       1.854  -4.658   0.651  0.00  0.00    -0.305 N 
ATOM     22  C   UNL     1       1.699  -5.948   1.009  0.00  0.00    +0.299 C 
ATOM     23  O   UNL     1       1.457  -6.787   0.166  0.00  0.00    -0.265 OA
ATOM     24  H   UNL     1       2.048  -3.988   1.325  0.00  0.00    +0.149 HD
BRANCH  22  25
ATOM     25  C   UNL     1       1.824  -6.346   2.444  0.00  0.00    +0.299 C 
ATOM     26  O   UNL     1       2.066  -5.508   3.287  0.00  0.00    -0.265 OA
ATOM     27  N   UNL     1       1.669  -7.636   2.802  0.00  0.00    -0.307 N 
ATOM     28  H   UNL     1       1.476  -8.306   2.128  0.00  0.00    +0.149 HD
BRANCH  27  29
ATOM     29  C   UNL     1       1.792  -8.026   4.208  0.00  0.00    +0.109 C 
BRANCH  29  30
ATOM     30  C   UNL     1       1.573  -9.535   4.341  0.00  0.00    +0.054 C 
BRANCH  30  31
ATOM     31  C   UNL     1       1.700  -9.936   5.788  0.00  0.00    -0.046 A 
ATOM     32  C   UNL     1       2.930 -10.309   6.296  0.00  0.00    +0.005 A 
ATOM     33  C   UNL     1       3.048 -10.672   7.625  0.00  0.00    +0.020 A 
ATOM     34  C   UNL     1       1.932 -10.672   8.443  0.00  0.00    +0.041 A 
ATOM     35  C   UNL     1       0.700 -10.304   7.932  0.00  0.00    +0.020 A 
ATOM     36  C   UNL     1       0.585  -9.936   6.605  0.00  0.00    +0.005 A 
ATOM     37 CL   UNL     1       2.078 -11.134  10.110  0.00  0.00    -0.084 Cl
ENDBRANCH  30  31
ENDBRANCH  29  30
ENDBRANCH  27  29
ENDBRANCH  22  25
ENDBRANCH  20  21
ENDBRANCH   1  20
TORSDOF 9
