REMARK  Name = ZINC00628739
REMARK  9 active torsions:
REMARK  status: ('A' for Active; 'I' for Inactive)
REMARK    1  A    between atoms: C_1  and  C_2
REMARK    2  A    between atoms: C_3  and  C_26
REMARK    3  A    between atoms: C_4  and  C_16
REMARK    4  A    between atoms: C_10  and  C_14
REMARK    5  A    between atoms: C_10  and  C_15
REMARK    6  A    between atoms: C_20  and  O_24
REMARK    7  A    between atoms: C_21  and  O_22
REMARK    8  A    between atoms: O_22  and  C_23
REMARK    9  A    between atoms: O_24  and  C_25
REMARK                            x       y       z     vdW  Elec       q    Type
REMARK                         _______ _______ _______ _____ _____    ______ ____
ROOT
ATOM      1  C   UNL     1      -0.749   6.167   5.084  0.00  0.00    +0.061 C 
ATOM      2  C   UNL     1      -1.497   5.092   4.338  0.00  0.00    +0.019 C 
ATOM      3  C   UNL     1      -2.501   4.437   4.942  0.00  0.00    +0.058 C 
ATOM      4  C   UNL     1      -3.272   3.365   4.229  0.00  0.00    +0.099 C 
ATOM      5  C   UNL     1      -2.517   2.867   3.021  0.00  0.00    +0.025 C 
ATOM      6  C   UNL     1      -1.511   3.594   2.490  0.00  0.00    +0.016 C 
ATOM      7  N   UNL     1      -1.148   4.789   3.047  0.00  0.00    -0.320 N 
ATOM      8  C   UNL     1      -0.760   3.109   1.274  0.00  0.00    +0.058 C 
ATOM      9  C   UNL     1      -0.729   1.579   1.267  0.00  0.00    -0.023 C 
ATOM     10  C   UNL     1      -2.170   1.059   1.276  0.00  0.00    +0.086 C 
ATOM     11  C   UNL     1      -2.889   1.630   2.469  0.00  0.00    +0.162 C 
ATOM     12  O   UNL     1      -3.806   1.006   2.965  0.00  0.00    -0.292 OA
ATOM     13  C   UNL     1      -0.013   1.086   0.008  0.00  0.00    +0.011 C 
ATOM     14  C   UNL     1       0.008   1.074   2.509  0.00  0.00    +0.011 C 
ATOM     15  H   UNL     1      -0.571   5.511   2.450  0.00  0.00    +0.152 HD
ENDROOT
BRANCH   4  16
ATOM     16  C   UNL     1      -4.601   3.921   3.788  0.00  0.00    +0.011 A 
ATOM     17  C   UNL     1      -4.646   5.005   2.930  0.00  0.00    +0.008 A 
ATOM     18  C   UNL     1      -5.863   5.514   2.519  0.00  0.00    +0.004 A 
ATOM     19  C   UNL     1      -7.041   4.949   2.973  0.00  0.00    +0.049 A 
ATOM     20  C   UNL     1      -7.003   3.868   3.837  0.00  0.00    +0.162 A 
ATOM     21  C   UNL     1      -5.777   3.351   4.247  0.00  0.00    +0.166 A 
BRANCH  21  22
ATOM     22  O   UNL     1      -5.734   2.289   5.095  0.00  0.00    -0.491 OA
ATOM     23  C   UNL     1      -5.711   2.576   6.494  0.00  0.00    +0.277 C 
ENDBRANCH  21  22
BRANCH  20  24
ATOM     24  O   UNL     1      -8.160   3.311   4.284  0.00  0.00    -0.491 OA
ATOM     25  C   UNL     1      -9.381   3.893   3.822  0.00  0.00    +0.277 C 
ENDBRANCH  20  24
ENDBRANCH   4  16
BRANCH   3  26
ATOM     26  C   UNL     1      -2.843   4.768   6.293  0.00  0.00    +0.097 C 
ATOM     27  N   UNL     1      -3.115   5.030   7.364  0.00  0.00    -0.191 NA
ENDBRANCH   3  26
TORSDOF 4
