REMARK  Name = ZINC09168960
REMARK  9 active torsions:
REMARK  status: ('A' for Active; 'I' for Inactive)
REMARK    1  A    between atoms: C_1  and  C_2
REMARK    2  A    between atoms: N_5  and  S_11
REMARK    3  A    between atoms: C_7  and  C_10
REMARK    4  A    between atoms: S_11  and  C_14
REMARK    5  A    between atoms: C_17  and  C_20
REMARK    6  A    between atoms: N_22  and  C_23
REMARK    7  A    between atoms: N_22  and  C_24
REMARK    8  A    between atoms: C_24  and  C_25
REMARK    9  A    between atoms: N_27  and  C_28
REMARK                            x       y       z     vdW  Elec       q    Type
REMARK                         _______ _______ _______ _____ _____    ______ ____
ROOT
ATOM      1  C   UNL     1       4.483   6.229  -1.489  0.00  0.00    +0.247 C 
ATOM      2  O   UNL     1       3.892   6.452  -0.451  0.00  0.00    -0.270 OA
ATOM      3  N   UNL     1       3.895   5.498  -2.456  0.00  0.00    -0.292 N 
ATOM      4  C   UNL     1       4.652   5.120  -3.652  0.00  0.00    +0.133 C 
ENDROOT
BRANCH   1   8
ATOM      5  C   UNL     1       8.403   7.758  -2.070  0.00  0.00    +0.106 A 
ATOM      6  C   UNL     1       7.533   7.669  -3.142  0.00  0.00    +0.029 A 
ATOM      7  C   UNL     1       6.258   7.174  -2.960  0.00  0.00    +0.015 A 
ATOM      8  C   UNL     1       5.848   6.761  -1.691  0.00  0.00    +0.037 A 
ATOM      9  C   UNL     1       6.729   6.857  -0.614  0.00  0.00    +0.015 A 
ATOM     10  C   UNL     1       8.003   7.350  -0.810  0.00  0.00    +0.029 A 
BRANCH   5  11
ATOM     11  S   UNL     1      10.030   8.392  -2.311  0.00  0.00    +0.061 S 
ATOM     12  O   UNL     1      10.831   7.864  -1.262  0.00  0.00    -0.153 OA
ATOM     13  O   UNL     1      10.343   8.195  -3.683  0.00  0.00    -0.153 OA
BRANCH  11  17
ATOM     14  C   UNL     1       7.717  10.772  -0.278  0.00  0.00    +0.039 C 
ATOM     15  C   UNL     1       9.013  11.569  -0.436  0.00  0.00    +0.131 C 
ATOM     16  C   UNL     1      10.171  10.610  -0.737  0.00  0.00    +0.140 C 
ATOM     17  N   UNL     1       9.957  10.029  -2.072  0.00  0.00    -0.172 NA
ATOM     18  C   UNL     1       9.683  10.946  -3.190  0.00  0.00    +0.140 C 
ATOM     19  C   UNL     1       8.544  11.888  -2.769  0.00  0.00    +0.131 C 
ATOM     20  O   UNL     1       8.876  12.495  -1.517  0.00  0.00    -0.371 OA
ATOM     21  C   UNL     1       8.362  12.974  -3.831  0.00  0.00    +0.039 C 
ENDBRANCH  11  17
ENDBRANCH   5  11
ENDBRANCH   1   8
BRANCH   3  22
ATOM     22  C   UNL     1       2.498   5.080  -2.311  0.00  0.00    +0.203 C 
BRANCH  22  23
ATOM     23  C   UNL     1       1.595   6.130  -2.906  0.00  0.00    +0.235 C 
ATOM     24  O   UNL     1       2.072   7.129  -3.403  0.00  0.00    -0.274 OA
ATOM     25  N   UNL     1       0.259   5.958  -2.887  0.00  0.00    -0.282 N 
ATOM     26  H   UNL     1      -0.127   5.200  -2.421  0.00  0.00    +0.155 HD
BRANCH  25  27
ATOM     27  C   UNL     1      -0.575   6.876  -3.541  0.00  0.00    +0.072 A 
ATOM     28  C   UNL     1      -0.085   7.629  -4.599  0.00  0.00    +0.029 A 
ATOM     29  C   UNL     1      -0.907   8.533  -5.243  0.00  0.00    +0.043 A 
ATOM     30  C   UNL     1      -2.220   8.691  -4.835  0.00  0.00    +0.161 A 
ATOM     31  C   UNL     1      -2.714   7.942  -3.778  0.00  0.00    +0.195 A 
ATOM     32  C   UNL     1      -1.893   7.034  -3.130  0.00  0.00    +0.182 A 
ATOM     33  F   UNL     1      -2.372   6.308  -2.096  0.00  0.00    -0.200 F 
ATOM     34  F   UNL     1      -3.995   8.098  -3.380  0.00  0.00    -0.199 F 
ATOM     35  F   UNL     1      -3.021   9.577  -5.466  0.00  0.00    -0.202 F 
ENDBRANCH  25  27
ENDBRANCH  22  23
ENDBRANCH   3  22
TORSDOF 6
