REMARK  Name = ZINC40122639
REMARK  9 active torsions:
REMARK  status: ('A' for Active; 'I' for Inactive)
REMARK    1  A    between atoms: C_1  and  C_2
REMARK    2  A    between atoms: C_2  and  C_3
REMARK    3  A    between atoms: C_2  and  C_4
REMARK    4  A    between atoms: C_4  and  C_5
REMARK    5  A    between atoms: C_5  and  C_7
REMARK    6  A    between atoms: C_5  and  N_11
REMARK    7  A    between atoms: N_9  and  C_10
REMARK    8  A    between atoms: C_12  and  C_14
REMARK    9  A    between atoms: C_16  and  C_20
REMARK                            x       y       z     vdW  Elec       q    Type
REMARK                         _______ _______ _______ _____ _____    ______ ____
ROOT
ATOM      1  N   UNL     1      -0.876  -2.426  -1.433  0.00  0.00    -0.299 N 
ATOM      2  C   UNL     1      -0.298  -3.631  -1.609  0.00  0.00    +0.265 C 
ATOM      3  O   UNL     1      -0.224  -4.411  -0.680  0.00  0.00    -0.268 OA
ATOM      4  H   UNL     1      -0.936  -1.804  -2.174  0.00  0.00    +0.150 HD
ENDROOT
BRANCH   2   5
ATOM      5  C   UNL     1       0.246  -4.003  -2.931  0.00  0.00    +0.147 A 
ATOM      6  C   UNL     1       0.870  -5.224  -3.266  0.00  0.00    +0.062 A 
ATOM      7  C   UNL     1       1.204  -5.112  -4.586  0.00  0.00    +0.068 A 
ATOM      8  N   UNL     1       0.790  -3.879  -4.995  0.00  0.00    -0.276 N 
ATOM      9  H   UNL     1       0.896  -3.525  -5.892  0.00  0.00    +0.189 HD
ATOM     10  N   UNL     1       0.232  -3.258  -4.019  0.00  0.00    -0.169 NA
BRANCH   7  11
ATOM     11  C   UNL     1       1.886  -6.133  -5.413  0.00  0.00    +0.018 A 
ATOM     12  C   UNL     1       2.926  -6.890  -4.875  0.00  0.00    +0.011 A 
ATOM     13  C   UNL     1       3.558  -7.840  -5.651  0.00  0.00    +0.001 A 
ATOM     14  C   UNL     1       3.161  -8.044  -6.961  0.00  0.00    +0.001 A 
ATOM     15  C   UNL     1       2.130  -7.297  -7.502  0.00  0.00    +0.020 A 
ATOM     16  C   UNL     1       1.486  -6.346  -6.734  0.00  0.00    +0.050 A 
ATOM     17 CL   UNL     1       0.187  -5.414  -7.411  0.00  0.00    -0.083 Cl
ENDBRANCH   7  11
ENDBRANCH   2   5
BRANCH   1  18
ATOM     18  C   UNL     1      -1.416  -2.058  -0.121  0.00  0.00    +0.159 C 
BRANCH  18  19
ATOM     19  C   UNL     1      -2.819  -2.590   0.013  0.00  0.00    +0.233 C 
ATOM     20  O   UNL     1      -3.320  -3.216  -0.898  0.00  0.00    -0.274 OA
ATOM     21  N   UNL     1      -3.518  -2.371   1.144  0.00  0.00    -0.317 N 
ATOM     22  C   UNL     1      -4.882  -2.888   1.274  0.00  0.00    +0.128 C 
ATOM     23  H   UNL     1      -3.118  -1.870   1.872  0.00  0.00    +0.148 HD
ENDBRANCH  18  19
BRANCH  18  24
ATOM     24  C   UNL     1      -1.433  -0.534   0.013  0.00  0.00    +0.034 C 
BRANCH  24  26
ATOM     25  C   UNL     1      -0.019   1.526   0.010  0.00  0.00    +0.007 C 
ATOM     26  C   UNL     1       0.002  -0.004   0.002  0.00  0.00    -0.015 C 
ATOM     27  C   UNL     1       0.742  -0.511   1.242  0.00  0.00    +0.007 C 
ENDBRANCH  24  26
ENDBRANCH  18  24
ENDBRANCH   1  18
TORSDOF 6
