REMARK  Name = ZINC18144069
REMARK  9 active torsions:
REMARK  status: ('A' for Active; 'I' for Inactive)
REMARK    1  A    between atoms: C_1  and  O_2
REMARK    2  A    between atoms: O_2  and  C_3
REMARK    3  A    between atoms: C_5  and  C_19
REMARK    4  A    between atoms: C_8  and  O_9
REMARK    5  A    between atoms: O_9  and  C_10
REMARK    6  A    between atoms: C_10  and  C_11
REMARK    7  A    between atoms: C_19  and  N_20
REMARK    8  A    between atoms: N_20  and  C_21
REMARK    9  A    between atoms: C_30  and  O_33
REMARK                            x       y       z     vdW  Elec       q    Type
REMARK                         _______ _______ _______ _____ _____    ______ ____
ROOT
ATOM      1  C   UNL     1      -1.201  -0.638   0.010  0.00  0.00    +0.162 A 
ATOM      2  C   UNL     1      -2.374   0.099   0.019  0.00  0.00    +0.051 A 
ATOM      3  C   UNL     1      -3.596  -0.546   0.027  0.00  0.00    -0.061 A 
ATOM      4  C   UNL     1      -3.652  -1.928   0.026  0.00  0.00    +0.005 A 
ATOM      5  C   UNL     1      -2.485  -2.669   0.017  0.00  0.00    +0.049 A 
ATOM      6  C   UNL     1      -1.257  -2.028   0.003  0.00  0.00    +0.162 A 
ENDROOT
BRANCH   1   8
ATOM      7  C   UNL     1      -0.017   1.425   0.010  0.00  0.00    +0.277 C 
ATOM      8  O   UNL     1       0.002  -0.004   0.002  0.00  0.00    -0.491 OA
ENDBRANCH   1   8
BRANCH   6   9
ATOM      9  O   UNL     1      -0.108  -2.756  -0.012  0.00  0.00    -0.484 OA
BRANCH   9  10
ATOM     10  C   UNL     1      -0.242  -4.179  -0.018  0.00  0.00    +0.266 C 
BRANCH  10  11
ATOM     11  C   UNL     1       1.125  -4.812  -0.034  0.00  0.00    +0.008 A 
ATOM     12  C   UNL     1       2.256  -4.016  -0.035  0.00  0.00    +0.010 A 
ATOM     13  C   UNL     1       3.510  -4.596  -0.050  0.00  0.00    +0.020 A 
ATOM     14  C   UNL     1       3.636  -5.974  -0.064  0.00  0.00    +0.042 A 
ATOM     15  C   UNL     1       2.505  -6.771  -0.063  0.00  0.00    +0.040 A 
ATOM     16  C   UNL     1       1.250  -6.190  -0.043  0.00  0.00    +0.049 A 
ATOM     17 CL   UNL     1      -0.169  -7.189  -0.035  0.00  0.00    -0.083 Cl
ATOM     18 CL   UNL     1       5.211  -6.702  -0.083  0.00  0.00    -0.083 Cl
ENDBRANCH  10  11
ENDBRANCH   9  10
ENDBRANCH   6   9
BRANCH   3  19
ATOM     19  C   UNL     1      -4.871   0.257   0.037  0.00  0.00    -0.046 C 
BRANCH  19  20
ATOM     20  N   UNL     1      -5.295   0.520  -1.344  0.00  0.00    +0.386 N 
ATOM     21  H   UNL     1      -4.575   1.038  -1.824  0.00  0.00    -0.085 HD
ATOM     22  H   UNL     1      -5.454  -0.355  -1.820  0.00  0.00    -0.085 HD
BRANCH  20  23
ATOM     23  C   UNL     1      -6.538   1.303  -1.334  0.00  0.00    -0.065 C 
ATOM     24  C   UNL     1      -7.631   0.517  -0.607  0.00  0.00    -0.009 C 
ATOM     25  C   UNL     1      -8.925   1.333  -0.596  0.00  0.00    -0.009 C 
ATOM     26  C   UNL     1      -8.685   2.661   0.125  0.00  0.00    +0.007 C 
ATOM     27  C   UNL     1      -7.593   3.447  -0.603  0.00  0.00    -0.009 C 
ATOM     28  C   UNL     1      -6.298   2.631  -0.613  0.00  0.00    -0.009 C 
ATOM     29  C   UNL     1      -8.034   3.721  -2.042  0.00  0.00    +0.038 C 
ATOM     30  C   UNL     1      -8.274   2.393  -2.763  0.00  0.00    +0.065 C 
ATOM     31  C   UNL     1      -9.367   1.607  -2.035  0.00  0.00    +0.038 C 
ATOM     32  C   UNL     1      -6.980   1.577  -2.773  0.00  0.00    +0.022 C 
BRANCH  30  33
ATOM     33  O   UNL     1      -8.687   2.649  -4.107  0.00  0.00    -0.389 OA
ATOM     34  H   UNL     1      -9.503   3.163  -4.177  0.00  0.00    +0.210 HD
ENDBRANCH  30  33
ENDBRANCH  20  23
ENDBRANCH  19  20
ENDBRANCH   3  19
TORSDOF 8
