REMARK  Name = ZINC39104307
REMARK  7 active torsions:
REMARK  status: ('A' for Active; 'I' for Inactive)
REMARK    1  A    between atoms: C_1  and  C_2
REMARK    2  A    between atoms: C_4  and  C_9
REMARK    3  A    between atoms: C_4  and  C_10
REMARK    4  A    between atoms: C_6  and  C_7
REMARK    5  A    between atoms: C_6  and  C_8
REMARK    6  A    between atoms: C_10  and  C_11
REMARK    7  A    between atoms: C_10  and  C_12
REMARK                            x       y       z     vdW  Elec       q    Type
REMARK                         _______ _______ _______ _____ _____    ______ ____
ROOT
ATOM      1  C   UNL     1      -0.263   1.043   0.098  0.00  0.00    +0.062 C 
ATOM      2  C   UNL     1      -0.050  -0.449   0.083  0.00  0.00    +0.032 C 
ATOM      3  N   UNL     1       0.026  -1.170  -0.968  0.00  0.00    -0.269 NA
ATOM      4  C   UNL     1       0.234  -2.580  -0.619  0.00  0.00    +0.112 C 
ATOM      5  N   UNL     1       0.687  -2.585   0.792  0.00  0.00    -0.283 NA
ATOM      6  C   UNL     1       0.115  -1.318   1.309  0.00  0.00    +0.053 C 
ATOM      7  C   UNL     1       1.074  -0.663   2.305  0.00  0.00    +0.034 C 
ATOM      8  C   UNL     1      -1.243  -1.578   1.965  0.00  0.00    +0.034 C 
ATOM      9  C   UNL     1      -1.077  -3.357  -0.756  0.00  0.00    +0.054 C 
ATOM     10  H   UNL     1       0.316  -3.381   1.289  0.00  0.00    +0.125 HD
ENDROOT
BRANCH   4  11
ATOM     11  C   UNL     1       1.308  -3.193  -1.520  0.00  0.00    +0.025 C 
ATOM     12  C   UNL     1       0.905  -3.020  -2.986  0.00  0.00    +0.011 C 
ATOM     13  C   UNL     1       2.644  -2.490  -1.272  0.00  0.00    +0.011 C 
ENDBRANCH   4  11
TORSDOF 1
