REMARK  Name = ZINC08871072
REMARK  13 active torsions:
REMARK  status: ('A' for Active; 'I' for Inactive)
REMARK    1  A    between atoms: C_1  and  C_2
REMARK    2  A    between atoms: C_2  and  C_4
REMARK    3  A    between atoms: C_2  and  N_10
REMARK    4  A    between atoms: C_4  and  C_5
REMARK    5  A    between atoms: C_5  and  C_6
REMARK    6  A    between atoms: C_6  and  C_7
REMARK    7  A    between atoms: C_7  and  C_8
REMARK    8  A    between atoms: C_7  and  C_9
REMARK    9  A    between atoms: C_11  and  C_13
REMARK   10  A    between atoms: N_24  and  C_27
REMARK   11  A    between atoms: C_25  and  N_26
REMARK   12  A    between atoms: C_27  and  C_28
REMARK   13  A    between atoms: C_28  and  C_29
REMARK                            x       y       z     vdW  Elec       q    Type
REMARK                         _______ _______ _______ _____ _____    ______ ____
ROOT
ATOM      1  C   UNL     1       2.760  -1.084   2.357  0.00  0.00    +0.103 A 
ATOM      2  C   UNL     1       3.097  -2.482   2.673  0.00  0.00    +0.122 A 
ATOM      3  C   UNL     1       3.797  -2.432   3.959  0.00  0.00    +0.162 A 
ATOM      4  N   UNL     1       4.227  -3.549   4.505  0.00  0.00    -0.226 NA
ATOM      5  C   UNL     1       4.021  -4.718   3.884  0.00  0.00    +0.092 A 
ATOM      6  C   UNL     1       4.478  -5.917   4.462  0.00  0.00    +0.030 A 
ATOM      7  C   UNL     1       4.264  -7.100   3.824  0.00  0.00    +0.002 A 
ATOM      8  C   UNL     1       3.597  -7.144   2.600  0.00  0.00    +0.002 A 
ATOM      9  C   UNL     1       3.142  -6.006   2.011  0.00  0.00    +0.030 A 
ATOM     10  C   UNL     1       3.344  -4.763   2.641  0.00  0.00    +0.090 A 
ATOM     11  N   UNL     1       2.901  -3.637   2.069  0.00  0.00    -0.241 NA
ATOM     12  N   UNL     1       3.850  -1.106   4.337  0.00  0.00    -0.312 N 
ATOM     13  C   UNL     1       3.253  -0.314   3.406  0.00  0.00    +0.112 A 
ENDROOT
BRANCH   1  15
ATOM     14  N   UNL     1       0.711  -0.489   1.189  0.00  0.00    -0.309 N 
ATOM     15  C   UNL     1       2.054  -0.600   1.174  0.00  0.00    +0.250 C 
ATOM     16  O   UNL     1       2.678  -0.296   0.173  0.00  0.00    -0.270 OA
ATOM     17  H   UNL     1       0.213  -0.731   1.986  0.00  0.00    +0.149 HD
BRANCH  14  19
ATOM     18  C   UNL     1      -0.019   1.526   0.010  0.00  0.00    +0.028 C 
ATOM     19  C   UNL     1       0.002  -0.004   0.002  0.00  0.00    +0.070 C 
BRANCH  19  20
ATOM     20  C   UNL     1      -1.433  -0.534   0.013  0.00  0.00    +0.022 C 
BRANCH  20  21
ATOM     21  C   UNL     1      -1.416  -2.058  -0.121  0.00  0.00    +0.002 C 
BRANCH  21  22
ATOM     22  C   UNL     1      -2.851  -2.587  -0.110  0.00  0.00    +0.003 C 
BRANCH  22  23
ATOM     23  C   UNL     1      -2.833  -4.111  -0.244  0.00  0.00    -0.017 C 
ATOM     24  C   UNL     1      -4.258  -4.652  -0.109  0.00  0.00    +0.007 C 
ATOM     25  C   UNL     1      -2.270  -4.496  -1.614  0.00  0.00    +0.007 C 
ENDBRANCH  22  23
ENDBRANCH  21  22
ENDBRANCH  20  21
ENDBRANCH  19  20
ENDBRANCH  14  19
ENDBRANCH   1  15
BRANCH  13  26
ATOM     26  N   UNL     1       3.149   1.050   3.490  0.00  0.00    -0.344 N 
ATOM     27  H   UNL     1       2.704   1.547   2.785  0.00  0.00    +0.144 HD
ATOM     28  H   UNL     1       3.519   1.518   4.255  0.00  0.00    +0.144 HD
ENDBRANCH  13  26
BRANCH  12  29
ATOM     29  C   UNL     1       4.470  -0.617   5.571  0.00  0.00    +0.130 C 
BRANCH  29  30
ATOM     30  C   UNL     1       5.944  -0.300   5.311  0.00  0.00    +0.057 C 
BRANCH  30  31
ATOM     31  C   UNL     1       6.582   0.203   6.580  0.00  0.00    -0.046 A 
ATOM     32  C   UNL     1       6.576   1.555   6.868  0.00  0.00    +0.004 A 
ATOM     33  C   UNL     1       7.161   2.017   8.032  0.00  0.00    +0.000 A 
ATOM     34  C   UNL     1       7.751   1.127   8.909  0.00  0.00    +0.000 A 
ATOM     35  C   UNL     1       7.757  -0.226   8.622  0.00  0.00    +0.000 A 
ATOM     36  C   UNL     1       7.168  -0.688   7.460  0.00  0.00    +0.004 A 
ENDBRANCH  30  31
ENDBRANCH  29  30
ENDBRANCH  12  29
TORSDOF 10
