REMARK  Name = ZINC01954340
REMARK  8 active torsions:
REMARK  status: ('A' for Active; 'I' for Inactive)
REMARK    1  A    between atoms: C_1  and  C_2
REMARK    2  A    between atoms: C_7  and  O_8
REMARK    3  A    between atoms: O_8  and  C_9
REMARK    4  A    between atoms: C_9  and  C_10
REMARK    5  A    between atoms: C_10  and  C_11
REMARK    6  A    between atoms: C_11  and  C_12
REMARK    7  A    between atoms: N_14  and  N_15
REMARK    8  A    between atoms: C_16  and  C_17
REMARK                            x       y       z     vdW  Elec       q    Type
REMARK                         _______ _______ _______ _____ _____    ______ ____
ROOT
ATOM      1  C   UNL     1       2.163   5.739   0.012  0.00  0.00    +0.232 C 
ATOM      2  O   UNL     1       1.036   6.188   0.025  0.00  0.00    -0.274 OA
ATOM      3  N   UNL     1       3.220   6.575   0.007  0.00  0.00    -0.207 N 
ATOM      4  H   UNL     1       4.122   6.216  -0.004  0.00  0.00    +0.177 HD
ENDROOT
BRANCH   3   5
ATOM      5  N   UNL     1       3.018   7.961   0.016  0.00  0.00    -0.188 NA
ATOM      6  C   UNL     1       4.036   8.765   0.011  0.00  0.00    +0.138 C 
BRANCH   6   7
ATOM      7  C   UNL     1       3.823  10.225   0.021  0.00  0.00    -0.005 A 
ATOM      8  C   UNL     1       2.526  10.744   0.030  0.00  0.00    +0.010 A 
ATOM      9  C   UNL     1       2.334  12.110   0.044  0.00  0.00    +0.016 A 
ATOM     10  C   UNL     1       3.423  12.965   0.038  0.00  0.00    +0.018 A 
ATOM     11  C   UNL     1       4.711  12.457   0.024  0.00  0.00    +0.016 A 
ATOM     12  C   UNL     1       4.917  11.093   0.015  0.00  0.00    +0.010 A 
ATOM     13 BR   UNL     1       3.150  14.836   0.049  0.00  0.00    -0.050 Br
ENDBRANCH   6   7
ENDBRANCH   3   5
BRANCH   1  14
ATOM     14  C   UNL     1       2.381   4.248   0.002  0.00  0.00    +0.101 C 
BRANCH  14  15
ATOM     15  C   UNL     1       1.027   3.535   0.011  0.00  0.00    +0.050 C 
BRANCH  15  16
ATOM     16  C   UNL     1       1.248   2.021   0.001  0.00  0.00    +0.229 C 
BRANCH  16  17
ATOM     17  O   UNL     1      -0.016   1.355   0.009  0.00  0.00    -0.492 OA
BRANCH  17  24
ATOM     18  C   UNL     1      -2.505   0.019   0.038  0.00  0.00    +0.047 C 
ATOM     19  C   UNL     1      -1.189  -0.715   0.015  0.00  0.00    -0.007 A 
ATOM     20  C   UNL     1      -1.168  -2.096   0.003  0.00  0.00    +0.027 A 
ATOM     21  C   UNL     1       0.040  -2.771  -0.012  0.00  0.00    +0.041 A 
ATOM     22  C   UNL     1       1.229  -2.063  -0.020  0.00  0.00    +0.023 A 
ATOM     23  C   UNL     1       1.212  -0.682  -0.013  0.00  0.00    +0.047 A 
ATOM     24  C   UNL     1       0.002  -0.004   0.002  0.00  0.00    +0.123 A 
ATOM     25 CL   UNL     1       0.063  -4.506  -0.021  0.00  0.00    -0.084 Cl
ENDBRANCH  17  24
ENDBRANCH  16  17
ENDBRANCH  15  16
ENDBRANCH  14  15
ENDBRANCH   1  14
TORSDOF 7
