REMARK  Name = ZINC36547705
REMARK  8 active torsions:
REMARK  status: ('A' for Active; 'I' for Inactive)
REMARK    1  A    between atoms: C_4  and  O_30
REMARK    2  A    between atoms: C_5  and  C_7
REMARK    3  A    between atoms: C_7  and  C_9
REMARK    4  A    between atoms: C_7  and  N_18
REMARK    5  A    between atoms: N_11  and  C_12
REMARK    6  A    between atoms: N_18  and  C_19
REMARK    7  A    between atoms: C_26  and  C_28
REMARK    8  A    between atoms: C_28  and  O_29
REMARK                            x       y       z     vdW  Elec       q    Type
REMARK                         _______ _______ _______ _____ _____    ______ ____
ROOT
ATOM      1  C   UNL     1       1.269  -2.196  -0.026  0.00  0.00    +0.201 C 
ENDROOT
BRANCH   1   6
ATOM      2  C   UNL     1      -0.483   0.983   1.013  0.00  0.00    +0.001 A 
ATOM      3  C   UNL     1      -0.515   1.686  -0.178  0.00  0.00    +0.004 A 
ATOM      4  C   UNL     1       0.030   1.136  -1.321  0.00  0.00    +0.046 A 
ATOM      5  C   UNL     1       0.610  -0.124  -1.275  0.00  0.00    +0.122 A 
ATOM      6  C   UNL     1       0.641  -0.827  -0.080  0.00  0.00    +0.024 A 
ATOM      7  C   UNL     1       0.094  -0.272   1.061  0.00  0.00    +0.009 A 
BRANCH   5   8
ATOM      8  O   UNL     1       1.146  -0.668  -2.399  0.00  0.00    -0.506 OA
ATOM      9  H   UNL     1       2.059  -0.397  -2.570  0.00  0.00    +0.292 HD
ENDBRANCH   5   8
ENDBRANCH   1   6
BRANCH   1  10
ATOM     10  C   UNL     1       1.588  -2.546   1.404  0.00  0.00    +0.239 C 
ATOM     11  O   UNL     1       0.883  -3.325   2.010  0.00  0.00    -0.273 OA
ATOM     12  N   UNL     1       2.658  -1.994   2.011  0.00  0.00    -0.311 N 
ATOM     13  H   UNL     1       3.180  -1.317   1.552  0.00  0.00    +0.149 HD
BRANCH  12  14
ATOM     14  C   UNL     1       3.033  -2.417   3.363  0.00  0.00    +0.073 C 
ATOM     15  C   UNL     1       2.224  -1.621   4.388  0.00  0.00    +0.022 C 
ATOM     16  C   UNL     1       2.615  -2.062   5.800  0.00  0.00    +0.002 C 
ATOM     17  C   UNL     1       4.108  -1.808   6.019  0.00  0.00    +0.000 C 
ATOM     18  C   UNL     1       4.916  -2.604   4.993  0.00  0.00    +0.002 C 
ATOM     19  C   UNL     1       4.525  -2.163   3.581  0.00  0.00    +0.022 C 
ENDBRANCH  12  14
ENDBRANCH   1  10
BRANCH   1  20
ATOM     20  N   UNL     1       0.336  -3.183  -0.575  0.00  0.00    -0.252 N 
ATOM     21  C   UNL     1       0.724  -4.465  -0.725  0.00  0.00    +0.246 C 
ATOM     22  O   UNL     1      -0.017  -5.264  -1.258  0.00  0.00    -0.273 OA
BRANCH  20  23
ATOM     23  C   UNL     1      -0.957  -2.795  -0.943  0.00  0.00    +0.056 A 
ATOM     24  C   UNL     1      -1.212  -2.360  -2.236  0.00  0.00    +0.025 A 
ATOM     25  C   UNL     1      -2.489  -1.978  -2.596  0.00  0.00    +0.002 A 
ATOM     26  C   UNL     1      -3.515  -2.028  -1.670  0.00  0.00    +0.002 A 
ATOM     27  C   UNL     1      -3.266  -2.460  -0.381  0.00  0.00    +0.022 A 
ATOM     28  C   UNL     1      -1.991  -2.850  -0.015  0.00  0.00    +0.062 A 
ATOM     29 CL   UNL     1      -1.680  -3.401   1.601  0.00  0.00    -0.082 Cl
ENDBRANCH  20  23
BRANCH  21  30
ATOM     30  C   UNL     1       2.078  -4.906  -0.231  0.00  0.00    +0.252 C 
BRANCH  30  31
ATOM     31  O   UNL     1       2.305  -6.264  -0.614  0.00  0.00    -0.386 OA
ATOM     32  H   UNL     1       3.160  -6.615  -0.329  0.00  0.00    +0.210 HD
ENDBRANCH  30  31
ENDBRANCH  21  30
ENDBRANCH   1  20
TORSDOF 8
