REMARK  Name = ZINC40827049
REMARK  8 active torsions:
REMARK  status: ('A' for Active; 'I' for Inactive)
REMARK    1  A    between atoms: C_1  and  C_2
REMARK    2  A    between atoms: C_4  and  C_30
REMARK    3  A    between atoms: C_10  and  C_11
REMARK    4  A    between atoms: C_11  and  C_12
REMARK    5  A    between atoms: N_14  and  N_15
REMARK    6  A    between atoms: C_22  and  C_29
REMARK    7  A    between atoms: C_23  and  C_25
REMARK    8  A    between atoms: N_27  and  N_28
REMARK                            x       y       z     vdW  Elec       q    Type
REMARK                         _______ _______ _______ _____ _____    ______ ____
ROOT
ATOM      1  N   UNL     1       2.301  -7.020  -2.488  0.00  0.00    -0.184 NA
ATOM      2  C   UNL     1       2.459  -8.000  -3.324  0.00  0.00    +0.070 C 
ATOM      3  C   UNL     1       1.305  -8.883  -3.773  0.00  0.00    +0.058 C 
ATOM      4  C   UNL     1       1.791 -10.336  -3.789  0.00  0.00    +0.014 C 
ATOM      5  C   UNL     1       2.893 -10.526  -4.835  0.00  0.00    +0.075 C 
ATOM      6  C   UNL     1       3.979  -9.505  -4.609  0.00  0.00    +0.115 A 
ATOM      7  C   UNL     1       3.774  -8.335  -3.913  0.00  0.00    +0.042 A 
ATOM      8  C   UNL     1       4.986  -7.633  -3.903  0.00  0.00    +0.009 A 
ATOM      9  C   UNL     1       5.878  -8.399  -4.601  0.00  0.00    +0.194 A 
ATOM     10  O   UNL     1       5.247  -9.527  -5.011  0.00  0.00    -0.454 OA
ATOM     11  C   UNL     1       5.253  -6.299  -3.254  0.00  0.00    +0.048 C 
ENDROOT
BRANCH   1  14
ATOM     12  C   UNL     1       0.868  -5.730  -1.092  0.00  0.00    +0.237 C 
ATOM     13  O   UNL     1       1.819  -5.050  -0.767  0.00  0.00    -0.274 OA
ATOM     14  N   UNL     1       1.032  -6.747  -1.960  0.00  0.00    -0.206 N 
ATOM     15  H   UNL     1       0.272  -7.291  -2.220  0.00  0.00    +0.177 HD
BRANCH  12  16
ATOM     16  C   UNL     1      -0.497  -5.436  -0.524  0.00  0.00    +0.136 C 
BRANCH  16  26
ATOM     17  C   UNL     1       0.817  -3.343   5.906  0.00  0.00    +0.044 C 
ATOM     18  C   UNL     1       0.506  -3.670   4.468  0.00  0.00    -0.047 A 
ATOM     19  C   UNL     1       0.557  -4.988   4.037  0.00  0.00    +0.007 A 
ATOM     20  C   UNL     1       0.279  -5.303   2.736  0.00  0.00    -0.039 A 
ATOM     21  C   UNL     1      -0.059  -4.292   1.838  0.00  0.00    +0.027 A 
ATOM     22  C   UNL     1      -0.113  -2.955   2.268  0.00  0.00    +0.136 A 
ATOM     23  C   UNL     1       0.168  -2.658   3.595  0.00  0.00    +0.050 A 
ATOM     24  O   UNL     1      -0.461  -2.206   1.202  0.00  0.00    -0.463 OA
ATOM     25  C   UNL     1      -0.635  -2.973   0.112  0.00  0.00    +0.200 A 
ATOM     26  C   UNL     1      -0.409  -4.260   0.413  0.00  0.00    +0.007 A 
ATOM     27  C   UNL     1       0.337  -6.736   2.275  0.00  0.00    +0.044 C 
ENDBRANCH  16  26
ENDBRANCH  12  16
ENDBRANCH   1  14
BRANCH   9  28
ATOM     28  C   UNL     1       7.283  -8.063  -4.852  0.00  0.00    +0.293 C 
ATOM     29  O   UNL     1       7.746  -7.022  -4.424  0.00  0.00    -0.266 OA
ATOM     30  N   UNL     1       8.062  -8.907  -5.557  0.00  0.00    -0.247 N 
ATOM     31  H   UNL     1       7.694  -9.736  -5.899  0.00  0.00    +0.169 HD
BRANCH  30  32
ATOM     32  N   UNL     1       9.371  -8.594  -5.791  0.00  0.00    -0.254 NA
ATOM     33  H   UNL     1       9.863  -8.424  -4.926  0.00  0.00    +0.140 HD
ATOM     34  H   UNL     1       9.825  -9.317  -6.329  0.00  0.00    +0.140 HD
ENDBRANCH  30  32
ENDBRANCH   9  28
TORSDOF 5
