REMARK  Name = ZINC22187545
REMARK  12 active torsions:
REMARK  status: ('A' for Active; 'I' for Inactive)
REMARK    1  A    between atoms: C_1  and  C_2
REMARK    2  A    between atoms: C_2  and  O_3
REMARK    3  A    between atoms: O_3  and  C_4
REMARK    4  A    between atoms: C_4  and  C_6
REMARK    5  A    between atoms: C_7  and  C_34
REMARK    6  A    between atoms: C_13  and  C_17
REMARK    7  A    between atoms: C_17  and  C_19
REMARK    8  A    between atoms: C_17  and  S_20
REMARK    9  A    between atoms: S_20  and  C_21
REMARK   10  A    between atoms: N_25  and  C_26
REMARK   11  A    between atoms: C_29  and  C_33
REMARK   12  A    between atoms: C_30  and  C_32
REMARK                            x       y       z     vdW  Elec       q    Type
REMARK                         _______ _______ _______ _____ _____    ______ ____
ROOT
ATOM      1  C   UNL     1       1.496  -2.371   2.467  0.00  0.00    +0.102 A 
ATOM      2  C   UNL     1       1.712  -3.681   2.784  0.00  0.00    -0.015 A 
ATOM      3  C   UNL     1       2.405  -4.009   3.951  0.00  0.00    +0.076 A 
ATOM      4  C   UNL     1       2.751  -5.344   4.490  0.00  0.00    +0.260 A 
ATOM      5  O   UNL     1       2.428  -6.359   3.900  0.00  0.00    -0.267 OA
ATOM      6  N   UNL     1       3.433  -5.406   5.650  0.00  0.00    -0.309 N 
ATOM      7  H   UNL     1       3.668  -6.273   6.017  0.00  0.00    +0.170 HD
ATOM      8  C   UNL     1       3.799  -4.282   6.315  0.00  0.00    +0.124 A 
ATOM      9  N   UNL     1       3.510  -3.091   5.868  0.00  0.00    -0.225 NA
ATOM     10  C   UNL     1       2.841  -2.916   4.735  0.00  0.00    +0.116 A 
ATOM     11  S   UNL     1       2.279  -1.505   3.817  0.00  0.00    -0.062 S 
ATOM     12  C   UNL     1       1.203  -4.771   1.877  0.00  0.00    +0.046 C 
ENDROOT
BRANCH   1  13
ATOM     13  C   UNL     1       0.801  -1.814   1.305  0.00  0.00    +0.346 C 
ATOM     14  O   UNL     1       0.321  -2.557   0.470  0.00  0.00    -0.244 OA
BRANCH  13  15
ATOM     15  O   UNL     1       0.693  -0.477   1.160  0.00  0.00    -0.461 OA
BRANCH  15  17
ATOM     16  C   UNL     1      -0.019   1.526   0.010  0.00  0.00    +0.048 C 
ATOM     17  C   UNL     1       0.002  -0.004   0.002  0.00  0.00    +0.229 C 
ENDBRANCH  15  17
ENDBRANCH  13  15
ENDBRANCH   1  13
BRANCH   8  18
ATOM     18  C   UNL     1       4.561  -4.413   7.609  0.00  0.00    +0.117 C 
ATOM     19  C   UNL     1       3.584  -4.359   8.784  0.00  0.00    +0.027 C 
BRANCH  18  20
ATOM     20  S   UNL     1       5.447  -5.996   7.631  0.00  0.00    -0.076 S 
BRANCH  20  21
ATOM     21  C   UNL     1       6.393  -5.934   9.116  0.00  0.00    +0.174 A 
ATOM     22  N   UNL     1       6.408  -4.943   9.977  0.00  0.00    -0.230 NA
ATOM     23  C   UNL     1       7.242  -5.243  10.988  0.00  0.00    +0.131 A 
ATOM     24  C   UNL     1       7.767  -6.458  10.757  0.00  0.00    +0.113 A 
ATOM     25  N   UNL     1       7.230  -6.910   9.571  0.00  0.00    -0.295 N 
BRANCH  25  26
ATOM     26  C   UNL     1       7.496  -8.138   8.949  0.00  0.00    +0.049 A 
ATOM     27  C   UNL     1       6.449  -8.942   8.521  0.00  0.00    +0.026 A 
ATOM     28  C   UNL     1       6.714 -10.151   7.908  0.00  0.00    +0.005 A 
ATOM     29  C   UNL     1       8.021 -10.561   7.721  0.00  0.00    -0.047 A 
ATOM     30  C   UNL     1       9.066  -9.763   8.146  0.00  0.00    -0.046 A 
ATOM     31  C   UNL     1       8.808  -8.550   8.754  0.00  0.00    +0.029 A 
ATOM     32  C   UNL     1      10.490 -10.213   7.941  0.00  0.00    +0.044 C 
ATOM     33  C   UNL     1       8.307 -11.882   7.053  0.00  0.00    +0.044 C 
ENDBRANCH  25  26
ENDBRANCH  20  21
ENDBRANCH  18  20
ENDBRANCH   8  18
TORSDOF 7
