REMARK  Name = ZINC62162721
REMARK  7 active torsions:
REMARK  status: ('A' for Active; 'I' for Inactive)
REMARK    1  A    between atoms: C_1  and  C_2
REMARK    2  A    between atoms: C_6  and  N_8
REMARK    3  A    between atoms: C_11  and  C_14
REMARK    4  A    between atoms: N_16  and  C_17
REMARK    5  A    between atoms: C_17  and  C_18
REMARK    6  A    between atoms: C_21  and  S_24
REMARK    7  A    between atoms: S_24  and  N_27
REMARK                            x       y       z     vdW  Elec       q    Type
REMARK                         _______ _______ _______ _____ _____    ______ ____
ROOT
ATOM      1  C   UNL     1      -0.315  -7.000   4.569  0.00  0.00    +0.263 C 
ATOM      2  O   UNL     1      -0.381  -8.208   4.436  0.00  0.00    -0.269 OA
ATOM      3  N   UNL     1      -0.339  -6.456   5.801  0.00  0.00    -0.306 N 
ATOM      4  H   UNL     1      -0.286  -5.493   5.907  0.00  0.00    +0.149 HD
ENDROOT
BRANCH   1   8
ATOM      5  N   UNL     1       0.049  -2.637   2.415  0.00  0.00    -0.279 N 
ATOM      6  C   UNL     1      -0.036  -4.020   2.467  0.00  0.00    +0.164 A 
ATOM      7  N   UNL     1      -0.133  -4.809   3.518  0.00  0.00    -0.220 NA
ATOM      8  C   UNL     1      -0.207  -6.134   3.383  0.00  0.00    +0.135 A 
ATOM      9  C   UNL     1      -0.181  -6.678   2.123  0.00  0.00    +0.081 A 
ATOM     10  S   UNL     1      -0.052  -5.200   1.125  0.00  0.00    -0.060 S 
ATOM     11  H   UNL     1       0.119  -2.125   3.236  0.00  0.00    +0.155 HD
BRANCH   5  17
ATOM     12  C   UNL     1       0.043  -2.965  -2.362  0.00  0.00    +0.065 C 
ATOM     13  C   UNL     1       0.032  -2.114  -1.118  0.00  0.00    +0.040 A 
ATOM     14  C   UNL     1       0.007  -0.738  -1.234  0.00  0.00    +0.023 A 
ATOM     15  C   UNL     1      -0.003   0.041  -0.085  0.00  0.00    +0.005 A 
ATOM     16  C   UNL     1       0.011  -0.595   1.144  0.00  0.00    +0.044 A 
ATOM     17  C   UNL     1       0.035  -1.985   1.186  0.00  0.00    +0.125 A 
ATOM     18  N   UNL     1       0.039  -2.693   0.067  0.00  0.00    -0.237 NA
ENDBRANCH   5  17
ENDBRANCH   1   8
BRANCH   3  19
ATOM     19  C   UNL     1      -0.446  -7.318   6.981  0.00  0.00    +0.140 C 
BRANCH  19  20
ATOM     20  C   UNL     1      -0.453  -6.468   8.225  0.00  0.00    -0.030 A 
ATOM     21  C   UNL     1       0.739  -6.146   8.848  0.00  0.00    +0.007 A 
ATOM     22  C   UNL     1       0.733  -5.366   9.990  0.00  0.00    +0.029 A 
ATOM     23  C   UNL     1      -0.465  -4.908  10.508  0.00  0.00    +0.105 A 
ATOM     24  C   UNL     1      -1.656  -5.230   9.884  0.00  0.00    +0.029 A 
ATOM     25  C   UNL     1      -1.649  -6.006   8.741  0.00  0.00    +0.007 A 
BRANCH  23  26
ATOM     26  S   UNL     1      -0.472  -3.916  11.964  0.00  0.00    +0.056 S 
ATOM     27  O   UNL     1      -1.756  -4.070  12.554  0.00  0.00    -0.153 OA
ATOM     28  O   UNL     1       0.728  -4.212  12.664  0.00  0.00    -0.153 OA
BRANCH  26  29
ATOM     29  N   UNL     1      -0.361  -2.336  11.479  0.00  0.00    -0.204 NA
ATOM     30  H   UNL     1      -0.307  -2.121  10.535  0.00  0.00    +0.144 HD
ATOM     31  H   UNL     1      -0.350  -1.626  12.140  0.00  0.00    +0.144 HD
ENDBRANCH  26  29
ENDBRANCH  23  26
ENDBRANCH  19  20
ENDBRANCH   3  19
TORSDOF 6
