REMARK  Name = ZINC36506684
REMARK  14 active torsions:
REMARK  status: ('A' for Active; 'I' for Inactive)
REMARK    1  A    between atoms: C_1  and  C_2
REMARK    2  A    between atoms: C_2  and  C_3
REMARK    3  A    between atoms: C_2  and  C_4
REMARK    4  A    between atoms: C_2  and  N_5
REMARK    5  A    between atoms: C_6  and  C_8
REMARK    6  A    between atoms: C_8  and  C_10
REMARK    7  A    between atoms: C_8  and  N_19
REMARK    8  A    between atoms: C_11  and  O_18
REMARK    9  A    between atoms: C_13  and  O_17
REMARK   10  A    between atoms: C_15  and  O_16
REMARK   11  A    between atoms: N_19  and  C_20
REMARK   12  A    between atoms: C_20  and  C_21
REMARK   13  A    between atoms: C_26  and  C_28
REMARK   14  A    between atoms: C_28  and  C_29
REMARK                            x       y       z     vdW  Elec       q    Type
REMARK                         _______ _______ _______ _____ _____    ______ ____
ROOT
ATOM      1  C   UNL     1       2.770  -0.288  -2.926  0.00  0.00    +0.200 C 
ENDROOT
BRANCH   1   2
ATOM      2  C   UNL     1       2.681  -1.669  -3.524  0.00  0.00    +0.065 A 
ATOM      3  C   UNL     1       3.436  -2.704  -2.993  0.00  0.00    +0.129 A 
ATOM      4  C   UNL     1       3.354  -3.974  -3.543  0.00  0.00    +0.091 A 
ATOM      5  C   UNL     1       2.518  -4.209  -4.624  0.00  0.00    +0.124 A 
ATOM      6  C   UNL     1       1.762  -3.174  -5.154  0.00  0.00    +0.091 A 
ATOM      7  C   UNL     1       1.841  -1.905  -4.601  0.00  0.00    +0.129 A 
BRANCH   7   8
ATOM      8  O   UNL     1       1.097  -0.892  -5.118  0.00  0.00    -0.506 OA
ATOM      9  H   UNL     1       1.538  -0.400  -5.824  0.00  0.00    +0.292 HD
ENDBRANCH   7   8
BRANCH   5  10
ATOM     10  O   UNL     1       2.438  -5.454  -5.164  0.00  0.00    -0.507 OA
ATOM     11  H   UNL     1       1.756  -6.012  -4.766  0.00  0.00    +0.292 HD
ENDBRANCH   5  10
BRANCH   3  12
ATOM     12  O   UNL     1       4.256  -2.473  -1.935  0.00  0.00    -0.506 OA
ATOM     13  H   UNL     1       3.824  -2.567  -1.075  0.00  0.00    +0.292 HD
ENDBRANCH   3  12
ENDBRANCH   1   2
BRANCH   1  15
ATOM     14  N   UNL     1       0.811  -0.267  -1.416  0.00  0.00    -0.309 N 
ATOM     15  C   UNL     1       2.152  -0.295  -1.552  0.00  0.00    +0.239 C 
ATOM     16  O   UNL     1       2.861  -0.326  -0.568  0.00  0.00    -0.273 OA
ATOM     17  H   UNL     1       0.244  -0.242  -2.203  0.00  0.00    +0.149 HD
BRANCH  14  19
ATOM     18  C   UNL     1       0.687   0.953   0.700  0.00  0.00    +0.031 C 
ATOM     19  C   UNL     1       0.210  -0.274  -0.080  0.00  0.00    +0.026 C 
ATOM     20  C   UNL     1       0.631  -1.544   0.662  0.00  0.00    +0.031 C 
ATOM     21  C   UNL     1      -1.314  -0.238  -0.206  0.00  0.00    +0.031 C 
ENDBRANCH  14  19
ENDBRANCH   1  15
BRANCH   1  22
ATOM     22  N   UNL     1       4.176   0.112  -2.828  0.00  0.00    -0.278 N 
ATOM     23  C   UNL     1       5.031  -0.179  -3.828  0.00  0.00    +0.221 C 
ATOM     24  O   UNL     1       4.637  -0.772  -4.809  0.00  0.00    -0.275 OA
BRANCH  22  25
ATOM     25  C   UNL     1       4.652   0.828  -1.642  0.00  0.00    +0.183 C 
BRANCH  25  26
ATOM     26  C   UNL     1       5.427  -0.118  -0.761  0.00  0.00    +0.122 A 
ATOM     27  C   UNL     1       6.755  -0.323  -0.804  0.00  0.00    +0.046 A 
ATOM     28  C   UNL     1       7.054  -1.284   0.189  0.00  0.00    +0.041 A 
ATOM     29  C   UNL     1       5.890  -1.608   0.780  0.00  0.00    +0.195 A 
ATOM     30  O   UNL     1       4.909  -0.894   0.205  0.00  0.00    -0.466 OA
ENDBRANCH  25  26
ENDBRANCH  22  25
BRANCH  23  31
ATOM     31  C   UNL     1       6.477   0.232  -3.726  0.00  0.00    +0.131 C 
BRANCH  31  32
ATOM     32  C   UNL     1       7.213  -0.209  -4.965  0.00  0.00    -0.039 A 
ATOM     33  C   UNL     1       7.806  -1.457  -5.009  0.00  0.00    +0.004 A 
ATOM     34  C   UNL     1       8.481  -1.862  -6.145  0.00  0.00    +0.000 A 
ATOM     35  C   UNL     1       8.564  -1.019  -7.237  0.00  0.00    +0.000 A 
ATOM     36  C   UNL     1       7.970   0.229  -7.193  0.00  0.00    +0.000 A 
ATOM     37  C   UNL     1       7.291   0.632  -6.059  0.00  0.00    +0.004 A 
ENDBRANCH  31  32
ENDBRANCH  23  31
ENDBRANCH   1  22
TORSDOF 11
