REMARK  Name = ZINC39388029
REMARK  6 active torsions:
REMARK  status: ('A' for Active; 'I' for Inactive)
REMARK    1  A    between atoms: C_4  and  C_7
REMARK    2  A    between atoms: C_7  and  C_9
REMARK    3  A    between atoms: C_7  and  O_30
REMARK    4  A    between atoms: N_11  and  C_14
REMARK    5  A    between atoms: N_17  and  C_20
REMARK    6  A    between atoms: C_20  and  C_21
REMARK                            x       y       z     vdW  Elec       q    Type
REMARK                         _______ _______ _______ _____ _____    ______ ____
ROOT
ATOM      1  C   UNL     1       6.082  -0.896  -4.473  0.00  0.00    +0.088 C 
ATOM      2  C   UNL     1       5.371  -0.308  -5.695  0.00  0.00    +0.005 C 
ATOM      3  C   UNL     1       6.385  -0.121  -6.826  0.00  0.00    -0.077 C 
ATOM      4  N   UNL     1       6.974  -1.419  -7.179  0.00  0.00    +0.383 N 
ATOM      5  C   UNL     1       7.718  -1.956  -6.033  0.00  0.00    -0.077 C 
ATOM      6  C   UNL     1       6.755  -2.213  -4.871  0.00  0.00    +0.005 C 
ATOM      7  H   UNL     1       6.240  -2.062  -7.434  0.00  0.00    -0.081 HD
ENDROOT
BRANCH   1  10
ATOM      8  C   UNL     1       4.074  -1.053  -1.459  0.00  0.00    +0.068 C 
ATOM      9  C   UNL     1       5.117  -0.588  -2.127  0.00  0.00    +0.112 C 
ATOM     10  N   UNL     1       5.103  -1.148  -3.412  0.00  0.00    -0.254 N 
ATOM     11  N   UNL     1       4.015  -1.971  -3.499  0.00  0.00    -0.161 NA
ATOM     12  N   UNL     1       3.369  -1.929  -2.296  0.00  0.00    -0.264 N 
ATOM     13  H   UNL     1       4.293  -2.914  -3.724  0.00  0.00    +0.168 HD
ATOM     14  H   UNL     1       2.563  -2.416  -2.063  0.00  0.00    +0.168 HD
BRANCH   8  15
ATOM     15  C   UNL     1       3.711  -0.707  -0.038  0.00  0.00    +0.191 C 
BRANCH  15  19
ATOM     16  C   UNL     1      -0.017   1.378   0.010  0.00  0.00    +0.000 A 
ATOM     17  C   UNL     1       1.171   2.086   0.002  0.00  0.00    +0.000 A 
ATOM     18  C   UNL     1       2.377   1.411  -0.013  0.00  0.00    +0.006 A 
ATOM     19  C   UNL     1       2.396   0.029  -0.020  0.00  0.00    -0.013 A 
ATOM     20  C   UNL     1       1.208  -0.679  -0.012  0.00  0.00    +0.006 A 
ATOM     21  C   UNL     1       0.002  -0.004   0.002  0.00  0.00    +0.000 A 
ENDBRANCH  15  19
BRANCH  15  22
ATOM     22  O   UNL     1       3.596  -1.907   0.731  0.00  0.00    -0.381 OA
ATOM     23  H   UNL     1       2.922  -2.519   0.405  0.00  0.00    +0.211 HD
ENDBRANCH  15  22
ENDBRANCH   8  15
ENDBRANCH   1  10
BRANCH   4  24
ATOM     24  C   UNL     1       7.888  -1.247  -8.316  0.00  0.00    -0.041 C 
BRANCH  24  25
ATOM     25  C   UNL     1       8.399  -2.594  -8.758  0.00  0.00    -0.039 A 
ATOM     26  C   UNL     1       7.691  -3.562  -9.598  0.00  0.00    +0.001 A 
ATOM     27  C   UNL     1       6.439  -3.578 -10.216  0.00  0.00    +0.010 A 
ATOM     28  C   UNL     1       6.062  -4.663 -10.957  0.00  0.00    +0.001 A 
ATOM     29  C   UNL     1       6.913  -5.750 -11.099  0.00  0.00    +0.002 A 
ATOM     30  C   UNL     1       8.152  -5.756 -10.497  0.00  0.00    +0.026 A 
ATOM     31  C   UNL     1       8.557  -4.662  -9.740  0.00  0.00    +0.047 A 
ATOM     32  N   UNL     1       9.702  -4.370  -9.033  0.00  0.00    -0.360 N 
ATOM     33  C   UNL     1       9.592  -3.132  -8.459  0.00  0.00    +0.085 A 
ATOM     34  H   UNL     1      10.473  -4.953  -8.956  0.00  0.00    +0.165 HD
ENDBRANCH  24  25
ENDBRANCH   4  24
TORSDOF 6
