REMARK  Name = ZINC09329079
REMARK  9 active torsions:
REMARK  status: ('A' for Active; 'I' for Inactive)
REMARK    1  A    between atoms: C_1  and  C_2
REMARK    2  A    between atoms: C_3  and  C_25
REMARK    3  A    between atoms: C_8  and  C_10
REMARK    4  A    between atoms: C_10  and  S_11
REMARK    5  A    between atoms: S_11  and  C_12
REMARK    6  A    between atoms: C_15  and  C_20
REMARK    7  A    between atoms: N_16  and  C_17
REMARK    8  A    between atoms: C_17  and  C_18
REMARK    9  A    between atoms: C_17  and  C_19
REMARK                            x       y       z     vdW  Elec       q    Type
REMARK                         _______ _______ _______ _____ _____    ______ ____
ROOT
ATOM      1  C   UNL     1       4.222   4.542  -0.014  0.00  0.00    +0.054 C 
ATOM      2  C   UNL     1       3.234   3.404  -0.011  0.00  0.00    +0.016 A 
ATOM      3  C   UNL     1       3.456   2.055  -0.020  0.00  0.00    +0.083 A 
ATOM      4  N   UNL     1       2.423   1.226  -0.015  0.00  0.00    -0.224 NA
ATOM      5  C   UNL     1       1.183   1.677  -0.000  0.00  0.00    +0.165 A 
ATOM      6  S   UNL     1       1.446   3.445  -0.001  0.00  0.00    -0.057 S 
ATOM      7  N   UNL     1      -0.011   0.966   0.007  0.00  0.00    -0.264 N 
ATOM      8  C   UNL     1      -1.187   1.624   0.017  0.00  0.00    +0.229 C 
ATOM      9  O   UNL     1      -1.204   2.837   0.023  0.00  0.00    -0.275 OA
ATOM     10  H   UNL     1       0.002  -0.004   0.002  0.00  0.00    +0.157 HD
ENDROOT
BRANCH   3  11
ATOM     11  C   UNL     1       4.841   1.525  -0.036  0.00  0.00    +0.001 A 
ATOM     12  C   UNL     1       5.840   2.198  -0.739  0.00  0.00    +0.010 A 
ATOM     13  C   UNL     1       7.128   1.703  -0.746  0.00  0.00    +0.001 A 
ATOM     14  C   UNL     1       7.427   0.536  -0.067  0.00  0.00    +0.000 A 
ATOM     15  C   UNL     1       6.439  -0.139   0.627  0.00  0.00    +0.001 A 
ATOM     16  C   UNL     1       5.149   0.349   0.646  0.00  0.00    +0.010 A 
ENDBRANCH   3  11
BRANCH   8  17
ATOM     17  C   UNL     1      -2.482   0.853   0.018  0.00  0.00    +0.173 C 
BRANCH  17  18
ATOM     18  S   UNL     1      -3.874   2.010   0.031  0.00  0.00    -0.077 S 
BRANCH  18  19
ATOM     19  C   UNL     1      -5.218   0.872   0.032  0.00  0.00    +0.193 A 
ATOM     20  N   UNL     1      -5.129  -0.439   0.018  0.00  0.00    -0.122 NA
ATOM     21  N   UNL     1      -6.303  -0.963   0.027  0.00  0.00    -0.125 NA
ATOM     22  C   UNL     1      -7.216  -0.017   0.036  0.00  0.00    +0.201 A 
ATOM     23  N   UNL     1      -6.548   1.188   0.040  0.00  0.00    -0.297 N 
BRANCH  22  24
ATOM     24  C   UNL     1      -8.675  -0.208   0.042  0.00  0.00    +0.172 A 
ATOM     25  C   UNL     1      -9.331  -1.366  -0.252  0.00  0.00    +0.053 A 
ATOM     26  C   UNL     1     -10.707  -1.097  -0.120  0.00  0.00    +0.042 A 
ATOM     27  C   UNL     1     -10.824   0.198   0.236  0.00  0.00    +0.196 A 
ATOM     28  O   UNL     1      -9.596   0.732   0.333  0.00  0.00    -0.460 OA
ENDBRANCH  22  24
BRANCH  23  29
ATOM     29  C   UNL     1      -7.139   2.528   0.050  0.00  0.00    +0.085 C 
ATOM     30  C   UNL     1      -6.679   3.280   1.300  0.00  0.00    +0.030 C 
ATOM     31  C   UNL     1      -6.691   3.293  -1.198  0.00  0.00    +0.030 C 
ENDBRANCH  23  29
ENDBRANCH  18  19
ENDBRANCH  17  18
ENDBRANCH   8  17
TORSDOF 6
