REMARK  Name = ZINC20757510
REMARK  6 active torsions:
REMARK  status: ('A' for Active; 'I' for Inactive)
REMARK    1  A    between atoms: C_1  and  C_2
REMARK    2  A    between atoms: C_2  and  C_4
REMARK    3  A    between atoms: C_2  and  N_10
REMARK    4  A    between atoms: C_13  and  C_20
REMARK    5  A    between atoms: C_26  and  O_32
REMARK    6  A    between atoms: O_32  and  C_33
REMARK                            x       y       z     vdW  Elec       q    Type
REMARK                         _______ _______ _______ _____ _____    ______ ____
ROOT
ATOM      1  N   UNL     1       0.746  -0.600  -1.111  0.00  0.00    -0.253 N 
ATOM      2  C   UNL     1       1.726  -1.490  -0.859  0.00  0.00    +0.263 A 
ATOM      3  O   UNL     1       1.995  -1.799   0.289  0.00  0.00    -0.267 OA
ATOM      4  C   UNL     1       2.437  -2.060  -1.931  0.00  0.00    +0.073 A 
ATOM      5  C   UNL     1       2.116  -1.698  -3.205  0.00  0.00    +0.260 A 
ATOM      6  N   UNL     1       1.111  -0.789  -3.416  0.00  0.00    -0.275 N 
ATOM      7  H   UNL     1       0.879  -0.528  -4.322  0.00  0.00    +0.173 HD
ATOM      8  C   UNL     1       0.441  -0.260  -2.376  0.00  0.00    +0.333 A 
ATOM      9  O   UNL     1      -0.451   0.541  -2.583  0.00  0.00    -0.246 OA
ATOM     10  O   UNL     1       2.783  -2.230  -4.252  0.00  0.00    -0.267 OA
ENDROOT
BRANCH   4  11
ATOM     11  C   UNL     1       3.537  -3.057  -1.673  0.00  0.00    +0.018 C 
ATOM     12  C   UNL     1       2.958  -4.301  -1.044  0.00  0.00    +0.011 A 
ATOM     13  C   UNL     1       3.549  -4.947  -0.012  0.00  0.00    -0.022 A 
ATOM     14  C   UNL     1       2.713  -6.078   0.320  0.00  0.00    +0.006 A 
ATOM     15  C   UNL     1       2.816  -7.085   1.286  0.00  0.00    +0.056 A 
ATOM     16  C   UNL     1       1.801  -8.030   1.315  0.00  0.00    +0.121 A 
ATOM     17  C   UNL     1       0.732  -7.984   0.428  0.00  0.00    +0.047 A 
ATOM     18  C   UNL     1       0.613  -6.996  -0.533  0.00  0.00    +0.030 A 
ATOM     19  C   UNL     1       1.619  -6.034  -0.583  0.00  0.00    +0.047 A 
ATOM     20  N   UNL     1       1.803  -4.947  -1.393  0.00  0.00    -0.359 N 
ATOM     21  H   UNL     1       1.205  -4.675  -2.107  0.00  0.00    +0.166 HD
ATOM     22  C   UNL     1       4.846  -4.495   0.610  0.00  0.00    +0.018 C 
ATOM     23  C   UNL     1       5.504  -3.494  -0.349  0.00  0.00    -0.076 C 
ATOM     24  N   UNL     1       4.524  -2.475  -0.750  0.00  0.00    +0.388 N 
ATOM     25  H   UNL     1       4.999  -1.711  -1.206  0.00  0.00    -0.084 HD
ATOM     26  H   UNL     1       4.050  -2.129   0.071  0.00  0.00    -0.084 HD
BRANCH  16  27
ATOM     27  O   UNL     1       1.854  -9.029   2.235  0.00  0.00    -0.495 OA
ATOM     28  C   UNL     1       0.786  -9.979   2.225  0.00  0.00    +0.277 C 
ENDBRANCH  16  27
ENDBRANCH   4  11
BRANCH   1  30
ATOM     29  C   UNL     1      -0.744  -1.102   0.763  0.00  0.00    +0.036 C 
ATOM     30  C   UNL     1       0.002  -0.004   0.002  0.00  0.00    +0.122 C 
BRANCH  30  31
ATOM     31  C   UNL     1       0.963   0.689   0.934  0.00  0.00    -0.025 A 
ATOM     32  C   UNL     1       2.061   1.355   0.423  0.00  0.00    +0.005 A 
ATOM     33  C   UNL     1       2.942   1.992   1.278  0.00  0.00    +0.000 A 
ATOM     34  C   UNL     1       2.724   1.962   2.643  0.00  0.00    +0.000 A 
ATOM     35  C   UNL     1       1.625   1.296   3.153  0.00  0.00    +0.000 A 
ATOM     36  C   UNL     1       0.742   0.664   2.298  0.00  0.00    +0.005 A 
ENDBRANCH  30  31
ENDBRANCH   1  30
TORSDOF 4
