REMARK  Name = ZINC08750138
REMARK  7 active torsions:
REMARK  status: ('A' for Active; 'I' for Inactive)
REMARK    1  A    between atoms: C_4  and  C_7
REMARK    2  A    between atoms: C_7  and  N_8
REMARK    3  A    between atoms: C_9  and  C_28
REMARK    4  A    between atoms: C_12  and  S_13
REMARK    5  A    between atoms: S_13  and  C_14
REMARK    6  A    between atoms: C_14  and  C_15
REMARK    7  A    between atoms: C_28  and  N_62
REMARK                            x       y       z     vdW  Elec       q    Type
REMARK                         _______ _______ _______ _____ _____    ______ ____
ROOT
ATOM      1  N   UNL     1       2.047   0.663  -0.014  0.00  0.00    -0.303 N 
ATOM      2  C   UNL     1       1.232  -0.435  -0.012  0.00  0.00    +0.118 A 
ATOM      3  N   UNL     1       0.002  -0.004   0.002  0.00  0.00    -0.135 NA
ATOM      4  N   UNL     1      -0.015   1.281   0.009  0.00  0.00    -0.123 NA
ATOM      5  C   UNL     1       1.213   1.744  -0.000  0.00  0.00    +0.192 A 
ENDROOT
BRANCH   1   6
ATOM      6  C   UNL     1       3.512   0.676  -0.028  0.00  0.00    +0.160 C 
BRANCH   6  10
ATOM      7  C   UNL     1       4.897   0.712  -4.069  0.00  0.00    +0.000 A 
ATOM      8  C   UNL     1       4.662   1.903  -3.409  0.00  0.00    +0.000 A 
ATOM      9  C   UNL     1       4.214   1.892  -2.101  0.00  0.00    +0.005 A 
ATOM     10  C   UNL     1       4.001   0.689  -1.454  0.00  0.00    -0.028 A 
ATOM     11  C   UNL     1       4.241  -0.502  -2.113  0.00  0.00    +0.005 A 
ATOM     12  C   UNL     1       4.684  -0.491  -3.422  0.00  0.00    +0.000 A 
ENDBRANCH   6  10
ENDBRANCH   1   6
BRANCH   5  13
ATOM     13  S   UNL     1       1.694   3.439   0.004  0.00  0.00    -0.077 S 
BRANCH  13  14
ATOM     14  C   UNL     1       0.066   4.228   0.024  0.00  0.00    +0.173 C 
BRANCH  14  15
ATOM     15  C   UNL     1       0.233   5.726   0.030  0.00  0.00    +0.231 C 
ATOM     16  O   UNL     1       1.344   6.212   0.021  0.00  0.00    -0.274 OA
ATOM     17  N   UNL     1      -0.852   6.525   0.045  0.00  0.00    -0.260 N 
ATOM     18  C   UNL     1      -2.210   5.961   0.049  0.00  0.00    +0.209 C 
ATOM     19  C   UNL     1      -3.080   6.756  -0.885  0.00  0.00    +0.235 C 
ATOM     20  O   UNL     1      -4.015   6.216  -1.438  0.00  0.00    -0.274 OA
ATOM     21  N   UNL     1      -2.831   8.058  -1.119  0.00  0.00    -0.283 N 
ATOM     22  C   UNL     1      -1.730   8.692  -0.534  0.00  0.00    +0.055 A 
ATOM     23  C   UNL     1      -0.722   7.923   0.051  0.00  0.00    +0.058 A 
ATOM     24  C   UNL     1       0.378   8.535   0.622  0.00  0.00    +0.025 A 
ATOM     25  C   UNL     1       0.476   9.915   0.615  0.00  0.00    +0.002 A 
ATOM     26  C   UNL     1      -0.522  10.680   0.041  0.00  0.00    +0.002 A 
ATOM     27  C   UNL     1      -1.625  10.074  -0.533  0.00  0.00    +0.025 A 
ATOM     28  H   UNL     1      -3.422   8.562  -1.700  0.00  0.00    +0.155 HD
ENDBRANCH  14  15
ENDBRANCH  13  14
ENDBRANCH   5  13
BRANCH   2  29
ATOM     29  C   UNL     1       1.673  -1.875  -0.024  0.00  0.00    -0.001 C 
BRANCH  29  35
ATOM     30  C   UNL     1       0.497  -2.360  -2.084  0.00  0.00    -0.078 C 
ATOM     31  C   UNL     1       0.688  -2.702  -3.563  0.00  0.00    -0.019 C 
ATOM     32  C   UNL     1       1.369  -4.069  -3.682  0.00  0.00    -0.004 C 
ATOM     33  C   UNL     1       2.704  -4.032  -2.934  0.00  0.00    -0.019 C 
ATOM     34  C   UNL     1       2.455  -3.651  -1.473  0.00  0.00    -0.078 C 
ATOM     35  N   UNL     1       1.821  -2.316  -1.427  0.00  0.00    +0.384 N 
ATOM     36  H   UNL     1       2.418  -1.646  -1.926  0.00  0.00    -0.081 HD
ENDBRANCH  29  35
ENDBRANCH   2  29
TORSDOF 7
