REMARK  Name = ZINC08231801
REMARK  5 active torsions:
REMARK  status: ('A' for Active; 'I' for Inactive)
REMARK    1  A    between atoms: N_11  and  C_12
REMARK    2  A    between atoms: C_17  and  C_18
REMARK    3  A    between atoms: C_17  and  N_53
REMARK    4  A    between atoms: N_20  and  C_21
REMARK    5  A    between atoms: C_22  and  C_29
REMARK                            x       y       z     vdW  Elec       q    Type
REMARK                         _______ _______ _______ _____ _____    ______ ____
ROOT
ATOM      1  C   UNL     1       4.650   5.607  -1.301  0.00  0.00    +0.089 C 
ATOM      2  C   UNL     1       3.790   6.228  -0.197  0.00  0.00    +0.006 C 
ATOM      3  C   UNL     1       2.383   5.629  -0.254  0.00  0.00    -0.076 C 
ATOM      4  C   UNL     1       3.243   3.550  -1.154  0.00  0.00    -0.076 C 
ATOM      5  C   UNL     1       4.676   4.086  -1.123  0.00  0.00    +0.006 C 
ATOM      6  N   UNL     1       2.475   4.168  -0.052  0.00  0.00    +0.386 N 
ATOM      7  H   UNL     1       2.959   3.984   0.835  0.00  0.00    -0.081 HD
ENDROOT
BRANCH   1  18
ATOM      8  C   UNL     1       8.475   8.267  -3.767  0.00  0.00    +0.002 A 
ATOM      9  C   UNL     1       7.219   7.960  -4.262  0.00  0.00    +0.002 A 
ATOM     10  C   UNL     1       6.320   7.252  -3.489  0.00  0.00    +0.028 A 
ATOM     11  C   UNL     1       6.678   6.844  -2.213  0.00  0.00    +0.070 A 
ATOM     12  C   UNL     1       7.944   7.153  -1.714  0.00  0.00    +0.067 A 
ATOM     13  C   UNL     1       8.840   7.865  -2.497  0.00  0.00    +0.028 A 
ATOM     14  N   UNL     1       8.011   6.621  -0.428  0.00  0.00    -0.306 N 
ATOM     15  H   UNL     1       8.773   6.677   0.170  0.00  0.00    +0.170 HD
ATOM     16  C   UNL     1       6.837   6.021  -0.156  0.00  0.00    +0.328 A 
ATOM     17  O   UNL     1       6.563   5.459   0.888  0.00  0.00    -0.247 OA
ATOM     18  N   UNL     1       6.014   6.135  -1.215  0.00  0.00    -0.289 N 
ENDBRANCH   1  18
BRANCH   6  19
ATOM     19  C   UNL     1       1.121   3.580   0.011  0.00  0.00    +0.019 C 
BRANCH  19  20
ATOM     20  C   UNL     1       0.446   4.051   1.273  0.00  0.00    +0.201 C 
ATOM     21  O   UNL     1       1.063   4.713   2.080  0.00  0.00    -0.278 OA
ATOM     22  N   UNL     1      -0.844   3.737   1.505  0.00  0.00    -0.281 N 
ATOM     23  H   UNL     1      -1.337   3.204   0.862  0.00  0.00    +0.155 HD
BRANCH  22  24
ATOM     24  C   UNL     1      -1.466   4.170   2.668  0.00  0.00    +0.090 A 
ATOM     25  C   UNL     1      -2.770   3.956   3.077  0.00  0.00    +0.084 A 
ATOM     26  C   UNL     1      -3.180   4.523   4.360  0.00  0.00    -0.018 A 
ATOM     27  C   UNL     1      -2.225   5.213   5.011  0.00  0.00    -0.004 A 
ATOM     28  S   UNL     1      -0.800   5.117   3.955  0.00  0.00    -0.077 S 
ATOM     29  C   UNL     1      -2.721   5.768   6.319  0.00  0.00    +0.043 C 
ATOM     30  C   UNL     1      -4.008   4.967   6.617  0.00  0.00    +0.010 C 
ATOM     31  C   UNL     1      -4.457   4.554   5.201  0.00  0.00    +0.037 C 
BRANCH  25  32
ATOM     32  C   UNL     1      -3.684   3.201   2.273  0.00  0.00    +0.102 C 
ATOM     33  N   UNL     1      -4.410   2.603   1.636  0.00  0.00    -0.191 NA
ENDBRANCH  25  32
ENDBRANCH  22  24
ENDBRANCH  19  20
ENDBRANCH   6  19
TORSDOF 5
