REMARK  Name = ZINC45521799
REMARK  6 active torsions:
REMARK  status: ('A' for Active; 'I' for Inactive)
REMARK    1  A    between atoms: C_1  and  C_2
REMARK    2  A    between atoms: C_2  and  C_3
REMARK    3  A    between atoms: C_2  and  C_4
REMARK    4  A    between atoms: N_6  and  C_7
REMARK    5  A    between atoms: C_11  and  C_13
REMARK    6  A    between atoms: C_13  and  N_14
REMARK                            x       y       z     vdW  Elec       q    Type
REMARK                         _______ _______ _______ _____ _____    ______ ____
ROOT
ATOM      1  N   UNL     1      -7.439   0.804  -2.606  0.00  0.00    -0.324 N 
ATOM      2  C   UNL     1      -8.390   1.300  -3.479  0.00  0.00    +0.131 A 
ATOM      3  C   UNL     1      -8.958   2.588  -3.271  0.00  0.00    +0.051 A 
ATOM      4  C   UNL     1      -8.681   3.550  -2.202  0.00  0.00    -0.025 A 
ATOM      5  C   UNL     1      -9.363   4.713  -2.235  0.00  0.00    -0.004 A 
ATOM      6  S   UNL     1     -10.398   4.603  -3.670  0.00  0.00    -0.073 S 
ATOM      7  C   UNL     1      -9.915   2.989  -4.224  0.00  0.00    +0.114 A 
ATOM      8  N   UNL     1     -10.251   2.209  -5.234  0.00  0.00    -0.228 NA
ATOM      9  C   UNL     1      -9.691   1.023  -5.374  0.00  0.00    +0.224 A 
ATOM     10  N   UNL     1      -8.781   0.586  -4.522  0.00  0.00    -0.220 NA
ATOM     11  C   UNL     1      -9.263   5.850  -1.264  0.00  0.00    +0.043 C 
ATOM     12  C   UNL     1      -8.539   5.352  -0.006  0.00  0.00    +0.005 C 
ATOM     13  C   UNL     1      -7.281   4.590  -0.433  0.00  0.00    +0.005 C 
ATOM     14  C   UNL     1      -7.673   3.268  -1.092  0.00  0.00    +0.037 C 
ATOM     15  H   UNL     1      -7.214   1.297  -1.802  0.00  0.00    +0.148 HD
ENDROOT
BRANCH   1  16
ATOM     16  C   UNL     1      -6.772  -0.468  -2.896  0.00  0.00    +0.138 C 
BRANCH  16  21
ATOM     17  C   UNL     1      -3.578  -0.628  -0.881  0.00  0.00    +0.034 A 
ATOM     18  C   UNL     1      -3.988  -1.361   0.225  0.00  0.00    +0.023 A 
ATOM     19  C   UNL     1      -5.294  -1.800   0.315  0.00  0.00    +0.002 A 
ATOM     20  C   UNL     1      -6.194  -1.510  -0.695  0.00  0.00    +0.005 A 
ATOM     21  C   UNL     1      -5.788  -0.781  -1.798  0.00  0.00    -0.029 A 
ATOM     22  C   UNL     1      -4.485  -0.333  -1.890  0.00  0.00    +0.028 A 
BRANCH  17  25
ATOM     23  C   UNL     1      -1.984   1.010  -1.543  0.00  0.00    +0.220 C 
ATOM     24  O   UNL     1      -2.877   1.659  -2.046  0.00  0.00    -0.275 OA
ATOM     25  N   UNL     1      -2.255  -0.182  -0.975  0.00  0.00    -0.285 N 
ATOM     26  H   UNL     1      -1.533  -0.730  -0.632  0.00  0.00    +0.155 HD
BRANCH  23  28
ATOM     27  C   UNL     1       0.332   0.557  -2.302  0.00  0.00    +0.017 C 
ATOM     28  C   UNL     1      -0.573   1.537  -1.553  0.00  0.00    +0.069 C 
ATOM     29  C   UNL     1      -0.541   2.898  -2.252  0.00  0.00    +0.017 C 
ENDBRANCH  23  28
ENDBRANCH  17  25
ENDBRANCH  16  21
ENDBRANCH   1  16
TORSDOF 4
