REMARK  Name = ZINC25531780
REMARK  5 active torsions:
REMARK  status: ('A' for Active; 'I' for Inactive)
REMARK    1  A    between atoms: C_9  and  C_18
REMARK    2  A    between atoms: C_18  and  N_19
REMARK    3  A    between atoms: C_20  and  C_22
REMARK    4  A    between atoms: C_22  and  C_23
REMARK    5  A    between atoms: C_26  and  C_28
REMARK                            x       y       z     vdW  Elec       q    Type
REMARK                         _______ _______ _______ _____ _____    ______ ____
ROOT
ATOM      1  C   UNL     1      -0.803  -5.609   3.464  0.00  0.00    +0.000 A 
ATOM      2  C   UNL     1      -0.200  -5.965   2.272  0.00  0.00    +0.000 A 
ATOM      3  C   UNL     1      -0.730  -5.538   1.061  0.00  0.00    +0.004 A 
ATOM      4  C   UNL     1      -1.854  -4.763   1.071  0.00  0.00    -0.036 A 
ATOM      5  C   UNL     1      -2.462  -4.405   2.272  0.00  0.00    -0.036 A 
ATOM      6  C   UNL     1      -1.947  -4.820   3.467  0.00  0.00    +0.004 A 
ATOM      7  C   UNL     1      -3.703  -3.541   2.115  0.00  0.00    +0.050 C 
ATOM      8  C   UNL     1      -3.239  -2.296   1.328  0.00  0.00    +0.018 C 
ATOM      9  C   UNL     1      -2.571  -2.688   0.012  0.00  0.00    +0.019 C 
ATOM     10  C   UNL     1      -2.546  -4.221  -0.170  0.00  0.00    +0.054 C 
ATOM     11  C   UNL     1      -3.994  -4.667  -0.042  0.00  0.00    -0.036 A 
ATOM     12  C   UNL     1      -4.603  -4.309   1.159  0.00  0.00    -0.036 A 
ATOM     13  C   UNL     1      -5.902  -4.644   1.411  0.00  0.00    +0.004 A 
ATOM     14  C   UNL     1      -6.610  -5.350   0.446  0.00  0.00    +0.000 A 
ATOM     15  C   UNL     1      -6.006  -5.704  -0.747  0.00  0.00    +0.000 A 
ATOM     16  C   UNL     1      -4.684  -5.359  -0.995  0.00  0.00    +0.004 A 
ENDROOT
BRANCH   9  17
ATOM     17  C   UNL     1      -1.136  -2.159   0.001  0.00  0.00    +0.108 C 
BRANCH  17  18
ATOM     18  N   UNL     1      -1.156  -0.694   0.009  0.00  0.00    -0.315 N 
ATOM     19  C   UNL     1       0.002  -0.004   0.002  0.00  0.00    +0.219 C 
ATOM     20  O   UNL     1       1.060  -0.596  -0.011  0.00  0.00    -0.275 OA
ATOM     21  H   UNL     1      -2.116  -0.157   0.021  0.00  0.00    +0.149 HD
BRANCH  19  22
ATOM     22  C   UNL     1      -0.018   1.503   0.010  0.00  0.00    +0.151 C 
BRANCH  22  23
ATOM     23  C   UNL     1       1.395   2.024  -0.000  0.00  0.00    +0.058 A 
ATOM     24  C   UNL     1       1.791   2.898  -0.963  0.00  0.00    +0.071 A 
ATOM     25  S   UNL     1       3.496   3.161  -0.492  0.00  0.00    -0.072 S 
ATOM     26  C   UNL     1       3.497   2.081   0.933  0.00  0.00    +0.144 A 
ATOM     27  N   UNL     1       2.245   1.640   0.923  0.00  0.00    -0.240 NA
BRANCH  26  28
ATOM     28  C   UNL     1       4.590   1.770   1.868  0.00  0.00    +0.160 A 
ATOM     29  C   UNL     1       5.856   2.271   1.814  0.00  0.00    +0.052 A 
ATOM     30  C   UNL     1       6.561   1.708   2.895  0.00  0.00    +0.042 A 
ATOM     31  C   UNL     1       5.702   0.900   3.549  0.00  0.00    +0.196 A 
ATOM     32  O   UNL     1       4.511   0.944   2.930  0.00  0.00    -0.461 OA
ENDBRANCH  26  28
ENDBRANCH  22  23
ENDBRANCH  19  22
ENDBRANCH  17  18
ENDBRANCH   9  17
TORSDOF 5
