REMARK  Name = ZINC40399630
REMARK  15 active torsions:
REMARK  status: ('A' for Active; 'I' for Inactive)
REMARK    1  A    between atoms: C_1  and  C_2
REMARK    2  A    between atoms: C_2  and  O_3
REMARK    3  A    between atoms: O_3  and  C_4
REMARK    4  A    between atoms: C_4  and  C_6
REMARK    5  A    between atoms: C_7  and  C_24
REMARK    6  A    between atoms: N_8  and  C_21
REMARK    7  A    between atoms: C_12  and  C_14
REMARK    8  A    between atoms: C_18  and  C_20
REMARK    9  A    between atoms: C_21  and  C_22
REMARK   10  A    between atoms: C_24  and  N_25
REMARK   11  A    between atoms: C_29  and  C_32
REMARK   12  A    between atoms: N_35  and  C_36
REMARK   13  A    between atoms: C_36  and  C_37
REMARK   14  A    between atoms: C_36  and  C_38
REMARK   15  A    between atoms: C_36  and  C_39
REMARK                            x       y       z     vdW  Elec       q    Type
REMARK                         _______ _______ _______ _____ _____    ______ ____
ROOT
ATOM      1  C   UNL     1       0.908  -2.952   3.066  0.00  0.00    +0.080 C 
ATOM      2  C   UNL     1       1.071  -4.290   3.141  0.00  0.00    +0.041 C 
ATOM      3  N   UNL     1       1.734  -4.863   4.189  0.00  0.00    -0.254 N 
ATOM      4  C   UNL     1       2.262  -4.166   5.203  0.00  0.00    +0.307 C 
ATOM      5  O   UNL     1       2.834  -4.765   6.092  0.00  0.00    -0.252 OA
ATOM      6  N   UNL     1       2.181  -2.822   5.269  0.00  0.00    -0.288 N 
ATOM      7  C   UNL     1       1.490  -2.108   4.182  0.00  0.00    +0.144 C 
ATOM      8  H   UNL     1       2.571  -2.337   6.013  0.00  0.00    +0.151 HD
ENDROOT
BRANCH   7   9
ATOM      9  C   UNL     1       2.463  -1.134   3.568  0.00  0.00    -0.022 A 
ATOM     10  C   UNL     1       3.738  -1.550   3.231  0.00  0.00    +0.006 A 
ATOM     11  C   UNL     1       4.630  -0.657   2.669  0.00  0.00    +0.001 A 
ATOM     12  C   UNL     1       4.248   0.652   2.442  0.00  0.00    +0.003 A 
ATOM     13  C   UNL     1       2.973   1.068   2.778  0.00  0.00    -0.050 A 
ATOM     14  C   UNL     1       2.079   0.174   3.337  0.00  0.00    +0.009 A 
ATOM     15  C   UNL     1       2.557   2.495   2.531  0.00  0.00    +0.044 C 
ENDBRANCH   7   9
BRANCH   1  16
ATOM     16  C   UNL     1       0.223  -2.358   1.981  0.00  0.00    +0.339 C 
ATOM     17  O   UNL     1       0.848  -1.798   1.099  0.00  0.00    -0.245 OA
BRANCH  16  18
ATOM     18  O   UNL     1      -1.124  -2.411   1.923  0.00  0.00    -0.462 OA
BRANCH  18  20
ATOM     19  C   UNL     1      -3.268  -1.953   0.906  0.00  0.00    +0.048 C 
ATOM     20  C   UNL     1      -1.750  -1.790   0.799  0.00  0.00    +0.229 C 
ENDBRANCH  18  20
ENDBRANCH  16  18
ENDBRANCH   1  16
BRANCH   3  21
ATOM     21  C   UNL     1       1.873  -6.321   4.205  0.00  0.00    +0.141 C 
BRANCH  21  22
ATOM     22  C   UNL     1       3.145  -6.712   3.497  0.00  0.00    -0.015 C 
ATOM     23  C   UNL     1       4.033  -7.456   4.109  0.00  0.00    +0.005 C 
ENDBRANCH  21  22
ENDBRANCH   3  21
BRANCH   2  24
ATOM     24  C   UNL     1       0.512  -5.167   2.050  0.00  0.00    +0.136 C 
BRANCH  24  25
ATOM     25  N   UNL     1       1.617  -5.798   1.315  0.00  0.00    -0.294 NA
ATOM     26  C   UNL     1       2.411  -4.794   0.594  0.00  0.00    +0.104 C 
ATOM     27  C   UNL     1       3.651  -5.464  -0.008  0.00  0.00    +0.125 C 
ATOM     28  N   UNL     1       3.215  -6.611  -0.818  0.00  0.00    -0.280 N 
ATOM     29  C   UNL     1       2.304  -7.590  -0.206  0.00  0.00    +0.088 C 
ATOM     30  C   UNL     1       1.117  -6.837   0.404  0.00  0.00    +0.107 C 
ATOM     31  C   UNL     1       1.805  -8.566  -1.273  0.00  0.00    +0.029 C 
ATOM     32  C   UNL     1       3.639  -6.762  -2.089  0.00  0.00    +0.303 C 
ATOM     33  O   UNL     1       3.198  -7.664  -2.774  0.00  0.00    -0.253 OA
ATOM     34  N   UNL     1       4.551  -5.911  -2.600  0.00  0.00    -0.294 N 
ATOM     35  H   UNL     1       4.958  -5.239  -2.032  0.00  0.00    +0.151 HD
BRANCH  34  36
ATOM     36  C   UNL     1       4.928  -6.004  -4.012  0.00  0.00    +0.028 C 
ATOM     37  C   UNL     1       3.691  -5.786  -4.886  0.00  0.00    +0.031 C 
ATOM     38  C   UNL     1       5.973  -4.933  -4.332  0.00  0.00    +0.031 C 
ATOM     39  C   UNL     1       5.514  -7.388  -4.295  0.00  0.00    +0.031 C 
ENDBRANCH  34  36
ENDBRANCH  24  25
ENDBRANCH   2  24
TORSDOF 9
