REMARK  Name = ZINC30961842
REMARK  10 active torsions:
REMARK  status: ('A' for Active; 'I' for Inactive)
REMARK    1  A    between atoms: C_1  and  C_2
REMARK    2  A    between atoms: C_2  and  C_3
REMARK    3  A    between atoms: C_2  and  C_4
REMARK    4  A    between atoms: C_4  and  C_6
REMARK    5  A    between atoms: C_4  and  N_25
REMARK    6  A    between atoms: N_8  and  N_9
REMARK    7  A    between atoms: C_10  and  C_11
REMARK    8  A    between atoms: N_15  and  C_16
REMARK    9  A    between atoms: C_20  and  N_22
REMARK   10  A    between atoms: C_26  and  C_28
REMARK                            x       y       z     vdW  Elec       q    Type
REMARK                         _______ _______ _______ _____ _____    ______ ____
ROOT
ATOM      1  C   UNL     1      -3.021   8.675  -2.916  0.00  0.00    +0.253 C 
ATOM      2  O   UNL     1      -3.889   8.295  -3.666  0.00  0.00    -0.272 OA
ATOM      3  N   UNL     1      -2.221   7.779  -2.303  0.00  0.00    -0.205 N 
ATOM      4  H   UNL     1      -1.431   8.125  -1.620  0.00  0.00    +0.177 HD
ENDROOT
BRANCH   3   5
ATOM      5  N   UNL     1      -2.382   6.518  -2.518  0.00  0.00    -0.186 NA
ATOM      6  C   UNL     1      -1.674   5.624  -1.817  0.00  0.00    +0.156 C 
BRANCH   6   7
ATOM      7  C   UNL     1      -1.080   5.994  -0.627  0.00  0.00    +0.066 A 
ATOM      8  C   UNL     1      -1.248   7.279   0.084  0.00  0.00    +0.029 A 
ATOM      9  C   UNL     1      -0.475   7.202   1.199  0.00  0.00    +0.020 A 
ATOM     10  C   UNL     1       0.154   5.949   1.219  0.00  0.00    +0.092 A 
ATOM     11  N   UNL     1      -0.207   5.232   0.140  0.00  0.00    -0.315 N 
BRANCH  11  12
ATOM     12  C   UNL     1       0.230   3.937  -0.164  0.00  0.00    +0.049 A 
ATOM     13  C   UNL     1      -0.693   2.950  -0.490  0.00  0.00    +0.026 A 
ATOM     14  C   UNL     1      -0.259   1.675  -0.795  0.00  0.00    +0.004 A 
ATOM     15  C   UNL     1       1.092   1.377  -0.766  0.00  0.00    +0.033 A 
ATOM     16  C   UNL     1       2.012   2.357  -0.441  0.00  0.00    +0.128 A 
ATOM     17  C   UNL     1       1.585   3.636  -0.141  0.00  0.00    +0.058 A 
BRANCH  16  18
ATOM     18  N   UNL     1       3.457   2.035  -0.417  0.00  0.00    +0.056 N 
ATOM     19  O   UNL     1       3.865   0.816  -0.704  0.00  0.00    -0.126 OA
ATOM     20  O   UNL     1       4.334   2.967  -0.108  0.00  0.00    -0.126 OA
ENDBRANCH  16  18
ENDBRANCH  11  12
ENDBRANCH   6   7
ENDBRANCH   3   5
BRANCH   1  21
ATOM     21  C   UNL     1      -2.833  10.149  -2.665  0.00  0.00    +0.163 C 
BRANCH  21  22
ATOM     22  N   UNL     1      -3.818  10.906  -3.441  0.00  0.00    -0.300 N 
ATOM     23  C   UNL     1      -3.564  12.182  -3.791  0.00  0.00    +0.246 C 
ATOM     24  O   UNL     1      -2.517  12.705  -3.462  0.00  0.00    -0.270 OA
ATOM     25  H   UNL     1      -4.766  10.432  -3.738  0.00  0.00    +0.150 HD
BRANCH  23  26
ATOM     26  C   UNL     1      -4.558  12.946  -4.574  0.00  0.00    +0.055 A 
ATOM     27  C   UNL     1      -5.759  12.346  -4.958  0.00  0.00    +0.014 A 
ATOM     28  C   UNL     1      -6.685  13.066  -5.683  0.00  0.00    +0.001 A 
ATOM     29  C   UNL     1      -6.421  14.377  -6.041  0.00  0.00    +0.001 A 
ATOM     30  C   UNL     1      -5.232  14.976  -5.670  0.00  0.00    +0.021 A 
ATOM     31  C   UNL     1      -4.298  14.269  -4.938  0.00  0.00    +0.053 A 
ATOM     32 CL   UNL     1      -2.804  15.022  -4.473  0.00  0.00    -0.083 Cl
ENDBRANCH  23  26
ENDBRANCH  21  22
BRANCH  21  34
ATOM     33  C   UNL     1      -2.833  11.937  -0.920  0.00  0.00    +0.009 C 
ATOM     34  C   UNL     1      -3.024  10.441  -1.175  0.00  0.00    +0.012 C 
ATOM     35  C   UNL     1      -4.435  10.027  -0.751  0.00  0.00    +0.009 C 
ENDBRANCH  21  34
ENDBRANCH   1  21
TORSDOF 8
