REMARK  Name = ZINC12239222
REMARK  6 active torsions:
REMARK  status: ('A' for Active; 'I' for Inactive)
REMARK    1  A    between atoms: C_5  and  C_7
REMARK    2  A    between atoms: C_7  and  C_9
REMARK    3  A    between atoms: C_7  and  N_49
REMARK    4  A    between atoms: C_9  and  N_10
REMARK    5  A    between atoms: N_10  and  S_11
REMARK    6  A    between atoms: S_11  and  C_14
REMARK                            x       y       z     vdW  Elec       q    Type
REMARK                         _______ _______ _______ _____ _____    ______ ____
ROOT
ATOM      1  N   UNL     1      -0.230  -0.198   0.230  0.00  0.00    -0.191 NA
ATOM      2  H   UNL     1      -0.814  -0.687  -0.370  0.00  0.00    +0.148 HD
ENDROOT
BRANCH   1   3
ATOM      3  S   UNL     1       0.604  -1.004   1.413  0.00  0.00    +0.058 S 
ATOM      4  O   UNL     1       0.236  -2.372   1.309  0.00  0.00    -0.153 OA
ATOM      5  O   UNL     1       1.954  -0.569   1.325  0.00  0.00    -0.153 OA
BRANCH   3   6
ATOM      6  C   UNL     1      -0.009  -0.433   2.963  0.00  0.00    +0.107 A 
ATOM      7  C   UNL     1      -1.078  -1.079   3.561  0.00  0.00    +0.030 A 
ATOM      8  C   UNL     1      -1.565  -0.640   4.776  0.00  0.00    +0.030 A 
ATOM      9  C   UNL     1      -0.982   0.453   5.400  0.00  0.00    +0.067 A 
ATOM     10  C   UNL     1       0.095   1.104   4.796  0.00  0.00    +0.069 A 
ATOM     11  C   UNL     1       0.581   0.653   3.579  0.00  0.00    +0.056 A 
ATOM     12  N   UNL     1       0.461   2.147   5.644  0.00  0.00    -0.306 N 
ATOM     13  H   UNL     1       1.182   2.777   5.490  0.00  0.00    +0.170 HD
ATOM     14  C   UNL     1      -0.356   2.130   6.714  0.00  0.00    +0.325 A 
ATOM     15  O   UNL     1      -0.305   2.910   7.647  0.00  0.00    -0.247 OA
ATOM     16  N   UNL     1      -1.238   1.119   6.596  0.00  0.00    -0.306 N 
ATOM     17  H   UNL     1      -1.932   0.894   7.234  0.00  0.00    +0.170 HD
ENDBRANCH   3   6
ENDBRANCH   1   3
BRANCH   1  18
ATOM     18  C   UNL     1      -0.084   1.253   0.090  0.00  0.00    +0.095 C 
BRANCH  18  19
ATOM     19  C   UNL     1      -0.606   1.688  -1.281  0.00  0.00    -0.021 C 
BRANCH  19  24
ATOM     20  C   UNL     1       0.645  -0.582  -4.027  0.00  0.00    +0.000 A 
ATOM     21  C   UNL     1       1.856   0.005  -4.341  0.00  0.00    +0.001 A 
ATOM     22  C   UNL     1       2.272   1.137  -3.665  0.00  0.00    +0.020 A 
ATOM     23  C   UNL     1       1.475   1.682  -2.674  0.00  0.00    +0.043 A 
ATOM     24  C   UNL     1       0.263   1.095  -2.361  0.00  0.00    -0.041 A 
ATOM     25  C   UNL     1      -0.150  -0.040  -3.034  0.00  0.00    +0.003 A 
ATOM     26 CL   UNL     1       1.996   3.103  -1.824  0.00  0.00    -0.083 Cl
ENDBRANCH  19  24
BRANCH  19  31
ATOM     27  C   UNL     1      -2.848   1.679  -0.331  0.00  0.00    -0.078 C 
ATOM     28  C   UNL     1      -4.279   1.571  -0.915  0.00  0.00    -0.020 C 
ATOM     29  C   UNL     1      -4.085   2.005  -2.386  0.00  0.00    -0.020 C 
ATOM     30  C   UNL     1      -2.591   1.778  -2.680  0.00  0.00    -0.078 C 
ATOM     31  N   UNL     1      -2.015   1.222  -1.454  0.00  0.00    +0.385 N 
ATOM     32  H   UNL     1      -2.027   0.196  -1.500  0.00  0.00    -0.081 HD
ENDBRANCH  19  31
ENDBRANCH  18  19
ENDBRANCH   1  18
TORSDOF 6
