REMARK  Name = ZINC38984023
REMARK  6 active torsions:
REMARK  status: ('A' for Active; 'I' for Inactive)
REMARK    1  A    between atoms: C_1  and  O_2
REMARK    2  A    between atoms: O_2  and  C_3
REMARK    3  A    between atoms: C_6  and  S_9
REMARK    4  A    between atoms: S_9  and  N_12
REMARK    5  A    between atoms: C_14  and  N_24
REMARK    6  A    between atoms: N_24  and  C_25
REMARK                            x       y       z     vdW  Elec       q    Type
REMARK                         _______ _______ _______ _____ _____    ______ ____
ROOT
ATOM      1  N   UNL     1      -5.869  -2.812  -1.384  0.00  0.00    -0.110 NA
ATOM      2  C   UNL     1      -6.903  -3.501  -1.767  0.00  0.00    +0.192 C 
ATOM      3  C   UNL     1      -7.146  -3.768  -3.235  0.00  0.00    +0.237 C 
ATOM      4  N   UNL     1      -8.334  -4.554  -3.603  0.00  0.00    -0.359 N 
ATOM      5  C   UNL     1      -9.117  -4.981  -2.652  0.00  0.00    +0.063 A 
ATOM      6  C   UNL     1     -10.316  -5.770  -2.967  0.00  0.00    +0.027 A 
ATOM      7  C   UNL     1     -11.103  -6.195  -1.954  0.00  0.00    +0.002 A 
ATOM      8  C   UNL     1     -10.803  -5.902  -0.613  0.00  0.00    +0.002 A 
ATOM      9  C   UNL     1      -9.720  -5.183  -0.246  0.00  0.00    +0.030 A 
ATOM     10  C   UNL     1      -8.825  -4.686  -1.227  0.00  0.00    +0.089 A 
ATOM     11  N   UNL     1      -7.768  -3.990  -0.864  0.00  0.00    -0.226 NA
ATOM     12  H   UNL     1      -8.530  -4.750  -4.532  0.00  0.00    +0.162 HD
ENDROOT
BRANCH   1  13
ATOM     13  S   UNL     1      -5.611  -2.533   0.228  0.00  0.00    +0.100 S 
ATOM     14  O   UNL     1      -5.334  -3.795   0.820  0.00  0.00    -0.146 OA
ATOM     15  O   UNL     1      -6.673  -1.700   0.671  0.00  0.00    -0.146 OA
BRANCH  13  19
ATOM     16  C   UNL     1      -1.818  -0.083   0.572  0.00  0.00    +0.120 A 
ATOM     17  C   UNL     1      -3.045   0.551   0.448  0.00  0.00    +0.047 A 
ATOM     18  C   UNL     1      -4.201  -0.198   0.343  0.00  0.00    +0.032 A 
ATOM     19  C   UNL     1      -4.135  -1.579   0.362  0.00  0.00    +0.113 A 
ATOM     20  C   UNL     1      -2.912  -2.213   0.486  0.00  0.00    +0.032 A 
ATOM     21  C   UNL     1      -1.753  -1.468   0.585  0.00  0.00    +0.047 A 
BRANCH  16  23
ATOM     22  C   UNL     1      -0.821   2.075   0.655  0.00  0.00    +0.277 C 
ATOM     23  O   UNL     1      -0.679   0.653   0.675  0.00  0.00    -0.495 OA
ENDBRANCH  16  23
ENDBRANCH  13  19
ENDBRANCH   1  13
BRANCH   3  24
ATOM     24  N   UNL     1      -7.239  -2.474  -3.916  0.00  0.00    -0.318 N 
ATOM     25  H   UNL     1      -7.752  -1.753  -3.519  0.00  0.00    +0.148 HD
BRANCH  24  26
ATOM     26  C   UNL     1      -6.587  -2.278  -5.136  0.00  0.00    +0.029 A 
ATOM     27  C   UNL     1      -6.540  -1.011  -5.704  0.00  0.00    +0.024 A 
ATOM     28  C   UNL     1      -5.894  -0.820  -6.910  0.00  0.00    +0.022 A 
ATOM     29  C   UNL     1      -5.296  -1.890  -7.553  0.00  0.00    +0.041 A 
ATOM     30  C   UNL     1      -5.342  -3.153  -6.990  0.00  0.00    +0.022 A 
ATOM     31  C   UNL     1      -5.981  -3.348  -5.781  0.00  0.00    +0.024 A 
ATOM     32 CL   UNL     1      -4.487  -1.646  -9.070  0.00  0.00    -0.084 Cl
ENDBRANCH  24  26
ENDBRANCH   3  24
TORSDOF 5
