REMARK  Name = ZINC59644864
REMARK  11 active torsions:
REMARK  status: ('A' for Active; 'I' for Inactive)
REMARK    1  A    between atoms: C_1  and  C_2
REMARK    2  A    between atoms: C_2  and  O_3
REMARK    3  A    between atoms: O_3  and  C_4
REMARK    4  A    between atoms: C_6  and  C_22
REMARK    5  A    between atoms: C_9  and  O_10
REMARK    6  A    between atoms: O_10  and  C_11
REMARK    7  A    between atoms: C_11  and  C_12
REMARK    8  A    between atoms: C_15  and  N_18
REMARK    9  A    between atoms: N_23  and  N_24
REMARK   10  A    between atoms: C_25  and  C_27
REMARK   11  A    between atoms: C_27  and  C_28
REMARK                            x       y       z     vdW  Elec       q    Type
REMARK                         _______ _______ _______ _____ _____    ______ ____
ROOT
ATOM      1  C   UNL     1      -1.498  -1.849   0.006  0.00  0.00    +0.164 A 
ATOM      2  C   UNL     1      -0.391  -2.676  -0.003  0.00  0.00    +0.059 A 
ATOM      3  C   UNL     1      -0.558  -4.063  -0.008  0.00  0.00    -0.000 A 
ATOM      4  C   UNL     1      -1.844  -4.609  -0.004  0.00  0.00    +0.033 A 
ATOM      5  C   UNL     1      -2.945  -3.777   0.005  0.00  0.00    +0.087 A 
ATOM      6  C   UNL     1      -2.778  -2.399   0.016  0.00  0.00    +0.181 A 
ATOM      7 CL   UNL     1      -4.543  -4.455   0.010  0.00  0.00    -0.080 Cl
ENDROOT
BRANCH   3   8
ATOM      8  C   UNL     1       0.620  -4.950  -0.019  0.00  0.00    +0.138 C 
ATOM      9  N   UNL     1       0.463  -6.238  -0.024  0.00  0.00    -0.188 NA
BRANCH   9  10
ATOM     10  N   UNL     1       1.583  -7.080  -0.033  0.00  0.00    -0.207 N 
ATOM     11  C   UNL     1       1.419  -8.418  -0.039  0.00  0.00    +0.238 C 
ATOM     12  O   UNL     1       0.303  -8.893  -0.035  0.00  0.00    -0.274 OA
ATOM     13  H   UNL     1       2.475  -6.700  -0.036  0.00  0.00    +0.177 HD
BRANCH  11  14
ATOM     14  C   UNL     1       2.623  -9.324  -0.049  0.00  0.00    +0.153 C 
BRANCH  14  15
ATOM     15  C   UNL     1       2.171 -10.761  -0.053  0.00  0.00    +0.059 A 
ATOM     16  C   UNL     1       2.589 -11.632  -1.003  0.00  0.00    +0.072 A 
ATOM     17  S   UNL     1       1.743 -13.118  -0.489  0.00  0.00    -0.061 S 
ATOM     18  C   UNL     1       0.958 -12.485   0.859  0.00  0.00    +0.156 A 
ATOM     19  N   UNL     1       1.352 -11.229   0.873  0.00  0.00    -0.230 NA
ATOM     20  N   UNL     1       0.108 -13.131   1.742  0.00  0.00    -0.338 N 
ATOM     21  H   UNL     1      -0.098 -14.071   1.618  0.00  0.00    +0.144 HD
ATOM     22  H   UNL     1      -0.281 -12.643   2.485  0.00  0.00    +0.144 HD
ENDBRANCH  14  15
ENDBRANCH  11  14
ENDBRANCH   9  10
ENDBRANCH   3   8
BRANCH   1  23
ATOM     23  O   UNL     1      -1.339  -0.499   0.012  0.00  0.00    -0.489 OA
BRANCH  23  25
ATOM     24  C   UNL     1      -0.019   1.526   0.010  0.00  0.00    +0.048 C 
ATOM     25  C   UNL     1       0.002  -0.004   0.002  0.00  0.00    +0.226 C 
ENDBRANCH  23  25
ENDBRANCH   1  23
BRANCH   6  26
ATOM     26  O   UNL     1      -3.866  -1.584   0.030  0.00  0.00    -0.482 OA
BRANCH  26  27
ATOM     27  C   UNL     1      -4.397  -1.188  -1.236  0.00  0.00    +0.264 C 
BRANCH  27  28
ATOM     28  C   UNL     1      -5.591  -0.293  -1.023  0.00  0.00    -0.010 A 
ATOM     29  C   UNL     1      -6.856  -0.842  -0.918  0.00  0.00    +0.009 A 
ATOM     30  C   UNL     1      -7.951  -0.021  -0.722  0.00  0.00    +0.033 A 
ATOM     31  C   UNL     1      -7.781   1.348  -0.632  0.00  0.00    +0.126 A 
ATOM     32  C   UNL     1      -6.516   1.896  -0.736  0.00  0.00    +0.033 A 
ATOM     33  C   UNL     1      -5.421   1.075  -0.927  0.00  0.00    +0.009 A 
BRANCH  31  34
ATOM     34  N   UNL     1      -8.954   2.227  -0.423  0.00  0.00    +0.056 N 
ATOM     35  O   UNL     1     -10.060   1.748  -0.332  0.00  0.00    -0.126 OA
ATOM     36  O   UNL     1      -8.805   3.424  -0.344  0.00  0.00    -0.126 OA
ENDBRANCH  31  34
ENDBRANCH  27  28
ENDBRANCH  26  27
ENDBRANCH   6  26
TORSDOF 10
