REMARK  Name = ZINC63426717
REMARK  10 active torsions:
REMARK  status: ('A' for Active; 'I' for Inactive)
REMARK    1  A    between atoms: C_1  and  C_2
REMARK    2  A    between atoms: C_2  and  C_3
REMARK    3  A    between atoms: C_3  and  N_20
REMARK    4  A    between atoms: N_10  and  C_13
REMARK    5  A    between atoms: N_20  and  C_21
REMARK    6  A    between atoms: C_21  and  C_23
REMARK    7  A    between atoms: C_21  and  C_33
REMARK    8  A    between atoms: C_23  and  C_24
REMARK    9  A    between atoms: C_33  and  O_35
REMARK   10  A    between atoms: O_35  and  C_36
REMARK                            x       y       z     vdW  Elec       q    Type
REMARK                         _______ _______ _______ _____ _____    ______ ____
ROOT
ATOM      1  C   UNL     1       1.180  -0.015  -1.589  0.00  0.00    +0.022 C 
ATOM      2  C   UNL     1       2.347  -0.738  -1.425  0.00  0.00    +0.116 C 
ATOM      3  C   UNL     1       2.821  -1.677  -2.457  0.00  0.00    +0.258 C 
ATOM      4  O   UNL     1       2.196  -1.841  -3.488  0.00  0.00    -0.270 OA
ATOM      5  N   UNL     1       3.968  -2.349  -2.229  0.00  0.00    -0.235 N 
ATOM      6  C   UNL     1       4.668  -2.178  -1.098  0.00  0.00    +0.320 C 
ATOM      7  O   UNL     1       5.693  -2.814  -0.954  0.00  0.00    -0.251 OA
ATOM      8  N   UNL     1       4.296  -1.342  -0.119  0.00  0.00    -0.190 N 
ATOM      9  C   UNL     1       3.173  -0.600  -0.213  0.00  0.00    +0.265 C 
ATOM     10  O   UNL     1       2.849   0.159   0.681  0.00  0.00    -0.269 OA
ATOM     11  H   UNL     1       4.295  -2.971  -2.898  0.00  0.00    +0.159 HD
ENDROOT
BRANCH   8  12
ATOM     12  C   UNL     1       5.096  -1.232   1.028  0.00  0.00    +0.046 A 
ATOM     13  C   UNL     1       4.672  -1.788   2.227  0.00  0.00    +0.025 A 
ATOM     14  C   UNL     1       5.461  -1.678   3.355  0.00  0.00    +0.022 A 
ATOM     15  C   UNL     1       6.674  -1.014   3.290  0.00  0.00    +0.041 A 
ATOM     16  C   UNL     1       7.098  -0.459   2.096  0.00  0.00    +0.022 A 
ATOM     17  C   UNL     1       6.315  -0.571   0.964  0.00  0.00    +0.025 A 
ATOM     18 CL   UNL     1       7.664  -0.877   4.710  0.00  0.00    -0.084 Cl
ENDBRANCH   8  12
BRANCH   1  20
ATOM     19  C   UNL     1       1.267   2.209  -0.496  0.00  0.00    +0.010 C 
ATOM     20  C   UNL     1       0.641   0.814  -0.451  0.00  0.00    +0.048 C 
ENDBRANCH   1  20
BRANCH   1  21
ATOM     21  N   UNL     1       0.524  -0.051  -2.766  0.00  0.00    -0.334 N 
ATOM     22  H   UNL     1       0.914  -0.514  -3.524  0.00  0.00    +0.147 HD
BRANCH  21  23
ATOM     23  C   UNL     1      -0.777   0.609  -2.901  0.00  0.00    +0.184 C 
BRANCH  23  24
ATOM     24  C   UNL     1      -1.864  -0.324  -2.432  0.00  0.00    +0.328 C 
ATOM     25  O   UNL     1      -1.581  -1.426  -2.026  0.00  0.00    -0.249 OA
BRANCH  24  26
ATOM     26  O   UNL     1      -3.146   0.071  -2.464  0.00  0.00    -0.467 OA
ATOM     27  C   UNL     1      -4.124  -0.864  -2.004  0.00  0.00    +0.280 C 
ENDBRANCH  24  26
ENDBRANCH  23  24
BRANCH  23  28
ATOM     28  C   UNL     1      -1.015   0.973  -4.367  0.00  0.00    +0.066 C 
BRANCH  28  29
ATOM     29  C   UNL     1      -0.000   1.999  -4.801  0.00  0.00    -0.039 C 
ATOM     30  C   UNL     1       1.174   1.767  -5.431  0.00  0.00    -0.001 A 
ATOM     31  C   UNL     1       1.834   0.535  -5.881  0.00  0.00    +0.010 A 
ATOM     32  C   UNL     1       3.036   0.622  -6.495  0.00  0.00    +0.001 A 
ATOM     33  C   UNL     1       3.666   1.855  -6.711  0.00  0.00    +0.002 A 
ATOM     34  C   UNL     1       3.122   3.029  -6.326  0.00  0.00    +0.026 A 
ATOM     35  C   UNL     1       1.860   3.056  -5.671  0.00  0.00    +0.043 A 
ATOM     36  N   UNL     1       1.137   4.048  -5.209  0.00  0.00    -0.380 N 
ATOM     37  C   UNL     1      -0.093   3.499  -4.628  0.00  0.00    +0.144 C 
ATOM     38  H   UNL     1       1.374   4.987  -5.249  0.00  0.00    +0.160 HD
ENDBRANCH  28  29
ENDBRANCH  23  28
ENDBRANCH  21  23
ENDBRANCH   1  21
TORSDOF 8
