REMARK  Name = ZINC20441728
REMARK  5 active torsions:
REMARK  status: ('A' for Active; 'I' for Inactive)
REMARK    1  A    between atoms: C_6  and  S_7
REMARK    2  A    between atoms: S_7  and  N_10
REMARK    3  A    between atoms: N_10  and  C_11
REMARK    4  A    between atoms: C_17  and  N_19
REMARK    5  A    between atoms: N_22  and  C_25
REMARK                            x       y       z     vdW  Elec       q    Type
REMARK                         _______ _______ _______ _____ _____    ______ ____
ROOT
ATOM      1  C   UNL     1       0.851  -2.387   6.144  0.00  0.00    +0.094 C 
ATOM      2  C   UNL     1       1.591  -2.894   7.384  0.00  0.00    +0.022 C 
ATOM      3  C   UNL     1       3.065  -2.494   7.296  0.00  0.00    +0.002 C 
ATOM      4  C   UNL     1       3.177  -0.970   7.223  0.00  0.00    +0.002 C 
ATOM      5  C   UNL     1       2.437  -0.463   5.984  0.00  0.00    +0.020 C 
ATOM      6  C   UNL     1       0.963  -0.863   6.071  0.00  0.00    +0.075 C 
ENDROOT
BRANCH   6   7
ATOM      7  N   UNL     1       0.252  -0.376   4.881  0.00  0.00    -0.301 NA
ATOM      8  C   UNL     1      -1.200  -0.547   5.028  0.00  0.00    +0.066 C 
ATOM      9  C   UNL     1      -1.896  -0.103   3.739  0.00  0.00    -0.063 C 
ATOM     10  N   UNL     1      -1.559   1.300   3.462  0.00  0.00    +0.383 N 
ATOM     11  C   UNL     1      -0.107   1.471   3.315  0.00  0.00    -0.063 C 
ATOM     12  C   UNL     1       0.589   1.027   4.603  0.00  0.00    +0.066 C 
ATOM     13  H   UNL     1      -1.887   1.905   4.320  0.00  0.00    -0.081 HD
BRANCH  10  14
ATOM     14  C   UNL     1      -2.270   1.787   2.272  0.00  0.00    -0.068 C 
ATOM     15  C   UNL     1      -1.894   3.248   2.015  0.00  0.00    -0.015 C 
ATOM     16  C   UNL     1      -2.634   3.755   0.776  0.00  0.00    -0.002 C 
ATOM     17  C   UNL     1      -4.143   3.648   1.004  0.00  0.00    -0.000 C 
ATOM     18  C   UNL     1      -4.519   2.188   1.260  0.00  0.00    -0.002 C 
ATOM     19  C   UNL     1      -3.779   1.681   2.500  0.00  0.00    -0.015 C 
ENDBRANCH  10  14
ENDBRANCH   6   7
BRANCH   1  20
ATOM     20  N   UNL     1       1.446  -2.979   4.944  0.00  0.00    -0.185 NA
ATOM     21  H   UNL     1       2.218  -2.429   4.385  0.00  0.00    +0.148 HD
BRANCH  20  22
ATOM     22  S   UNL     1       0.794  -4.351   4.286  0.00  0.00    +0.059 S 
ATOM     23  O   UNL     1       1.567  -4.656   3.133  0.00  0.00    -0.153 OA
ATOM     24  O   UNL     1       0.624  -5.272   5.354  0.00  0.00    -0.153 OA
BRANCH  22  30
ATOM     25  C   UNL     1      -1.908  -4.078   4.557  0.00  0.00    +0.030 A 
ATOM     26  C   UNL     1      -3.175  -3.749   4.111  0.00  0.00    +0.022 A 
ATOM     27  C   UNL     1      -3.355  -3.290   2.818  0.00  0.00    +0.041 A 
ATOM     28  C   UNL     1      -2.267  -3.156   1.974  0.00  0.00    +0.022 A 
ATOM     29  C   UNL     1      -1.001  -3.480   2.423  0.00  0.00    +0.030 A 
ATOM     30  C   UNL     1      -0.821  -3.938   3.715  0.00  0.00    +0.105 A 
ATOM     31 CL   UNL     1      -4.946  -2.883   2.256  0.00  0.00    -0.084 Cl
ENDBRANCH  22  30
ENDBRANCH  20  22
ENDBRANCH   1  20
TORSDOF 5
