REMARK  Name = ZINC06201341
REMARK  7 active torsions:
REMARK  status: ('A' for Active; 'I' for Inactive)
REMARK    1  A    between atoms: C_1  and  C_2
REMARK    2  A    between atoms: C_2  and  C_3
REMARK    3  A    between atoms: C_2  and  C_4
REMARK    4  A    between atoms: C_7  and  C_10
REMARK    5  A    between atoms: N_11  and  N_12
REMARK    6  A    between atoms: C_13  and  C_15
REMARK    7  A    between atoms: N_17  and  C_18
REMARK                            x       y       z     vdW  Elec       q    Type
REMARK                         _______ _______ _______ _____ _____    ______ ____
ROOT
ATOM      1  N   UNL     1      -3.495   4.666   6.105  0.00  0.00    -0.199 N 
ATOM      2  C   UNL     1      -3.634   5.989   6.327  0.00  0.00    +0.318 C 
ATOM      3  O   UNL     1      -3.191   6.788   5.528  0.00  0.00    -0.263 OA
ATOM      4  H   UNL     1      -3.849   4.028   6.744  0.00  0.00    +0.178 HD
ENDROOT
BRANCH   2   5
ATOM      5  C   UNL     1      -4.333   6.470   7.554  0.00  0.00    +0.301 C 
ATOM      6  O   UNL     1      -4.776   5.670   8.353  0.00  0.00    -0.265 OA
ATOM      7  N   UNL     1      -4.472   7.792   7.776  0.00  0.00    -0.305 N 
ATOM      8  H   UNL     1      -4.118   8.431   7.138  0.00  0.00    +0.149 HD
BRANCH   7   9
ATOM      9  C   UNL     1      -5.158   8.264   8.981  0.00  0.00    +0.073 C 
ATOM     10  C   UNL     1      -6.681   8.223   8.738  0.00  0.00    +0.022 C 
ATOM     11  C   UNL     1      -7.378   8.204  10.071  0.00  0.00    +0.002 C 
ATOM     12  C   UNL     1      -7.781   9.613  10.546  0.00  0.00    +0.000 C 
ATOM     13  C   UNL     1      -6.687  10.667  10.285  0.00  0.00    +0.000 C 
ATOM     14  C   UNL     1      -5.307  10.154  10.598  0.00  0.00    +0.002 C 
ATOM     15  C   UNL     1      -4.684   9.603   9.300  0.00  0.00    +0.022 C 
ENDBRANCH   7   9
ENDBRANCH   2   5
BRANCH   1  17
ATOM     16  C   UNL     1      -2.705   2.940   4.739  0.00  0.00    +0.138 C 
ATOM     17  N   UNL     1      -2.839   4.215   4.953  0.00  0.00    -0.187 NA
BRANCH  16  21
ATOM     18  C   UNL     1      -0.718   1.572   1.248  0.00  0.00    -0.045 A 
ATOM     19  C   UNL     1      -0.854   2.930   1.475  0.00  0.00    +0.004 A 
ATOM     20  C   UNL     1      -1.503   3.382   2.605  0.00  0.00    +0.010 A 
ATOM     21  C   UNL     1      -2.014   2.465   3.527  0.00  0.00    -0.005 A 
ATOM     22  C   UNL     1      -1.868   1.095   3.293  0.00  0.00    +0.010 A 
ATOM     23  C   UNL     1      -1.222   0.658   2.156  0.00  0.00    +0.004 A 
BRANCH  18  25
ATOM     24  C   UNL     1       1.423   1.615  -0.003  0.00  0.00    +0.012 C 
ATOM     25  C   UNL     1      -0.013   1.086   0.008  0.00  0.00    +0.013 C 
ATOM     26  C   UNL     1      -0.753   1.593  -1.232  0.00  0.00    +0.012 C 
ENDBRANCH  18  25
ENDBRANCH  16  21
ENDBRANCH   1  17
TORSDOF 5
