REMARK  Name = ZINC39431491
REMARK  11 active torsions:
REMARK  status: ('A' for Active; 'I' for Inactive)
REMARK    1  A    between atoms: C_1  and  C_2
REMARK    2  A    between atoms: C_2  and  C_3
REMARK    3  A    between atoms: C_8  and  N_9
REMARK    4  A    between atoms: C_10  and  C_12
REMARK    5  A    between atoms: C_16  and  N_17
REMARK    6  A    between atoms: C_18  and  C_20
REMARK    7  A    between atoms: C_23  and  N_26
REMARK    8  A    between atoms: C_30  and  C_34
REMARK    9  A    between atoms: C_34  and  C_35
REMARK   10  A    between atoms: C_34  and  C_36
REMARK   11  A    between atoms: C_34  and  C_37
REMARK                            x       y       z     vdW  Elec       q    Type
REMARK                         _______ _______ _______ _____ _____    ______ ____
ROOT
ATOM      1  C   UNL     1      -1.470  -0.281  -4.828  0.00  0.00    +0.069 A 
ATOM      2  C   UNL     1      -0.696  -1.311  -5.498  0.00  0.00    -0.023 A 
ATOM      3  C   UNL     1      -0.136  -0.913  -6.661  0.00  0.00    -0.004 A 
ATOM      4  S   UNL     1      -0.630   0.776  -6.841  0.00  0.00    -0.077 S 
ATOM      5  C   UNL     1      -1.546   0.958  -5.446  0.00  0.00    +0.085 A 
ATOM      6  C   UNL     1       0.712  -1.737  -7.580  0.00  0.00    +0.046 C 
ATOM      7  C   UNL     1       0.542  -3.214  -7.197  0.00  0.00    -0.000 C 
ATOM      8  C   UNL     1       0.697  -3.354  -5.680  0.00  0.00    +0.009 C 
ATOM      9  C   UNL     1      -0.507  -2.727  -4.973  0.00  0.00    +0.037 C 
ENDROOT
BRANCH   1  11
ATOM     10  N   UNL     1      -1.506  -0.315  -2.391  0.00  0.00    -0.281 N 
ATOM     11  C   UNL     1      -2.147  -0.541  -3.554  0.00  0.00    +0.251 C 
ATOM     12  O   UNL     1      -3.289  -0.962  -3.547  0.00  0.00    -0.270 OA
ATOM     13  H   UNL     1      -0.620   0.081  -2.395  0.00  0.00    +0.155 HD
BRANCH  10  19
ATOM     14  C   UNL     1      -1.349  -1.120  -0.120  0.00  0.00    -0.026 A 
ATOM     15  C   UNL     1      -1.954  -1.447   1.078  0.00  0.00    +0.005 A 
ATOM     16  C   UNL     1      -3.323  -1.313   1.222  0.00  0.00    +0.000 A 
ATOM     17  C   UNL     1      -4.090  -0.853   0.168  0.00  0.00    +0.002 A 
ATOM     18  C   UNL     1      -3.491  -0.524  -1.032  0.00  0.00    +0.023 A 
ATOM     19  C   UNL     1      -2.116  -0.652  -1.179  0.00  0.00    +0.037 A 
BRANCH  14  21
ATOM     20  C   UNL     1       0.820   0.075   0.019  0.00  0.00    +0.009 C 
ATOM     21  C   UNL     1       0.143  -1.265  -0.275  0.00  0.00    +0.033 C 
ENDBRANCH  14  21
ENDBRANCH  10  19
ENDBRANCH   1  11
BRANCH   5  22
ATOM     22  N   UNL     1      -2.220   2.087  -5.011  0.00  0.00    -0.275 N 
ATOM     23  C   UNL     1      -2.187   3.217  -5.745  0.00  0.00    +0.249 C 
ATOM     24  O   UNL     1      -1.564   3.245  -6.789  0.00  0.00    -0.270 OA
ATOM     25  H   UNL     1      -2.717   2.065  -4.178  0.00  0.00    +0.156 HD
BRANCH  23  26
ATOM     26  C   UNL     1      -2.906   4.422  -5.281  0.00  0.00    +0.037 A 
ATOM     27  C   UNL     1      -3.617   4.394  -4.080  0.00  0.00    +0.015 A 
ATOM     28  C   UNL     1      -4.287   5.522  -3.653  0.00  0.00    +0.033 A 
ATOM     29  C   UNL     1      -4.255   6.679  -4.412  0.00  0.00    +0.126 A 
ATOM     30  C   UNL     1      -3.552   6.713  -5.603  0.00  0.00    +0.033 A 
ATOM     31  C   UNL     1      -2.873   5.594  -6.039  0.00  0.00    +0.015 A 
BRANCH  29  32
ATOM     32  N   UNL     1      -4.976   7.885  -3.947  0.00  0.00    +0.056 N 
ATOM     33  O   UNL     1      -5.591   7.858  -2.906  0.00  0.00    -0.126 OA
ATOM     34  O   UNL     1      -4.950   8.897  -4.608  0.00  0.00    -0.126 OA
ENDBRANCH  29  32
ENDBRANCH  23  26
ENDBRANCH   5  22
BRANCH   7  35
ATOM     35  C   UNL     1       1.610  -4.053  -7.903  0.00  0.00    -0.035 C 
ATOM     36  C   UNL     1       2.999  -3.573  -7.477  0.00  0.00    +0.011 C 
ATOM     37  C   UNL     1       1.438  -5.524  -7.520  0.00  0.00    +0.011 C 
ATOM     38  C   UNL     1       1.459  -3.899  -9.418  0.00  0.00    +0.011 C 
ENDBRANCH   7  35
TORSDOF 7
