REMARK  Name = ZINC63405917
REMARK  10 active torsions:
REMARK  status: ('A' for Active; 'I' for Inactive)
REMARK    1  A    between atoms: C_1  and  C_2
REMARK    2  A    between atoms: C_2  and  O_3
REMARK    3  A    between atoms: O_3  and  C_4
REMARK    4  A    between atoms: C_4  and  C_6
REMARK    5  A    between atoms: C_10  and  O_30
REMARK    6  A    between atoms: N_14  and  C_28
REMARK    7  A    between atoms: C_15  and  C_17
REMARK    8  A    between atoms: C_17  and  S_18
REMARK    9  A    between atoms: S_18  and  C_19
REMARK   10  A    between atoms: O_30  and  C_31
REMARK                            x       y       z     vdW  Elec       q    Type
REMARK                         _______ _______ _______ _____ _____    ______ ____
ROOT
ATOM      1  C   UNL     1      -2.878  -2.436   0.117  0.00  0.00    +0.151 C 
ATOM      2  C   UNL     1      -3.587  -2.251   1.441  0.00  0.00    -0.007 A 
ATOM      3  C   UNL     1      -3.934  -1.103   2.128  0.00  0.00    +0.053 A 
ATOM      4  C   UNL     1      -4.590  -1.194   3.346  0.00  0.00    +0.134 A 
ATOM      5  C   UNL     1      -4.898  -2.441   3.871  0.00  0.00    +0.061 A 
ATOM      6  C   UNL     1      -4.551  -3.586   3.184  0.00  0.00    +0.042 A 
ATOM      7  C   UNL     1      -3.890  -3.500   1.957  0.00  0.00    +0.035 A 
ATOM      8  N   UNL     1      -3.456  -4.526   1.112  0.00  0.00    -0.328 N 
ATOM      9  C   UNL     1      -2.807  -3.959  -0.076  0.00  0.00    +0.101 C 
ATOM     10  C   UNL     1      -3.625  -5.958   1.373  0.00  0.00    +0.129 C 
ATOM     11 BR   UNL     1      -5.793  -2.572   5.531  0.00  0.00    -0.046 Br
ENDROOT
BRANCH   1  12
ATOM     12  C   UNL     1      -1.492  -1.848   0.176  0.00  0.00    +0.316 C 
ATOM     13  O   UNL     1      -0.901  -1.798   1.229  0.00  0.00    -0.250 OA
BRANCH  12  14
ATOM     14  O   UNL     1      -0.914  -1.379  -0.941  0.00  0.00    -0.464 OA
BRANCH  14  16
ATOM     15  C   UNL     1       0.891  -0.356  -2.180  0.00  0.00    +0.048 C 
ATOM     16  C   UNL     1       0.401  -0.836  -0.812  0.00  0.00    +0.229 C 
ENDBRANCH  14  16
ENDBRANCH  12  14
ENDBRANCH   1  12
BRANCH   4  17
ATOM     17  O   UNL     1      -4.931  -0.065   4.023  0.00  0.00    -0.494 OA
ATOM     18  C   UNL     1      -4.582   1.184   3.422  0.00  0.00    +0.277 C 
ENDBRANCH   4  17
BRANCH   9  19
ATOM     19  C   UNL     1      -1.349  -4.416  -0.155  0.00  0.00    +0.096 C 
BRANCH  19  20
ATOM     20  S   UNL     1      -1.290  -6.184  -0.559  0.00  0.00    -0.113 S 
BRANCH  20  21
ATOM     21  C   UNL     1       0.483  -6.562  -0.614  0.00  0.00    +0.235 C 
ATOM     22  N   UNL     1       1.114  -6.210   0.664  0.00  0.00    -0.355 N 
ATOM     23  C   UNL     1       2.019  -5.307   0.418  0.00  0.00    +0.061 A 
ATOM     24  C   UNL     1       2.963  -4.578   1.276  0.00  0.00    +0.027 A 
ATOM     25  C   UNL     1       3.803  -3.679   0.726  0.00  0.00    +0.002 A 
ATOM     26  C   UNL     1       3.820  -3.401  -0.652  0.00  0.00    +0.002 A 
ATOM     27  C   UNL     1       2.998  -4.013  -1.527  0.00  0.00    +0.027 A 
ATOM     28  C   UNL     1       2.037  -5.013  -1.041  0.00  0.00    +0.061 A 
ATOM     29  N   UNL     1       1.142  -5.745  -1.640  0.00  0.00    -0.355 N 
ATOM     30  H   UNL     1       0.896  -6.581   1.534  0.00  0.00    +0.162 HD
ATOM     31  H   UNL     1       0.946  -5.749  -2.590  0.00  0.00    +0.162 HD
ENDBRANCH  20  21
ENDBRANCH  19  20
ENDBRANCH   9  19
TORSDOF 7
