REMARK  Name = ZINC10058370
REMARK  10 active torsions:
REMARK  status: ('A' for Active; 'I' for Inactive)
REMARK    1  A    between atoms: C_1  and  C_2
REMARK    2  A    between atoms: C_2  and  C_3
REMARK    3  A    between atoms: C_2  and  C_4
REMARK    4  A    between atoms: C_4  and  C_5
REMARK    5  A    between atoms: C_5  and  N_6
REMARK    6  A    between atoms: C_19  and  S_20
REMARK    7  A    between atoms: S_20  and  C_21
REMARK    8  A    between atoms: C_21  and  C_22
REMARK    9  A    between atoms: N_24  and  C_25
REMARK   10  A    between atoms: C_26  and  C_30
REMARK                            x       y       z     vdW  Elec       q    Type
REMARK                         _______ _______ _______ _____ _____    ______ ____
ROOT
ATOM      1  N   UNL     1      -7.642   2.243   0.052  0.00  0.00    -0.277 N 
ATOM      2  C   UNL     1      -8.216   1.022   0.031  0.00  0.00    +0.263 A 
ATOM      3  O   UNL     1      -9.427   0.907   0.032  0.00  0.00    -0.267 OA
ATOM      4  C   UNL     1      -7.349  -0.170   0.018  0.00  0.00    +0.064 A 
ATOM      5  C   UNL     1      -7.888  -1.456   0.006  0.00  0.00    +0.015 A 
ATOM      6  C   UNL     1      -7.045  -2.547  -0.007  0.00  0.00    +0.001 A 
ATOM      7  C   UNL     1      -5.670  -2.371  -0.007  0.00  0.00    +0.002 A 
ATOM      8  C   UNL     1      -5.125  -1.102   0.005  0.00  0.00    +0.027 A 
ATOM      9  C   UNL     1      -5.957   0.006   0.018  0.00  0.00    +0.064 A 
ATOM     10  N   UNL     1      -5.433   1.297   0.029  0.00  0.00    -0.256 N 
ATOM     11  C   UNL     1      -6.263   2.385   0.045  0.00  0.00    +0.240 A 
ATOM     12  N   UNL     1      -5.511   3.463   0.047  0.00  0.00    -0.109 NA
ATOM     13  N   UNL     1      -4.171   3.060   0.038  0.00  0.00    -0.120 NA
ATOM     14  C   UNL     1      -4.141   1.750   0.031  0.00  0.00    +0.198 A 
ENDROOT
BRANCH   1  15
ATOM     15  C   UNL     1      -8.490   3.438   0.063  0.00  0.00    +0.128 C 
BRANCH  15  16
ATOM     16  C   UNL     1      -8.793   3.861  -1.376  0.00  0.00    +0.025 C 
BRANCH  16  18
ATOM     17  C   UNL     1      -8.904   6.278  -0.753  0.00  0.00    +0.007 C 
ATOM     18  C   UNL     1      -9.679   5.109  -1.364  0.00  0.00    -0.016 C 
ATOM     19  C   UNL     1     -10.084   5.459  -2.797  0.00  0.00    +0.007 C 
ENDBRANCH  16  18
ENDBRANCH  15  16
ENDBRANCH   1  15
BRANCH  14  20
ATOM     20  S   UNL     1      -2.692   0.747   0.019  0.00  0.00    -0.076 S 
BRANCH  20  21
ATOM     21  C   UNL     1      -1.330   1.944   0.019  0.00  0.00    +0.173 C 
BRANCH  21  22
ATOM     22  C   UNL     1      -0.014   1.209   0.009  0.00  0.00    +0.228 C 
ATOM     23  O   UNL     1       0.002  -0.004   0.002  0.00  0.00    -0.275 OA
ATOM     24  N   UNL     1       1.143   1.898   0.001  0.00  0.00    -0.279 N 
ATOM     25  H   UNL     1       1.130   2.868   0.007  0.00  0.00    +0.155 HD
BRANCH  24  26
ATOM     26  C   UNL     1       2.354   1.221  -0.014  0.00  0.00    +0.084 A 
ATOM     27  C   UNL     1       3.639   1.750  -0.029  0.00  0.00    +0.065 A 
ATOM     28  C   UNL     1       4.730   0.805  -0.039  0.00  0.00    +0.022 A 
ATOM     29  C   UNL     1       4.410  -0.501  -0.044  0.00  0.00    +0.048 A 
ATOM     30  S   UNL     1       2.630  -0.488  -0.026  0.00  0.00    -0.081 S 
BRANCH  27  31
ATOM     31  C   UNL     1       3.875   3.198  -0.031  0.00  0.00    +0.244 C 
ATOM     32  O   UNL     1       2.932   3.968  -0.019  0.00  0.00    -0.270 OA
ATOM     33  N   UNL     1       5.135   3.675  -0.045  0.00  0.00    -0.325 N 
ATOM     34  H   UNL     1       5.886   3.061  -0.055  0.00  0.00    +0.145 HD
ATOM     35  H   UNL     1       5.291   4.632  -0.047  0.00  0.00    +0.145 HD
ENDBRANCH  27  31
ENDBRANCH  24  26
ENDBRANCH  21  22
ENDBRANCH  20  21
ENDBRANCH  14  20
TORSDOF 8
