REMARK  Name = ZINC39532086
REMARK  11 active torsions:
REMARK  status: ('A' for Active; 'I' for Inactive)
REMARK    1  A    between atoms: C_1  and  C_2
REMARK    2  A    between atoms: C_2  and  C_3
REMARK    3  A    between atoms: C_6  and  C_9
REMARK    4  A    between atoms: C_9  and  C_11
REMARK    5  A    between atoms: C_9  and  N_23
REMARK    6  A    between atoms: C_11  and  N_12
REMARK    7  A    between atoms: N_12  and  S_13
REMARK    8  A    between atoms: S_13  and  O_16
REMARK    9  A    between atoms: O_16  and  C_17
REMARK   10  A    between atoms: C_27  and  C_30
REMARK   11  A    between atoms: C_30  and  C_31
REMARK                            x       y       z     vdW  Elec       q    Type
REMARK                         _______ _______ _______ _____ _____    ______ ____
ROOT
ATOM      1  C   UNL     1       2.707  -1.868  -4.752  0.00  0.00    -0.060 C 
ENDROOT
BRANCH   1   2
ATOM      2  N   UNL     1       3.676  -2.693  -4.019  0.00  0.00    +0.381 N 
ATOM      3  C   UNL     1       4.745  -3.120  -4.932  0.00  0.00    -0.098 C 
ATOM      4  C   UNL     1       5.755  -3.979  -4.168  0.00  0.00    -0.101 C 
ATOM      5  N   UNL     1       5.077  -5.162  -3.620  0.00  0.00    +0.379 N 
ATOM      6  C   UNL     1       4.008  -4.734  -2.707  0.00  0.00    -0.085 C 
ATOM      7  C   UNL     1       2.998  -3.875  -3.471  0.00  0.00    -0.094 C 
ATOM      8  H   UNL     1       4.679  -5.701  -4.374  0.00  0.00    -0.086 HD
ATOM      9  H   UNL     1       5.743  -5.728  -3.116  0.00  0.00    -0.086 HD
ATOM     10  H   UNL     1       4.074  -2.153  -3.265  0.00  0.00    -0.081 HD
BRANCH   6  11
ATOM     11  C   UNL     1       3.302  -5.965  -2.136  0.00  0.00    +0.017 C 
BRANCH  11  12
ATOM     12  C   UNL     1       4.267  -6.747  -1.282  0.00  0.00    -0.049 A 
ATOM     13  C   UNL     1       5.047  -7.737  -1.849  0.00  0.00    +0.003 A 
ATOM     14  C   UNL     1       5.932  -8.454  -1.066  0.00  0.00    +0.000 A 
ATOM     15  C   UNL     1       6.037  -8.180   0.285  0.00  0.00    +0.000 A 
ATOM     16  C   UNL     1       5.258  -7.189   0.852  0.00  0.00    +0.000 A 
ATOM     17  C   UNL     1       4.376  -6.470   0.068  0.00  0.00    +0.003 A 
ENDBRANCH  11  12
ENDBRANCH   6  11
ENDBRANCH   1   2
BRANCH   1  21
ATOM     18  C   UNL     1      -0.615  -0.985  -2.216  0.00  0.00    -0.048 A 
ATOM     19  C   UNL     1      -0.824  -1.285  -3.549  0.00  0.00    +0.004 A 
ATOM     20  C   UNL     1       0.251  -1.570  -4.370  0.00  0.00    +0.002 A 
ATOM     21  C   UNL     1       1.535  -1.556  -3.858  0.00  0.00    -0.063 A 
ATOM     22  C   UNL     1       1.744  -1.255  -2.525  0.00  0.00    +0.002 A 
ATOM     23  C   UNL     1       0.669  -0.965  -1.705  0.00  0.00    +0.004 A 
BRANCH  18  25
ATOM     24  C   UNL     1      -2.071   0.830  -1.357  0.00  0.00    +0.009 C 
ATOM     25  C   UNL     1      -1.787  -0.674  -1.321  0.00  0.00    +0.032 C 
ENDBRANCH  18  25
ENDBRANCH   1  21
BRANCH   1  26
ATOM     26  C   UNL     1       3.375  -0.564  -5.191  0.00  0.00    -0.121 C 
BRANCH  26  27
ATOM     27  N   UNL     1       4.410  -0.856  -6.186  0.00  0.00    +0.491 NA
BRANCH  27  28
ATOM     28  S   UNL     1       5.302   0.377  -6.840  0.00  0.00    +0.066 S 
ATOM     29  O   UNL     1       4.402   1.167  -7.605  0.00  0.00    -0.159 OA
ATOM     30  O   UNL     1       6.082   0.918  -5.784  0.00  0.00    -0.159 OA
BRANCH  28  31
ATOM     31  O   UNL     1       6.278  -0.248  -7.826  0.00  0.00    -0.362 OA
BRANCH  31  32
ATOM     32  C   UNL     1       5.707  -0.647  -8.993  0.00  0.00    +0.154 A 
ATOM     33  C   UNL     1       5.196  -1.931  -9.113  0.00  0.00    +0.048 A 
ATOM     34  C   UNL     1       4.615  -2.334 -10.300  0.00  0.00    +0.004 A 
ATOM     35  C   UNL     1       4.543  -1.459 -11.367  0.00  0.00    +0.000 A 
ATOM     36  C   UNL     1       5.052  -0.178 -11.251  0.00  0.00    +0.004 A 
ATOM     37  C   UNL     1       5.628   0.231 -10.064  0.00  0.00    +0.048 A 
ENDBRANCH  31  32
ENDBRANCH  28  31
ENDBRANCH  27  28
ENDBRANCH  26  27
ENDBRANCH   1  26
TORSDOF 10
