REMARK  Name = ZINC63291159
REMARK  7 active torsions:
REMARK  status: ('A' for Active; 'I' for Inactive)
REMARK    1  A    between atoms: C_1  and  O_2
REMARK    2  A    between atoms: O_2  and  C_3
REMARK    3  A    between atoms: C_6  and  C_20
REMARK    4  A    between atoms: C_8  and  C_9
REMARK    5  A    between atoms: C_9  and  O_10
REMARK    6  A    between atoms: O_10  and  C_11
REMARK    7  A    between atoms: C_14  and  N_17
REMARK                            x       y       z     vdW  Elec       q    Type
REMARK                         _______ _______ _______ _____ _____    ______ ____
ROOT
ATOM      1  C   UNL     1       0.626  -0.618   1.042  0.00  0.00    +0.126 A 
ATOM      2  C   UNL     1       1.202   0.139   2.051  0.00  0.00    +0.046 A 
ATOM      3  C   UNL     1       1.835  -0.488   3.107  0.00  0.00    +0.009 A 
ATOM      4  C   UNL     1       1.895  -1.869   3.158  0.00  0.00    -0.028 A 
ATOM      5  C   UNL     1       1.321  -2.625   2.153  0.00  0.00    +0.015 A 
ATOM      6  C   UNL     1       0.682  -2.003   1.097  0.00  0.00    +0.032 A 
ENDROOT
BRANCH   4   7
ATOM      7  C   UNL     1       2.586  -2.550   4.311  0.00  0.00    +0.111 C 
ATOM      8  C   UNL     1       4.101  -2.522   4.093  0.00  0.00    +0.128 C 
ATOM      9  C   UNL     1       4.725  -3.071   5.372  0.00  0.00    -0.035 C 
ATOM     10  C   UNL     1       5.521  -4.064   5.003  0.00  0.00    -0.001 A 
ATOM     11  C   UNL     1       6.448  -4.915   5.768  0.00  0.00    +0.010 A 
ATOM     12  C   UNL     1       7.110  -5.867   5.060  0.00  0.00    +0.001 A 
ATOM     13  C   UNL     1       6.947  -6.057   3.684  0.00  0.00    +0.002 A 
ATOM     14  C   UNL     1       6.121  -5.317   2.901  0.00  0.00    +0.026 A 
ATOM     15  C   UNL     1       5.373  -4.281   3.531  0.00  0.00    +0.043 A 
ATOM     16  N   UNL     1       4.531  -3.408   3.013  0.00  0.00    -0.376 N 
ATOM     17  C   UNL     1       4.333  -2.547   6.732  0.00  0.00    +0.048 C 
ATOM     18  C   UNL     1       2.794  -2.518   6.755  0.00  0.00    +0.086 C 
ATOM     19  N   UNL     1       2.284  -1.836   5.562  0.00  0.00    -0.307 NA
ATOM     20  H   UNL     1       2.612  -0.883   5.523  0.00  0.00    +0.123 HD
ATOM     21  H   UNL     1       4.240  -3.358   2.089  0.00  0.00    +0.160 HD
ENDBRANCH   4   7
BRANCH   1  23
ATOM     22  C   UNL     1      -0.017   1.425   0.010  0.00  0.00    +0.277 C 
ATOM     23  O   UNL     1       0.002  -0.004   0.002  0.00  0.00    -0.495 OA
ENDBRANCH   1  23
BRANCH   6  24
ATOM     24  C   UNL     1       0.052  -2.828   0.005  0.00  0.00    +0.268 C 
BRANCH  24  25
ATOM     25  O   UNL     1       0.242  -4.216   0.287  0.00  0.00    -0.487 OA
BRANCH  25  26
ATOM     26  C   UNL     1      -0.270  -5.103  -0.606  0.00  0.00    +0.121 A 
ATOM     27  C   UNL     1      -0.936  -4.647  -1.734  0.00  0.00    +0.048 A 
ATOM     28  C   UNL     1      -1.455  -5.550  -2.641  0.00  0.00    +0.036 A 
ATOM     29  C   UNL     1      -1.312  -6.908  -2.426  0.00  0.00    +0.126 A 
ATOM     30  C   UNL     1      -0.648  -7.366  -1.302  0.00  0.00    +0.036 A 
ATOM     31  C   UNL     1      -0.123  -6.466  -0.395  0.00  0.00    +0.048 A 
BRANCH  29  32
ATOM     32  N   UNL     1      -1.869  -7.874  -3.399  0.00  0.00    +0.056 N 
ATOM     33  O   UNL     1      -2.449  -7.475  -4.382  0.00  0.00    -0.126 OA
ATOM     34  O   UNL     1      -1.743  -9.062  -3.212  0.00  0.00    -0.126 OA
ENDBRANCH  29  32
ENDBRANCH  25  26
ENDBRANCH  24  25
ENDBRANCH   6  24
TORSDOF 6
