REMARK  Name = ZINC09358572
REMARK  15 active torsions:
REMARK  status: ('A' for Active; 'I' for Inactive)
REMARK    1  A    between atoms: C_1  and  C_2
REMARK    2  A    between atoms: C_2  and  O_3
REMARK    3  A    between atoms: O_3  and  C_4
REMARK    4  A    between atoms: C_7  and  C_10
REMARK    5  A    between atoms: C_10  and  C_12
REMARK    6  A    between atoms: C_17  and  C_19
REMARK    7  A    between atoms: C_22  and  O_27
REMARK    8  A    between atoms: C_23  and  O_25
REMARK    9  A    between atoms: O_25  and  C_26
REMARK   10  A    between atoms: O_27  and  C_28
REMARK   11  A    between atoms: C_28  and  C_29
REMARK   12  A    between atoms: C_29  and  C_30
REMARK   13  A    between atoms: C_30  and  C_31
REMARK   14  A    between atoms: C_30  and  C_32
REMARK   15  A    between atoms: C_35  and  C_38
REMARK                            x       y       z     vdW  Elec       q    Type
REMARK                         _______ _______ _______ _____ _____    ______ ____
ROOT
ATOM      1  C   UNL     1       0.362   3.894  -0.163  0.00  0.00    +0.077 C 
ATOM      2  C   UNL     1      -0.983   3.830  -0.303  0.00  0.00    +0.250 C 
ATOM      3  C   UNL     1      -1.384   2.422  -0.503  0.00  0.00    +0.293 C 
ATOM      4  O   UNL     1      -2.525   2.038  -0.664  0.00  0.00    -0.266 OA
ATOM      5  N   UNL     1      -0.298   1.628  -0.477  0.00  0.00    -0.235 N 
ATOM      6  C   UNL     1       0.879   2.479  -0.268  0.00  0.00    +0.151 C 
ATOM      7  C   UNL     1      -0.292   0.242  -0.629  0.00  0.00    +0.172 A 
ATOM      8  C   UNL     1       0.828  -0.624  -0.514  0.00  0.00    +0.091 A 
ATOM      9  C   UNL     1       0.315  -1.853  -0.746  0.00  0.00    +0.136 A 
ATOM     10  O   UNL     1      -0.996  -1.685  -0.974  0.00  0.00    -0.358 OA
ATOM     11  N   UNL     1      -1.318  -0.522  -0.901  0.00  0.00    -0.063 NA
ATOM     12  C   UNL     1       1.069  -3.158  -0.748  0.00  0.00    +0.089 C 
ATOM     13  O   UNL     1      -1.826   4.888  -0.271  0.00  0.00    -0.282 OA
ENDROOT
BRANCH   6  14
ATOM     14  C   UNL     1       1.581   2.087   1.007  0.00  0.00    -0.018 A 
ATOM     15  C   UNL     1       0.849   1.865   2.158  0.00  0.00    +0.009 A 
ATOM     16  C   UNL     1       1.488   1.499   3.328  0.00  0.00    +0.050 A 
ATOM     17  C   UNL     1       2.867   1.366   3.352  0.00  0.00    +0.162 A 
ATOM     18  C   UNL     1       3.605   1.595   2.194  0.00  0.00    +0.162 A 
ATOM     19  C   UNL     1       2.957   1.955   1.023  0.00  0.00    +0.055 A 
BRANCH  18  20
ATOM     20  O   UNL     1       4.958   1.465   2.212  0.00  0.00    -0.491 OA
ATOM     21  C   UNL     1       5.660   1.821   1.020  0.00  0.00    +0.277 C 
ENDBRANCH  18  20
BRANCH  17  22
ATOM     22  O   UNL     1       3.497   1.012   4.503  0.00  0.00    -0.488 OA
BRANCH  22  23
ATOM     23  C   UNL     1       2.676   0.793   5.652  0.00  0.00    +0.229 C 
BRANCH  23  24
ATOM     24  C   UNL     1       3.556   0.407   6.842  0.00  0.00    +0.044 C 
BRANCH  24  25
ATOM     25  C   UNL     1       2.677   0.172   8.072  0.00  0.00    -0.014 C 
ATOM     26  C   UNL     1       1.772  -1.037   7.829  0.00  0.00    +0.007 C 
ATOM     27  C   UNL     1       3.564  -0.091   9.291  0.00  0.00    +0.007 C 
ENDBRANCH  24  25
ENDBRANCH  23  24
ENDBRANCH  22  23
ENDBRANCH  17  22
ENDBRANCH   6  14
BRANCH   1  28
ATOM     28  C   UNL     1       1.162   5.104   0.049  0.00  0.00    +0.195 C 
ATOM     29  O   UNL     1       1.042   5.741   1.079  0.00  0.00    -0.287 OA
BRANCH  28  33
ATOM     30  C   UNL     1       3.900   6.389  -2.933  0.00  0.00    +0.121 A 
ATOM     31  C   UNL     1       3.849   7.047  -1.709  0.00  0.00    +0.046 A 
ATOM     32  C   UNL     1       2.963   6.634  -0.740  0.00  0.00    +0.015 A 
ATOM     33  C   UNL     1       2.114   5.551  -0.988  0.00  0.00    +0.022 A 
ATOM     34  C   UNL     1       2.172   4.889  -2.218  0.00  0.00    +0.015 A 
ATOM     35  C   UNL     1       3.057   5.311  -3.183  0.00  0.00    +0.046 A 
BRANCH  30  36
ATOM     36  O   UNL     1       4.775   6.799  -3.886  0.00  0.00    -0.492 OA
BRANCH  36  38
ATOM     37  C   UNL     1       5.975   6.550  -5.969  0.00  0.00    +0.048 C 
ATOM     38  C   UNL     1       4.859   6.008  -5.073  0.00  0.00    +0.225 C 
ENDBRANCH  36  38
ENDBRANCH  30  36
ENDBRANCH  28  33
ENDBRANCH   1  28
TORSDOF 10
