REMARK  Name = ZINC35032453
REMARK  15 active torsions:
REMARK  status: ('A' for Active; 'I' for Inactive)
REMARK    1  A    between atoms: C_1  and  C_2
REMARK    2  A    between atoms: C_2  and  C_3
REMARK    3  A    between atoms: C_3  and  N_4
REMARK    4  A    between atoms: C_14  and  C_15
REMARK    5  A    between atoms: C_15  and  C_17
REMARK    6  A    between atoms: C_15  and  N_18
REMARK    7  A    between atoms: N_18  and  C_19
REMARK    8  A    between atoms: C_19  and  C_20
REMARK    9  A    between atoms: C_20  and  N_21
REMARK   10  A    between atoms: N_21  and  C_22
REMARK   11  A    between atoms: N_21  and  C_23
REMARK   12  A    between atoms: N_26  and  C_27
REMARK   13  A    between atoms: C_30  and  C_33
REMARK   14  A    between atoms: C_33  and  C_34
REMARK   15  A    between atoms: C_33  and  C_35
REMARK                            x       y       z     vdW  Elec       q    Type
REMARK                         _______ _______ _______ _____ _____    ______ ____
ROOT
ATOM      1  N   UNL     1      -1.258  -2.986   3.669  0.00  0.00    -0.277 N 
ATOM      2  C   UNL     1      -0.162  -3.072   4.449  0.00  0.00    +0.307 C 
ATOM      3  O   UNL     1       0.764  -2.300   4.284  0.00  0.00    -0.252 OA
ATOM      4  N   UNL     1      -0.091  -4.013   5.411  0.00  0.00    -0.269 N 
ATOM      5  H   UNL     1      -0.794  -4.676   5.493  0.00  0.00    +0.156 HD
ENDROOT
BRANCH   4   6
ATOM      6  C   UNL     1       0.996  -4.032   6.292  0.00  0.00    +0.035 A 
ATOM      7  C   UNL     1       1.477  -5.242   6.777  0.00  0.00    +0.023 A 
ATOM      8  C   UNL     1       2.550  -5.258   7.646  0.00  0.00    +0.006 A 
ATOM      9  C   UNL     1       3.147  -4.072   8.032  0.00  0.00    -0.045 A 
ATOM     10  C   UNL     1       2.671  -2.866   7.551  0.00  0.00    +0.006 A 
ATOM     11  C   UNL     1       1.601  -2.843   6.678  0.00  0.00    +0.023 A 
BRANCH   9  12
ATOM     12  C   UNL     1       4.318  -4.093   8.980  0.00  0.00    +0.013 C 
ATOM     13  C   UNL     1       5.535  -3.459   8.303  0.00  0.00    +0.012 C 
ATOM     14  C   UNL     1       3.967  -3.303  10.242  0.00  0.00    +0.012 C 
ENDBRANCH   9  12
ENDBRANCH   4   6
BRANCH   1  15
ATOM     15  C   UNL     1      -1.334  -1.964   2.623  0.00  0.00    +0.141 C 
ATOM     16  C   UNL     1      -2.434  -0.959   2.972  0.00  0.00    +0.036 C 
BRANCH  15  27
ATOM     17  N   UNL     1      -0.710  -2.586   0.325  0.00  0.00    -0.295 N 
ATOM     18  C   UNL     1      -0.944  -3.164  -0.876  0.00  0.00    +0.262 A 
ATOM     19  O   UNL     1      -0.108  -3.147  -1.760  0.00  0.00    -0.267 OA
ATOM     20  C   UNL     1      -2.249  -3.814  -1.072  0.00  0.00    +0.065 A 
ATOM     21  C   UNL     1      -2.589  -4.438  -2.270  0.00  0.00    +0.015 A 
ATOM     22  C   UNL     1      -3.826  -5.032  -2.399  0.00  0.00    +0.001 A 
ATOM     23  C   UNL     1      -4.732  -5.012  -1.346  0.00  0.00    +0.002 A 
ATOM     24  C   UNL     1      -4.415  -4.401  -0.154  0.00  0.00    +0.028 A 
ATOM     25  C   UNL     1      -3.168  -3.792   0.001  0.00  0.00    +0.078 A 
ATOM     26  N   UNL     1      -2.814  -3.179   1.158  0.00  0.00    -0.232 NA
ATOM     27  C   UNL     1      -1.652  -2.618   1.303  0.00  0.00    +0.133 A 
BRANCH  17  28
ATOM     28  C   UNL     1       0.573  -1.924   0.574  0.00  0.00    +0.126 C 
BRANCH  28  30
ATOM     29  C   UNL     1       2.877  -2.221   1.494  0.00  0.00    +0.005 C 
ATOM     30  C   UNL     1       1.536  -2.912   1.234  0.00  0.00    +0.018 C 
ENDBRANCH  28  30
ENDBRANCH  17  28
ENDBRANCH  15  27
ENDBRANCH   1  15
BRANCH   1  31
ATOM     31  C   UNL     1      -2.372  -3.916   3.868  0.00  0.00    +0.091 C 
BRANCH  31  32
ATOM     32  C   UNL     1      -2.089  -5.220   3.119  0.00  0.00    -0.060 C 
BRANCH  32  33
ATOM     33  N   UNL     1      -3.260  -6.102   3.212  0.00  0.00    +0.377 N 
ATOM     34  C   UNL     1      -3.034  -7.302   2.395  0.00  0.00    -0.097 C 
ATOM     35  C   UNL     1      -3.466  -6.495   4.613  0.00  0.00    -0.097 C 
ATOM     36  H   UNL     1      -4.076  -5.614   2.876  0.00  0.00    -0.083 HD
ENDBRANCH  32  33
ENDBRANCH  31  32
ENDBRANCH   1  31
TORSDOF 9
