REMARK  Name = ZINC11753376
REMARK  11 active torsions:
REMARK  status: ('A' for Active; 'I' for Inactive)
REMARK    1  A    between atoms: C_1  and  C_2
REMARK    2  A    between atoms: C_2  and  C_3
REMARK    3  A    between atoms: C_2  and  O_4
REMARK    4  A    between atoms: O_4  and  C_5
REMARK    5  A    between atoms: C_8  and  C_11
REMARK    6  A    between atoms: C_11  and  C_12
REMARK    7  A    between atoms: C_12  and  N_13
REMARK    8  A    between atoms: C_14  and  C_16
REMARK    9  A    between atoms: C_16  and  C_17
REMARK   10  A    between atoms: C_24  and  C_25
REMARK   11  A    between atoms: C_24  and  N_61
REMARK                            x       y       z     vdW  Elec       q    Type
REMARK                         _______ _______ _______ _____ _____    ______ ____
ROOT
ATOM      1  C   UNL     1       0.906  -4.941  -0.763  0.00  0.00    +0.089 C 
ENDROOT
BRANCH   1   2
ATOM      2  C   UNL     1       2.268  -4.377  -1.170  0.00  0.00    +0.028 C 
ATOM      3  C   UNL     1       2.219  -2.876  -1.129  0.00  0.00    +0.200 C 
ATOM      4  O   UNL     1       1.241  -2.314  -1.574  0.00  0.00    -0.278 OA
ATOM      5  N   UNL     1       3.209  -2.134  -0.621  0.00  0.00    -0.318 N 
ATOM      6  C   UNL     1       4.412  -2.712  -0.029  0.00  0.00    +0.085 C 
ATOM      7  C   UNL     1       4.568  -4.167  -0.476  0.00  0.00    -0.058 C 
ATOM      8  H   UNL     1       3.124  -1.168  -0.648  0.00  0.00    +0.149 HD
ATOM      9  N   UNL     1       3.290  -4.863  -0.224  0.00  0.00    +0.391 N 
ATOM     10  H   UNL     1       2.982  -4.662   0.735  0.00  0.00    -0.080 HD
BRANCH   9  11
ATOM     11  C   UNL     1       3.469  -6.325  -0.376  0.00  0.00    -0.042 C 
BRANCH  11  12
ATOM     12  C   UNL     1       4.594  -6.780   0.516  0.00  0.00    -0.061 A 
ATOM     13  C   UNL     1       5.889  -6.816   0.032  0.00  0.00    +0.002 A 
ATOM     14  C   UNL     1       6.923  -7.233   0.849  0.00  0.00    +0.003 A 
ATOM     15  C   UNL     1       6.663  -7.616   2.151  0.00  0.00    +0.038 A 
ATOM     16  C   UNL     1       5.367  -7.580   2.638  0.00  0.00    +0.124 A 
ATOM     17  C   UNL     1       4.333  -7.162   1.818  0.00  0.00    +0.040 A 
ATOM     18  F   UNL     1       5.113  -7.948   3.913  0.00  0.00    -0.205 F 
ENDBRANCH  11  12
ENDBRANCH   9  11
ENDBRANCH   1   2
BRANCH   1  20
ATOM     19  N   UNL     1      -0.512  -5.007   1.263  0.00  0.00    -0.315 N 
ATOM     20  C   UNL     1       0.611  -4.562   0.665  0.00  0.00    +0.212 C 
ATOM     21  O   UNL     1       1.386  -3.857   1.278  0.00  0.00    -0.276 OA
ATOM     22  H   UNL     1      -1.131  -5.570   0.773  0.00  0.00    +0.149 HD
BRANCH  19  23
ATOM     23  C   UNL     1      -0.798  -4.638   2.652  0.00  0.00    +0.109 C 
BRANCH  23  24
ATOM     24  C   UNL     1      -2.123  -5.268   3.084  0.00  0.00    +0.054 C 
BRANCH  24  28
ATOM     25  C   UNL     1      -2.958  -4.193   7.135  0.00  0.00    +0.121 A 
ATOM     26  C   UNL     1      -3.410  -3.392   6.096  0.00  0.00    +0.046 A 
ATOM     27  C   UNL     1      -3.139  -3.742   4.788  0.00  0.00    +0.007 A 
ATOM     28  C   UNL     1      -2.418  -4.889   4.513  0.00  0.00    -0.046 A 
ATOM     29  C   UNL     1      -1.971  -5.692   5.546  0.00  0.00    +0.007 A 
ATOM     30  C   UNL     1      -2.234  -5.344   6.856  0.00  0.00    +0.046 A 
BRANCH  25  31
ATOM     31  O   UNL     1      -3.223  -3.851   8.423  0.00  0.00    -0.489 OA
BRANCH  31  33
ATOM     32  C   UNL     1      -4.703  -2.808  10.024  0.00  0.00    +0.051 C 
ATOM     33  C   UNL     1      -4.071  -2.720   8.633  0.00  0.00    +0.167 C 
ATOM     34  C   UNL     1      -3.245  -1.437   8.527  0.00  0.00    +0.051 C 
ENDBRANCH  31  33
ENDBRANCH  25  31
ENDBRANCH  24  28
ENDBRANCH  23  24
ENDBRANCH  19  23
ENDBRANCH   1  20
TORSDOF 9
