REMARK  Name = ZINC09435730
REMARK  10 active torsions:
REMARK  status: ('A' for Active; 'I' for Inactive)
REMARK    1  A    between atoms: C_1  and  C_2
REMARK    2  A    between atoms: C_6  and  O_31
REMARK    3  A    between atoms: C_12  and  C_13
REMARK    4  A    between atoms: C_13  and  C_14
REMARK    5  A    between atoms: N_16  and  C_17
REMARK    6  A    between atoms: C_17  and  C_18
REMARK    7  A    between atoms: C_18  and  C_19
REMARK    8  A    between atoms: C_26  and  O_29
REMARK    9  A    between atoms: O_29  and  C_30
REMARK   10  A    between atoms: O_31  and  C_32
REMARK                            x       y       z     vdW  Elec       q    Type
REMARK                         _______ _______ _______ _____ _____    ______ ____
ROOT
ATOM      1  C   UNL     1       3.980   7.058   1.426  0.00  0.00    +0.218 C 
ATOM      2  O   UNL     1       3.333   6.616   2.351  0.00  0.00    -0.275 OA
ATOM      3  N   UNL     1       5.085   7.791   1.667  0.00  0.00    -0.315 N 
ATOM      4  H   UNL     1       5.603   8.145   0.927  0.00  0.00    +0.149 HD
ENDROOT
BRANCH   1   5
ATOM      5  C   UNL     1       3.549   6.788   0.007  0.00  0.00    +0.138 C 
BRANCH   5  17
ATOM      6  C   UNL     1       3.719   3.905  -0.011  0.00  0.00    +0.045 C 
ATOM      7  C   UNL     1       2.380   4.597   0.005  0.00  0.00    -0.029 A 
ATOM      8  C   UNL     1       1.135   3.826   0.012  0.00  0.00    +0.022 A 
ATOM      9  C   UNL     1       1.154   2.426   0.004  0.00  0.00    +0.035 A 
ATOM     10  C   UNL     1      -0.021   1.732   0.012  0.00  0.00    +0.083 A 
ATOM     11  C   UNL     1      -1.241   2.408   0.021  0.00  0.00    +0.142 A 
ATOM     12  C   UNL     1      -1.278   3.792   0.034  0.00  0.00    +0.094 A 
ATOM     13  C   UNL     1      -0.093   4.513   0.027  0.00  0.00    +0.143 A 
ATOM     14  O   UNL     1      -0.107   5.864   0.035  0.00  0.00    -0.422 OA
ATOM     15  C   UNL     1       1.030   6.576   0.029  0.00  0.00    +0.341 A 
ATOM     16  O   UNL     1       0.969   7.793   0.037  0.00  0.00    -0.245 OA
ATOM     17  C   UNL     1       2.295   5.953   0.014  0.00  0.00    +0.049 A 
ATOM     18 CL   UNL     1       0.002  -0.004   0.002  0.00  0.00    -0.080 Cl
BRANCH  11  19
ATOM     19  O   UNL     1      -2.402   1.704   0.022  0.00  0.00    -0.494 OA
ATOM     20  C   UNL     1      -3.617   2.456   0.032  0.00  0.00    +0.277 C 
ENDBRANCH  11  19
ENDBRANCH   5  17
ENDBRANCH   1   5
BRANCH   3  21
ATOM     21  C   UNL     1       5.504   8.054   3.046  0.00  0.00    +0.109 C 
BRANCH  21  22
ATOM     22  C   UNL     1       6.778   8.902   3.039  0.00  0.00    +0.056 C 
BRANCH  22  23
ATOM     23  C   UNL     1       7.209   9.172   4.458  0.00  0.00    -0.021 A 
ATOM     24  C   UNL     1       6.914  10.259   5.189  0.00  0.00    +0.087 A 
ATOM     25  N   UNL     1       7.478  10.153   6.431  0.00  0.00    -0.360 N 
ATOM     26  H   UNL     1       7.404  10.816   7.135  0.00  0.00    +0.165 HD
ATOM     27  C   UNL     1       8.168   8.963   6.532  0.00  0.00    +0.047 A 
ATOM     28  C   UNL     1       8.023   8.295   5.303  0.00  0.00    +0.006 A 
ATOM     29  C   UNL     1       8.630   7.052   5.108  0.00  0.00    +0.056 A 
ATOM     30  C   UNL     1       9.358   6.481   6.133  0.00  0.00    +0.121 A 
ATOM     31  C   UNL     1       9.494   7.142   7.350  0.00  0.00    +0.047 A 
ATOM     32  C   UNL     1       8.906   8.371   7.551  0.00  0.00    +0.030 A 
BRANCH  30  33
ATOM     33  O   UNL     1       9.946   5.268   5.951  0.00  0.00    -0.495 OA
ATOM     34  C   UNL     1      10.685   4.734   7.051  0.00  0.00    +0.277 C 
ENDBRANCH  30  33
ENDBRANCH  22  23
ENDBRANCH  21  22
ENDBRANCH   3  21
TORSDOF 7
