REMARK  Name = ZINC01040149
REMARK  10 active torsions:
REMARK  status: ('A' for Active; 'I' for Inactive)
REMARK    1  A    between atoms: C_1  and  C_2
REMARK    2  A    between atoms: C_2  and  C_25
REMARK    3  A    between atoms: N_3  and  N_4
REMARK    4  A    between atoms: C_5  and  C_7
REMARK    5  A    between atoms: C_7  and  S_8
REMARK    6  A    between atoms: S_8  and  C_9
REMARK    7  A    between atoms: C_12  and  C_13
REMARK    8  A    between atoms: C_12  and  C_19
REMARK    9  A    between atoms: C_12  and  N_60
REMARK   10  A    between atoms: C_28  and  N_31
REMARK                            x       y       z     vdW  Elec       q    Type
REMARK                         _______ _______ _______ _____ _____    ______ ____
ROOT
ATOM      1  S   UNL     1       0.937   4.410  -0.470  0.00  0.00    -0.152 S 
ENDROOT
BRANCH   1   2
ATOM      2  C   UNL     1       2.217   4.249  -1.745  0.00  0.00    +0.014 C 
ATOM      3  C   UNL     1       3.524   4.989  -1.408  0.00  0.00    -0.065 C 
ATOM      4  C   UNL     1       2.066   5.250  -2.905  0.00  0.00    -0.065 C 
ATOM      5  N   UNL     1       3.451   5.395  -2.744  0.00  0.00    +0.388 N 
ATOM      6  H   UNL     1       3.981   4.775  -3.367  0.00  0.00    -0.080 HD
BRANCH   5   7
ATOM      7  C   UNL     1       3.915   6.826  -2.949  0.00  0.00    -0.007 C 
BRANCH   7   8
ATOM      8  C   UNL     1       5.401   6.966  -2.741  0.00  0.00    -0.057 A 
ATOM      9  C   UNL     1       6.265   6.025  -3.269  0.00  0.00    +0.002 A 
ATOM     10  C   UNL     1       7.628   6.156  -3.082  0.00  0.00    +0.000 A 
ATOM     11  C   UNL     1       8.127   7.223  -2.359  0.00  0.00    +0.000 A 
ATOM     12  C   UNL     1       7.263   8.162  -1.827  0.00  0.00    +0.000 A 
ATOM     13  C   UNL     1       5.900   8.034  -2.018  0.00  0.00    +0.002 A 
ENDBRANCH   7   8
BRANCH   7  14
ATOM     14  C   UNL     1       3.551   7.326  -4.324  0.00  0.00    -0.057 A 
ATOM     15  C   UNL     1       3.752   6.519  -5.428  0.00  0.00    +0.002 A 
ATOM     16  C   UNL     1       3.414   6.975  -6.688  0.00  0.00    +0.000 A 
ATOM     17  C   UNL     1       2.884   8.242  -6.845  0.00  0.00    +0.000 A 
ATOM     18  C   UNL     1       2.688   9.051  -5.742  0.00  0.00    +0.000 A 
ATOM     19  C   UNL     1       3.021   8.593  -4.481  0.00  0.00    +0.002 A 
ENDBRANCH   7  14
ENDBRANCH   5   7
ENDBRANCH   1   2
BRANCH   1  20
ATOM     20  C   UNL     1       1.271   3.035   0.664  0.00  0.00    +0.166 C 
BRANCH  20  22
ATOM     21  N   UNL     1       0.319   2.117   2.754  0.00  0.00    -0.206 N 
ATOM     22  C   UNL     1       0.265   3.053   1.786  0.00  0.00    +0.242 C 
ATOM     23  O   UNL     1      -0.593   3.909   1.817  0.00  0.00    -0.273 OA
ATOM     24  H   UNL     1       1.006   1.432   2.729  0.00  0.00    +0.177 HD
BRANCH  21  27
ATOM     25  C   UNL     1      -1.596   1.194   5.814  0.00  0.00    +0.068 C 
ATOM     26  C   UNL     1      -0.497   1.305   4.789  0.00  0.00    +0.063 C 
ATOM     27  N   UNL     1      -0.616   2.133   3.797  0.00  0.00    -0.185 NA
BRANCH  26  28
ATOM     28  C   UNL     1       0.714   0.473   4.913  0.00  0.00    -0.002 A 
ATOM     29  C   UNL     1       0.620  -0.836   5.390  0.00  0.00    +0.012 A 
ATOM     30  C   UNL     1       1.757  -1.611   5.498  0.00  0.00    +0.033 A 
ATOM     31  C   UNL     1       2.989  -1.090   5.146  0.00  0.00    +0.126 A 
ATOM     32  C   UNL     1       3.091   0.208   4.678  0.00  0.00    +0.033 A 
ATOM     33  C   UNL     1       1.962   0.993   4.559  0.00  0.00    +0.012 A 
BRANCH  31  34
ATOM     34  N   UNL     1       4.205  -1.925   5.271  0.00  0.00    +0.056 N 
ATOM     35  O   UNL     1       5.291  -1.469   4.962  0.00  0.00    -0.126 OA
ATOM     36  O   UNL     1       4.119  -3.068   5.683  0.00  0.00    -0.126 OA
ENDBRANCH  31  34
ENDBRANCH  26  28
ENDBRANCH  21  27
ENDBRANCH  20  22
ENDBRANCH   1  20
TORSDOF 9
