REMARK  Name = ZINC49128973
REMARK  10 active torsions:
REMARK  status: ('A' for Active; 'I' for Inactive)
REMARK    1  A    between atoms: C_1  and  C_2
REMARK    2  A    between atoms: C_8  and  O_10
REMARK    3  A    between atoms: O_10  and  C_11
REMARK    4  A    between atoms: C_11  and  C_12
REMARK    5  A    between atoms: C_12  and  C_14
REMARK    6  A    between atoms: C_12  and  O_25
REMARK    7  A    between atoms: C_14  and  N_15
REMARK    8  A    between atoms: N_15  and  C_16
REMARK    9  A    between atoms: C_16  and  C_18
REMARK   10  A    between atoms: C_16  and  C_19
REMARK                            x       y       z     vdW  Elec       q    Type
REMARK                         _______ _______ _______ _____ _____    ______ ____
ROOT
ATOM      1  C   UNL     1       0.119   0.640   4.733  0.00  0.00    +0.123 C 
ENDROOT
BRANCH   1   2
ATOM      2  O   UNL     1      -0.425   1.929   4.441  0.00  0.00    -0.391 OA
ATOM      3  H   UNL     1       0.242   2.604   4.255  0.00  0.00    +0.210 HD
ENDBRANCH   1   2
BRANCH   1   4
ATOM      4  C   UNL     1       0.938   0.149   3.537  0.00  0.00    +0.189 C 
BRANCH   4   5
ATOM      5  O   UNL     1       0.073  -0.050   2.417  0.00  0.00    -0.374 OA
BRANCH   5  12
ATOM      6  C   UNL     1      -0.019   1.526   0.010  0.00  0.00    +0.010 C 
ATOM      7  C   UNL     1       0.002  -0.004   0.002  0.00  0.00    +0.015 C 
ATOM      8  C   UNL     1      -1.433  -0.534   0.013  0.00  0.00    +0.006 C 
ATOM      9  C   UNL     1      -1.413  -2.063   0.004  0.00  0.00    +0.000 C 
ATOM     10  C   UNL     1      -0.673  -2.570   1.244  0.00  0.00    +0.003 C 
ATOM     11  C   UNL     1       0.763  -2.041   1.233  0.00  0.00    +0.032 C 
ATOM     12  C   UNL     1       0.742  -0.511   1.242  0.00  0.00    +0.121 C 
ENDBRANCH   5  12
ENDBRANCH   4   5
ENDBRANCH   1   4
BRANCH   1  13
ATOM     13  C   UNL     1       1.021   0.734   5.965  0.00  0.00    -0.048 C 
BRANCH  13  14
ATOM     14  N   UNL     1       0.212   1.090   7.138  0.00  0.00    +0.385 N 
ATOM     15  H   UNL     1      -0.237   1.980   6.981  0.00  0.00    -0.085 HD
ATOM     16  H   UNL     1      -0.491   0.381   7.289  0.00  0.00    -0.085 HD
BRANCH  14  17
ATOM     17  C   UNL     1       1.078   1.180   8.321  0.00  0.00    -0.037 C 
ATOM     18  C   UNL     1       2.064   2.337   8.144  0.00  0.00    -0.008 C 
BRANCH  17  19
ATOM     19  C   UNL     1       0.233   1.423   9.545  0.00  0.00    -0.023 A 
ATOM     20  C   UNL     1       0.364   0.904  10.790  0.00  0.00    +0.011 A 
ATOM     21  C   UNL     1      -0.538   1.273  11.770  0.00  0.00    +0.028 A 
ATOM     22  C   UNL     1      -1.529   2.145  11.456  0.00  0.00    +0.078 A 
ATOM     23  S   UNL     1      -1.197   2.476   9.733  0.00  0.00    -0.083 S 
ATOM     24 CL   UNL     1      -2.789   2.779  12.468  0.00  0.00    -0.076 Cl
ENDBRANCH  17  19
ENDBRANCH  14  17
ENDBRANCH  13  14
ENDBRANCH   1  13
TORSDOF 8
