REMARK  Name = ZINC10225397
REMARK  9 active torsions:
REMARK  status: ('A' for Active; 'I' for Inactive)
REMARK    1  A    between atoms: C_1  and  C_2
REMARK    2  A    between atoms: C_2  and  O_3
REMARK    3  A    between atoms: O_3  and  C_4
REMARK    4  A    between atoms: C_7  and  N_10
REMARK    5  A    between atoms: C_19  and  S_20
REMARK    6  A    between atoms: S_20  and  C_21
REMARK    7  A    between atoms: C_21  and  C_22
REMARK    8  A    between atoms: N_24  and  C_25
REMARK    9  A    between atoms: C_27  and  C_30
REMARK                            x       y       z     vdW  Elec       q    Type
REMARK                         _______ _______ _______ _____ _____    ______ ____
ROOT
ATOM      1  N   UNL     1      -6.501   1.344   0.040  0.00  0.00    -0.255 N 
ATOM      2  C   UNL     1      -7.345   0.542  -0.636  0.00  0.00    +0.268 A 
ATOM      3  O   UNL     1      -8.297   1.011  -1.235  0.00  0.00    -0.267 OA
ATOM      4  C   UNL     1      -7.108  -0.868  -0.639  0.00  0.00    +0.076 A 
ATOM      5  C   UNL     1      -7.897  -1.917  -1.305  0.00  0.00    -0.023 A 
ATOM      6  C   UNL     1      -7.469  -3.182  -1.163  0.00  0.00    -0.004 A 
ATOM      7  S   UNL     1      -6.015  -3.064  -0.147  0.00  0.00    -0.073 S 
ATOM      8  C   UNL     1      -5.987  -1.306   0.082  0.00  0.00    +0.117 A 
ATOM      9  N   UNL     1      -5.188  -0.462   0.725  0.00  0.00    -0.215 NA
ATOM     10  C   UNL     1      -5.429   0.833   0.718  0.00  0.00    +0.178 A 
ATOM     11  C   UNL     1      -8.349  -4.165  -1.888  0.00  0.00    +0.043 C 
ATOM     12  C   UNL     1      -9.163  -3.300  -2.876  0.00  0.00    +0.010 C 
ATOM     13  C   UNL     1      -9.162  -1.931  -2.168  0.00  0.00    +0.037 C 
ENDROOT
BRANCH   1  17
ATOM     14  C   UNL     1      -7.166   5.461   0.066  0.00  0.00    +0.121 A 
ATOM     15  C   UNL     1      -6.380   4.892  -0.925  0.00  0.00    +0.047 A 
ATOM     16  C   UNL     1      -6.159   3.529  -0.934  0.00  0.00    +0.030 A 
ATOM     17  C   UNL     1      -6.724   2.728   0.049  0.00  0.00    +0.052 A 
ATOM     18  C   UNL     1      -7.516   3.298   1.037  0.00  0.00    +0.030 A 
ATOM     19  C   UNL     1      -7.732   4.661   1.048  0.00  0.00    +0.047 A 
BRANCH  14  20
ATOM     20  O   UNL     1      -7.383   6.803   0.074  0.00  0.00    -0.492 OA
BRANCH  20  22
ATOM     21  C   UNL     1      -8.333   8.838   0.968  0.00  0.00    +0.048 C 
ATOM     22  C   UNL     1      -8.203   7.322   1.124  0.00  0.00    +0.225 C 
ENDBRANCH  20  22
ENDBRANCH  14  20
ENDBRANCH   1  17
BRANCH  10  23
ATOM     23  S   UNL     1      -4.352   1.923   1.587  0.00  0.00    -0.078 S 
BRANCH  23  24
ATOM     24  C   UNL     1      -3.171   0.727   2.259  0.00  0.00    +0.173 C 
BRANCH  24  25
ATOM     25  C   UNL     1      -2.124   1.453   3.064  0.00  0.00    +0.230 C 
ATOM     26  O   UNL     1      -2.172   2.660   3.173  0.00  0.00    -0.274 OA
ATOM     27  N   UNL     1      -1.135   0.761   3.664  0.00  0.00    -0.254 N 
ATOM     28  H   UNL     1      -1.097  -0.204   3.577  0.00  0.00    +0.158 HD
BRANCH  27  29
ATOM     29  C   UNL     1      -0.169   1.430   4.401  0.00  0.00    +0.224 A 
ATOM     30  C   UNL     1       0.891   0.874   5.057  0.00  0.00    +0.092 A 
ATOM     31  C   UNL     1       1.550   1.979   5.635  0.00  0.00    +0.082 A 
ATOM     32  N   UNL     1       0.868   3.036   5.294  0.00  0.00    -0.081 NA
ATOM     33  O   UNL     1      -0.085   2.754   4.606  0.00  0.00    -0.339 OA
ATOM     34  C   UNL     1       2.797   1.944   6.480  0.00  0.00    +0.069 C 
ENDBRANCH  27  29
ENDBRANCH  24  25
ENDBRANCH  23  24
ENDBRANCH  10  23
TORSDOF 7
