REMARK  Name = ZINC00715196
REMARK  5 active torsions:
REMARK  status: ('A' for Active; 'I' for Inactive)
REMARK    1  A    between atoms: C_1  and  C_2
REMARK    2  A    between atoms: C_3  and  C_17
REMARK    3  A    between atoms: C_4  and  C_10
REMARK    4  A    between atoms: C_17  and  O_19
REMARK    5  A    between atoms: O_19  and  C_20
REMARK                            x       y       z     vdW  Elec       q    Type
REMARK                         _______ _______ _______ _____ _____    ______ ____
ROOT
ATOM      1  C   UNL     1      -6.666   5.241  -3.039  0.00  0.00    +0.061 C 
ATOM      2  C   UNL     1      -5.818   6.386  -2.547  0.00  0.00    +0.021 C 
ATOM      3  C   UNL     1      -4.678   6.126  -1.871  0.00  0.00    +0.078 C 
ATOM      4  C   UNL     1      -3.859   7.306  -1.389  0.00  0.00    +0.144 C 
ATOM      5  N   UNL     1      -4.371   8.649  -1.710  0.00  0.00    -0.288 N 
ATOM      6  C   UNL     1      -5.528   8.748  -2.394  0.00  0.00    +0.304 C 
ATOM      7  O   UNL     1      -5.962   9.852  -2.659  0.00  0.00    -0.252 OA
ATOM      8  N   UNL     1      -6.215   7.669  -2.792  0.00  0.00    -0.273 N 
ATOM      9  H   UNL     1      -3.890   9.443  -1.431  0.00  0.00    +0.151 HD
ATOM     10  H   UNL     1      -7.040   7.808  -3.282  0.00  0.00    +0.156 HD
ENDROOT
BRANCH   4  11
ATOM     11  C   UNL     1      -2.479   7.186  -1.980  0.00  0.00    -0.021 A 
ATOM     12  C   UNL     1      -1.441   6.682  -1.218  0.00  0.00    +0.006 A 
ATOM     13  C   UNL     1      -0.174   6.572  -1.761  0.00  0.00    +0.001 A 
ATOM     14  C   UNL     1       0.055   6.965  -3.066  0.00  0.00    +0.015 A 
ATOM     15  C   UNL     1      -0.982   7.468  -3.829  0.00  0.00    +0.018 A 
ATOM     16  C   UNL     1      -2.251   7.574  -3.287  0.00  0.00    +0.021 A 
ATOM     17 BR   UNL     1      -0.669   8.007  -5.614  0.00  0.00    -0.050 Br
ENDBRANCH   4  11
BRANCH   3  18
ATOM     18  C   UNL     1      -4.266   4.797  -1.615  0.00  0.00    +0.339 C 
ATOM     19  O   UNL     1      -4.990   3.867  -1.919  0.00  0.00    -0.245 OA
BRANCH  18  20
ATOM     20  O   UNL     1      -3.071   4.560  -1.036  0.00  0.00    -0.458 OA
BRANCH  20  21
ATOM     21  C   UNL     1      -2.720   3.194  -0.808  0.00  0.00    +0.177 C 
ATOM     22  C   UNL     1      -1.199   3.040  -0.876  0.00  0.00    +0.044 C 
ATOM     23  C   UNL     1      -0.842   1.561  -1.032  0.00  0.00    +0.004 C 
ATOM     24  C   UNL     1      -0.130   1.072   0.231  0.00  0.00    +0.000 C 
ATOM     25  C   UNL     1      -0.862   1.601   1.466  0.00  0.00    +0.000 C 
ATOM     26  C   UNL     1      -2.145   0.795   1.683  0.00  0.00    +0.000 C 
ATOM     27  C   UNL     1      -3.202   1.237   0.669  0.00  0.00    +0.004 C 
ATOM     28  C   UNL     1      -3.213   2.764   0.575  0.00  0.00    +0.044 C 
ENDBRANCH  20  21
ENDBRANCH  18  20
ENDBRANCH   3  18
TORSDOF 4
