REMARK  Name = ZINC40355125
REMARK  10 active torsions:
REMARK  status: ('A' for Active; 'I' for Inactive)
REMARK    1  A    between atoms: C_1  and  C_2
REMARK    2  A    between atoms: C_4  and  C_26
REMARK    3  A    between atoms: C_5  and  C_25
REMARK    4  A    between atoms: C_6  and  O_8
REMARK    5  A    between atoms: O_8  and  C_9
REMARK    6  A    between atoms: C_9  and  C_10
REMARK    7  A    between atoms: C_12  and  C_15
REMARK    8  A    between atoms: C_15  and  N_16
REMARK    9  A    between atoms: N_16  and  C_17
REMARK   10  A    between atoms: C_18  and  C_20
REMARK                            x       y       z     vdW  Elec       q    Type
REMARK                         _______ _______ _______ _____ _____    ______ ____
ROOT
ATOM      1  C   UNL     1      -0.160  -3.595   4.216  0.00  0.00    +0.116 A 
ATOM      2  N   UNL     1       0.920  -3.891   4.895  0.00  0.00    -0.244 NA
ATOM      3  C   UNL     1       0.850  -4.447   6.088  0.00  0.00    +0.066 A 
ATOM      4  C   UNL     1      -0.392  -4.697   6.578  0.00  0.00    +0.072 A 
ATOM      5  S   UNL     1      -1.403  -4.085   5.240  0.00  0.00    -0.077 S 
ENDROOT
BRANCH   1   6
ATOM      6  C   UNL     1      -0.265  -2.962   2.853  0.00  0.00    +0.291 C 
BRANCH   6   7
ATOM      7  O   UNL     1      -0.284  -3.984   1.854  0.00  0.00    -0.485 OA
BRANCH   7  13
ATOM      8  C   UNL     1      -0.617  -0.351  -1.388  0.00  0.00    +0.044 C 
ATOM      9  C   UNL     1      -0.540  -1.819  -1.059  0.00  0.00    -0.047 A 
ATOM     10  C   UNL     1      -0.563  -2.757  -2.075  0.00  0.00    +0.007 A 
ATOM     11  C   UNL     1      -0.492  -4.105  -1.776  0.00  0.00    -0.044 A 
ATOM     12  C   UNL     1      -0.398  -4.519  -0.461  0.00  0.00    -0.006 A 
ATOM     13  C   UNL     1      -0.375  -3.580   0.560  0.00  0.00    +0.124 A 
ATOM     14  C   UNL     1      -0.441  -2.227   0.257  0.00  0.00    +0.049 A 
ATOM     15  C   UNL     1      -0.322  -5.988  -0.136  0.00  0.00    +0.048 C 
ATOM     16  C   UNL     1      -0.517  -5.125  -2.886  0.00  0.00    +0.044 C 
ENDBRANCH   7  13
ENDBRANCH   6   7
ENDBRANCH   1   6
BRANCH   3  17
ATOM     17  C   UNL     1       2.090  -4.791   6.872  0.00  0.00    +0.163 C 
BRANCH  17  18
ATOM     18  N   UNL     1       2.583  -6.106   6.456  0.00  0.00    -0.294 N 
ATOM     19  C   UNL     1       3.544  -6.214   5.356  0.00  0.00    +0.132 C 
ATOM     20  C   UNL     1       2.151  -7.217   7.085  0.00  0.00    +0.253 C 
ATOM     21  O   UNL     1       1.276  -7.138   7.927  0.00  0.00    -0.269 OA
BRANCH  20  22
ATOM     22  C   UNL     1       2.735  -8.520   6.755  0.00  0.00    +0.074 A 
ATOM     23  C   UNL     1       2.359  -9.782   7.189  0.00  0.00    +0.021 A 
ATOM     24  C   UNL     1       3.106 -10.828   6.702  0.00  0.00    +0.008 A 
ATOM     25  C   UNL     1       4.130 -10.568   5.854  0.00  0.00    +0.046 A 
ATOM     26  S   UNL     1       4.109  -8.897   5.683  0.00  0.00    -0.092 S 
ENDBRANCH  20  22
ENDBRANCH  17  18
ENDBRANCH   3  17
TORSDOF 6
