REMARK  Name = ZINC34756230
REMARK  5 active torsions:
REMARK  status: ('A' for Active; 'I' for Inactive)
REMARK    1  A    between atoms: C_4  and  C_7
REMARK    2  A    between atoms: C_7  and  S_8
REMARK    3  A    between atoms: S_8  and  C_9
REMARK    4  A    between atoms: N_25  and  C_28
REMARK    5  A    between atoms: C_28  and  C_29
REMARK                            x       y       z     vdW  Elec       q    Type
REMARK                         _______ _______ _______ _____ _____    ______ ____
ROOT
ATOM      1  C   UNL     1       5.779  -1.878   1.477  0.00  0.00    +0.191 A 
ATOM      2  N   UNL     1       6.450  -2.258   2.558  0.00  0.00    -0.206 NA
ATOM      3  C   UNL     1       7.609  -2.892   2.480  0.00  0.00    +0.134 A 
ATOM      4  C   UNL     1       8.159  -3.178   1.199  0.00  0.00    +0.051 A 
ATOM      5  C   UNL     1       9.415  -3.859   0.874  0.00  0.00    -0.025 A 
ATOM      6  C   UNL     1       9.710  -4.006  -0.433  0.00  0.00    -0.004 A 
ATOM      7  S   UNL     1       8.357  -3.259  -1.300  0.00  0.00    -0.073 S 
ATOM      8  C   UNL     1       7.393  -2.747   0.098  0.00  0.00    +0.115 A 
ATOM      9  N   UNL     1       6.242  -2.123   0.259  0.00  0.00    -0.215 NA
ATOM     10  C   UNL     1      10.923  -4.661  -1.021  0.00  0.00    +0.043 C 
ATOM     11  C   UNL     1      11.975  -4.817   0.087  0.00  0.00    +0.005 C 
ATOM     12  C   UNL     1      11.299  -5.416   1.324  0.00  0.00    +0.005 C 
ATOM     13  C   UNL     1      10.359  -4.386   1.951  0.00  0.00    +0.037 C 
ATOM     14  N   UNL     1       8.277  -3.271   3.629  0.00  0.00    -0.318 N 
ATOM     15  C   UNL     1       9.332  -2.423   4.205  0.00  0.00    +0.088 C 
ATOM     16  C   UNL     1       9.039  -2.228   5.696  0.00  0.00    -0.059 C 
ATOM     17  N   UNL     1       8.895  -3.539   6.342  0.00  0.00    +0.384 N 
ATOM     18  C   UNL     1       7.724  -4.239   5.797  0.00  0.00    -0.059 C 
ATOM     19  C   UNL     1       7.949  -4.531   4.314  0.00  0.00    +0.088 C 
ATOM     20  H   UNL     1       9.723  -4.089   6.172  0.00  0.00    -0.081 HD
ENDROOT
BRANCH   1  21
ATOM     21  S   UNL     1       4.242  -1.038   1.665  0.00  0.00    -0.081 S 
BRANCH  21  22
ATOM     22  C   UNL     1       3.699  -0.730  -0.038  0.00  0.00    +0.112 C 
BRANCH  22  26
ATOM     23  C   UNL     1      -0.049   1.320   0.009  0.00  0.00    +0.000 A 
ATOM     24  C   UNL     1       1.132   2.039   0.009  0.00  0.00    +0.000 A 
ATOM     25  C   UNL     1       2.345   1.375  -0.006  0.00  0.00    +0.004 A 
ATOM     26  C   UNL     1       2.377  -0.007  -0.020  0.00  0.00    -0.037 A 
ATOM     27  C   UNL     1       1.196  -0.725  -0.019  0.00  0.00    +0.004 A 
ATOM     28  C   UNL     1      -0.017  -0.062  -0.006  0.00  0.00    +0.000 A 
ENDBRANCH  22  26
ENDBRANCH  21  22
ENDBRANCH   1  21
BRANCH  17  29
ATOM     29  C   UNL     1       8.722  -3.354   7.789  0.00  0.00    -0.041 C 
BRANCH  29  30
ATOM     30  C   UNL     1       8.698  -4.699   8.468  0.00  0.00    -0.046 A 
ATOM     31  C   UNL     1       7.491  -5.271   8.825  0.00  0.00    +0.003 A 
ATOM     32  C   UNL     1       7.468  -6.505   9.447  0.00  0.00    +0.000 A 
ATOM     33  C   UNL     1       8.652  -7.168   9.713  0.00  0.00    +0.001 A 
ATOM     34  C   UNL     1       9.859  -6.597   9.357  0.00  0.00    +0.020 A 
ATOM     35  C   UNL     1       9.882  -5.364   8.729  0.00  0.00    +0.042 A 
ATOM     36 CL   UNL     1      11.398  -4.649   8.275  0.00  0.00    -0.083 Cl
ENDBRANCH  29  30
ENDBRANCH  17  29
TORSDOF 5
