REMARK  Name = ZINC39910841
REMARK  7 active torsions:
REMARK  status: ('A' for Active; 'I' for Inactive)
REMARK    1  A    between atoms: C_1  and  C_2
REMARK    2  A    between atoms: C_4  and  C_29
REMARK    3  A    between atoms: N_15  and  C_26
REMARK    4  A    between atoms: C_16  and  C_18
REMARK    5  A    between atoms: C_21  and  S_24
REMARK    6  A    between atoms: S_24  and  C_25
REMARK    7  A    between atoms: C_26  and  C_27
REMARK                            x       y       z     vdW  Elec       q    Type
REMARK                         _______ _______ _______ _____ _____    ______ ____
ROOT
ATOM      1  C   UNL     1      -0.018   1.503   0.010  0.00  0.00    +0.044 C 
ATOM      2  C   UNL     1       0.002  -0.004   0.002  0.00  0.00    -0.049 A 
ATOM      3  C   UNL     1       0.006  -0.689  -1.205  0.00  0.00    +0.010 A 
ATOM      4  C   UNL     1       0.021  -2.065  -1.235  0.00  0.00    -0.007 A 
ATOM      5  C   UNL     1       0.035  -2.790  -0.043  0.00  0.00    +0.142 A 
ATOM      6  C   UNL     1       0.037  -2.086   1.172  0.00  0.00    +0.065 A 
ATOM      7  C   UNL     1       0.023  -0.692   1.183  0.00  0.00    +0.018 A 
ATOM      8  C   UNL     1       0.068  -2.849   2.446  0.00  0.00    +0.199 A 
ATOM      9  O   UNL     1      -0.097  -2.332   3.537  0.00  0.00    -0.287 OA
ATOM     10  C   UNL     1       0.314  -4.283   2.265  0.00  0.00    +0.072 A 
ATOM     11  C   UNL     1       0.294  -4.850   1.022  0.00  0.00    +0.199 A 
ATOM     12  O   UNL     1       0.043  -4.141  -0.096  0.00  0.00    -0.449 OA
ATOM     13  C   UNL     1       0.583  -6.288   1.166  0.00  0.00    +0.283 C 
ATOM     14  O   UNL     1       0.643  -7.081   0.247  0.00  0.00    -0.267 OA
ATOM     15  N   UNL     1       0.770  -6.596   2.465  0.00  0.00    -0.280 N 
ATOM     16  C   UNL     1       0.614  -5.362   3.253  0.00  0.00    +0.145 C 
ATOM     17  C   UNL     1       0.023  -2.790  -2.557  0.00  0.00    +0.047 C 
ENDROOT
BRANCH  16  18
ATOM     18  C   UNL     1       1.891  -5.051   3.990  0.00  0.00    -0.022 A 
ATOM     19  C   UNL     1       3.112  -5.281   3.383  0.00  0.00    +0.007 A 
ATOM     20  C   UNL     1       4.284  -4.997   4.056  0.00  0.00    +0.015 A 
ATOM     21  C   UNL     1       4.236  -4.481   5.345  0.00  0.00    +0.008 A 
ATOM     22  C   UNL     1       3.007  -4.251   5.952  0.00  0.00    +0.015 A 
ATOM     23  C   UNL     1       1.839  -4.532   5.271  0.00  0.00    +0.007 A 
BRANCH  21  24
ATOM     24  S   UNL     1       5.729  -4.118   6.207  0.00  0.00    -0.129 S 
ATOM     25  C   UNL     1       5.166  -3.481   7.810  0.00  0.00    +0.090 C 
ENDBRANCH  21  24
ENDBRANCH  16  18
BRANCH  15  26
ATOM     26  C   UNL     1       1.076  -7.926   2.999  0.00  0.00    +0.136 C 
BRANCH  26  27
ATOM     27  C   UNL     1       2.570  -8.117   3.045  0.00  0.00    -0.016 C 
ATOM     28  C   UNL     1       3.154  -8.448   4.170  0.00  0.00    +0.005 C 
ENDBRANCH  26  27
ENDBRANCH  15  26
TORSDOF 4
