REMARK  Name = ZINC08389750
REMARK  5 active torsions:
REMARK  status: ('A' for Active; 'I' for Inactive)
REMARK    1  A    between atoms: C_1  and  C_2
REMARK    2  A    between atoms: C_14  and  C_15
REMARK    3  A    between atoms: N_17  and  C_18
REMARK    4  A    between atoms: C_18  and  C_19
REMARK    5  A    between atoms: N_21  and  C_22
REMARK                            x       y       z     vdW  Elec       q    Type
REMARK                         _______ _______ _______ _____ _____    ______ ____
ROOT
ATOM      1  C   UNL     1       1.128   8.691  -0.004  0.00  0.00    +0.280 C 
ATOM      2  O   UNL     1       0.527   9.749   0.002  0.00  0.00    -0.267 OA
ATOM      3  N   UNL     1       2.476   8.681  -0.005  0.00  0.00    -0.300 N 
ATOM      4  H   UNL     1       2.955   7.838  -0.010  0.00  0.00    +0.150 HD
ENDROOT
BRANCH   1  18
ATOM      5  C   UNL     1      -1.968   8.434  -0.002  0.00  0.00    +0.048 C 
ATOM      6  C   UNL     1      -0.969   7.306  -0.008  0.00  0.00    +0.008 A 
ATOM      7  C   UNL     1      -1.261   5.919  -0.014  0.00  0.00    +0.024 A 
ATOM      8  C   UNL     1      -2.466   5.187  -0.016  0.00  0.00    +0.012 A 
ATOM      9  C   UNL     1      -2.453   3.833  -0.022  0.00  0.00    +0.009 A 
ATOM     10  C   UNL     1      -1.229   3.132  -0.027  0.00  0.00    -0.014 A 
ATOM     11  C   UNL     1      -1.203   1.728  -0.039  0.00  0.00    +0.008 A 
ATOM     12  C   UNL     1      -0.009   1.073  -0.038  0.00  0.00    +0.001 A 
ATOM     13  C   UNL     1       1.193   1.777  -0.036  0.00  0.00    +0.001 A 
ATOM     14  C   UNL     1       1.205   3.139  -0.029  0.00  0.00    +0.012 A 
ATOM     15  C   UNL     1      -0.006   3.846  -0.024  0.00  0.00    +0.025 A 
ATOM     16  C   UNL     1      -0.029   5.258  -0.018  0.00  0.00    +0.144 A 
ATOM     17  O   UNL     1       0.939   6.193  -0.015  0.00  0.00    -0.449 OA
ATOM     18  C   UNL     1       0.385   7.424  -0.009  0.00  0.00    +0.193 A 
ENDBRANCH   1  18
BRANCH   3  19
ATOM     19  C   UNL     1       3.218   9.945  -0.000  0.00  0.00    +0.200 C 
BRANCH  19  20
ATOM     20  C   UNL     1       4.697   9.659  -0.003  0.00  0.00    +0.234 C 
ATOM     21  O   UNL     1       5.093   8.513  -0.009  0.00  0.00    -0.274 OA
ATOM     22  N   UNL     1       5.580  10.677   0.000  0.00  0.00    -0.282 N 
ATOM     23  H   UNL     1       5.265  11.593  -0.060  0.00  0.00    +0.155 HD
BRANCH  22  24
ATOM     24  C   UNL     1       6.954  10.413   0.092  0.00  0.00    +0.072 A 
ATOM     25  C   UNL     1       7.485   9.281  -0.510  0.00  0.00    +0.029 A 
ATOM     26  C   UNL     1       8.840   9.024  -0.423  0.00  0.00    +0.043 A 
ATOM     27  C   UNL     1       9.668   9.889   0.272  0.00  0.00    +0.161 A 
ATOM     28  C   UNL     1       9.141  11.018   0.879  0.00  0.00    +0.195 A 
ATOM     29  C   UNL     1       7.784  11.282   0.790  0.00  0.00    +0.182 A 
ATOM     30  F   UNL     1       7.269  12.382   1.381  0.00  0.00    -0.200 F 
ATOM     31  F   UNL     1       9.950  11.861   1.558  0.00  0.00    -0.199 F 
ATOM     32  F   UNL     1      10.991   9.632   0.359  0.00  0.00    -0.202 F 
ENDBRANCH  22  24
ENDBRANCH  19  20
ENDBRANCH   3  19
TORSDOF 4
