REMARK  Name = ZINC14157105
REMARK  10 active torsions:
REMARK  status: ('A' for Active; 'I' for Inactive)
REMARK    1  A    between atoms: C_1  and  C_2
REMARK    2  A    between atoms: C_5  and  N_9
REMARK    3  A    between atoms: C_7  and  C_8
REMARK    4  A    between atoms: N_9  and  C_10
REMARK    5  A    between atoms: C_10  and  N_12
REMARK    6  A    between atoms: N_14  and  C_15
REMARK    7  A    between atoms: C_15  and  C_16
REMARK    8  A    between atoms: C_16  and  C_17
REMARK    9  A    between atoms: C_27  and  C_32
REMARK   10  A    between atoms: C_29  and  C_31
REMARK                            x       y       z     vdW  Elec       q    Type
REMARK                         _______ _______ _______ _____ _____    ______ ____
ROOT
ATOM      1  N   UNL     1      -4.692   3.949  -0.030  0.00  0.00    -0.159 NA
ATOM      2  C   UNL     1      -5.872   3.354   0.010  0.00  0.00    +0.195 C 
ATOM      3  N   UNL     1      -5.952   1.992  -0.026  0.00  0.00    -0.357 N 
ATOM      4  N   UNL     1      -7.014   4.105   0.089  0.00  0.00    -0.297 N 
ATOM      5  C   UNL     1      -6.933   5.490   0.127  0.00  0.00    +0.231 A 
ATOM      6  N   UNL     1      -5.743   6.069   0.090  0.00  0.00    -0.217 NA
ATOM      7  C   UNL     1      -5.631   7.387   0.119  0.00  0.00    +0.044 A 
ATOM      8  C   UNL     1      -6.777   8.162   0.199  0.00  0.00    +0.046 A 
ATOM      9  C   UNL     1      -8.007   7.523   0.241  0.00  0.00    +0.044 A 
ATOM     10  N   UNL     1      -8.048   6.201   0.203  0.00  0.00    -0.217 NA
ATOM     11  C   UNL     1      -9.280   8.324   0.328  0.00  0.00    +0.066 C 
ATOM     12  C   UNL     1      -4.272   8.038   0.072  0.00  0.00    +0.066 C 
ATOM     13  H   UNL     1      -5.142   1.458  -0.004  0.00  0.00    +0.162 HD
ATOM     14  H   UNL     1      -7.880   3.669   0.119  0.00  0.00    +0.171 HD
ENDROOT
BRANCH   1  15
ATOM     15  C   UNL     1      -3.571   3.213  -0.058  0.00  0.00    +0.161 C 
ATOM     16  S   UNL     1      -3.240   2.209  -1.404  0.00  0.00    -0.016 S 
BRANCH  15  17
ATOM     17  N   UNL     1      -2.706   3.265   0.975  0.00  0.00    -0.295 N 
ATOM     18  H   UNL     1      -2.933   3.768   1.772  0.00  0.00    +0.154 HD
BRANCH  17  23
ATOM     19  C   UNL     1       2.257   0.538   0.653  0.00  0.00    +0.044 C 
ATOM     20  C   UNL     1       0.938   1.262   0.739  0.00  0.00    -0.047 A 
ATOM     21  C   UNL     1       0.450   1.938  -0.365  0.00  0.00    +0.005 A 
ATOM     22  C   UNL     1      -0.756   2.607  -0.288  0.00  0.00    +0.023 A 
ATOM     23  C   UNL     1      -1.483   2.593   0.895  0.00  0.00    +0.033 A 
ATOM     24  C   UNL     1      -0.989   1.913   2.001  0.00  0.00    +0.027 A 
ATOM     25  C   UNL     1       0.220   1.250   1.920  0.00  0.00    -0.046 A 
ATOM     26  C   UNL     1       0.756   0.513   3.120  0.00  0.00    +0.044 C 
ENDBRANCH  17  23
ENDBRANCH  15  17
ENDBRANCH   1  15
BRANCH   3  27
ATOM     27  C   UNL     1      -7.260   1.337  -0.099  0.00  0.00    +0.120 C 
BRANCH  27  28
ATOM     28  C   UNL     1      -7.069  -0.181  -0.127  0.00  0.00    +0.056 C 
BRANCH  28  29
ATOM     29  C   UNL     1      -8.414  -0.856  -0.202  0.00  0.00    -0.046 A 
ATOM     30  C   UNL     1      -9.080  -1.199   0.960  0.00  0.00    +0.005 A 
ATOM     31  C   UNL     1     -10.317  -1.813   0.893  0.00  0.00    +0.020 A 
ATOM     32  C   UNL     1     -10.883  -2.093  -0.338  0.00  0.00    +0.041 A 
ATOM     33  C   UNL     1     -10.214  -1.754  -1.500  0.00  0.00    +0.020 A 
ATOM     34  C   UNL     1      -8.980  -1.136  -1.432  0.00  0.00    +0.005 A 
ATOM     35 CL   UNL     1     -12.434  -2.870  -0.424  0.00  0.00    -0.084 Cl
ENDBRANCH  28  29
ENDBRANCH  27  28
ENDBRANCH   3  27
TORSDOF 6
