REMARK  Name = ZINC59224240
REMARK  5 active torsions:
REMARK  status: ('A' for Active; 'I' for Inactive)
REMARK    1  A    between atoms: C_1  and  C_2
REMARK    2  A    between atoms: C_7  and  N_8
REMARK    3  A    between atoms: C_14  and  C_15
REMARK    4  A    between atoms: N_17  and  C_24
REMARK    5  A    between atoms: C_24  and  C_25
REMARK                            x       y       z     vdW  Elec       q    Type
REMARK                         _______ _______ _______ _____ _____    ______ ____
ROOT
ATOM      1  N   UNL     1      -1.033  -0.210   2.373  0.00  0.00    -0.225 NA
ATOM      2  C   UNL     1      -0.798  -0.824   3.513  0.00  0.00    +0.166 C 
ATOM      3  N   UNL     1      -0.358  -2.115   3.726  0.00  0.00    -0.260 N 
ATOM      4  C   UNL     1      -0.178  -2.559   4.958  0.00  0.00    +0.256 C 
ATOM      5  O   UNL     1       0.209  -3.696   5.161  0.00  0.00    -0.269 OA
ATOM      6  C   UNL     1      -0.449  -1.674   6.043  0.00  0.00    +0.078 C 
ATOM      7  C   UNL     1      -0.342  -1.895   7.382  0.00  0.00    +0.030 C 
ATOM      8  S   UNL     1      -0.961  -0.197   5.177  0.00  0.00    -0.049 S 
ATOM      9  H   UNL     1      -0.181  -2.697   2.970  0.00  0.00    +0.157 HD
ENDROOT
BRANCH   7  10
ATOM     10  C   UNL     1      -0.547  -0.793   8.324  0.00  0.00    +0.001 A 
ATOM     11  C   UNL     1      -0.567   0.541   8.030  0.00  0.00    +0.095 A 
ATOM     12  N   UNL     1      -0.784   1.256   9.165  0.00  0.00    -0.342 N 
ATOM     13  C   UNL     1      -0.914   0.411  10.248  0.00  0.00    +0.050 A 
ATOM     14  C   UNL     1      -0.779  -0.905   9.776  0.00  0.00    +0.007 A 
ATOM     15  C   UNL     1      -0.874  -1.977  10.660  0.00  0.00    +0.010 A 
ATOM     16  C   UNL     1      -1.103  -1.740  11.998  0.00  0.00    +0.001 A 
ATOM     17  C   UNL     1      -1.241  -0.441  12.465  0.00  0.00    +0.002 A 
ATOM     18  C   UNL     1      -1.141   0.630  11.603  0.00  0.00    +0.026 A 
BRANCH  12  19
ATOM     19  C   UNL     1      -0.867   2.717   9.229  0.00  0.00    +0.158 C 
BRANCH  19  20
ATOM     20  C   UNL     1       0.481   3.281   9.596  0.00  0.00    -0.009 A 
ATOM     21  C   UNL     1       0.777   3.564  10.916  0.00  0.00    +0.007 A 
ATOM     22  C   UNL     1       2.014   4.081  11.252  0.00  0.00    +0.000 A 
ATOM     23  C   UNL     1       2.956   4.317  10.268  0.00  0.00    +0.001 A 
ATOM     24  C   UNL     1       2.661   4.035   8.948  0.00  0.00    +0.020 A 
ATOM     25  C   UNL     1       1.425   3.511   8.611  0.00  0.00    +0.046 A 
ATOM     26 CL   UNL     1       1.057   3.150   6.954  0.00  0.00    -0.083 Cl
ENDBRANCH  19  20
ENDBRANCH  12  19
ENDBRANCH   7  10
BRANCH   1  33
ATOM     27  C   UNL     1       0.629   0.942   0.377  0.00  0.00    +0.046 C 
ATOM     28  C   UNL     1      -0.092  -0.366   0.175  0.00  0.00    -0.025 A 
ATOM     29  C   UNL     1       0.045  -1.055  -1.012  0.00  0.00    +0.007 A 
ATOM     30  C   UNL     1      -0.616  -2.256  -1.200  0.00  0.00    +0.020 A 
ATOM     31  C   UNL     1      -1.420  -2.775  -0.199  0.00  0.00    +0.043 A 
ATOM     32  C   UNL     1      -1.566  -2.096   0.994  0.00  0.00    +0.048 A 
ATOM     33  C   UNL     1      -0.897  -0.886   1.192  0.00  0.00    +0.071 A 
ATOM     34 CL   UNL     1      -2.245  -4.282  -0.444  0.00  0.00    -0.083 Cl
ENDBRANCH   1  33
TORSDOF 4
