REMARK  Name = ZINC35894887
REMARK  5 active torsions:
REMARK  status: ('A' for Active; 'I' for Inactive)
REMARK    1  A    between atoms: C_1  and  C_2
REMARK    2  A    between atoms: C_5  and  N_8
REMARK    3  A    between atoms: C_15  and  N_34
REMARK    4  A    between atoms: C_19  and  C_24
REMARK    5  A    between atoms: N_26  and  C_27
REMARK                            x       y       z     vdW  Elec       q    Type
REMARK                         _______ _______ _______ _____ _____    ______ ____
ROOT
ATOM      1  N   UNL     1      -0.187  -4.858  -0.478  0.00  0.00    -0.327 N 
ATOM      2  C   UNL     1      -0.454  -5.743  -1.605  0.00  0.00    +0.124 C 
ATOM      3  C   UNL     1      -1.601  -6.684  -1.290  0.00  0.00    +0.124 C 
ATOM      4  N   UNL     1      -1.609  -7.149   0.086  0.00  0.00    -0.323 N 
ATOM      5  C   UNL     1      -2.430  -8.251   0.408  0.00  0.00    +0.033 A 
ATOM      6  C   UNL     1      -2.822  -9.118  -0.602  0.00  0.00    +0.025 A 
ATOM      7  C   UNL     1      -3.634 -10.196  -0.307  0.00  0.00    +0.034 A 
ATOM      8  C   UNL     1      -4.053 -10.403   0.995  0.00  0.00    +0.127 A 
ATOM      9  C   UNL     1      -3.659  -9.542   2.000  0.00  0.00    +0.038 A 
ATOM     10  C   UNL     1      -2.838  -8.461   1.715  0.00  0.00    -0.023 A 
ATOM     11  C   UNL     1      -2.412  -7.563   2.847  0.00  0.00    +0.051 C 
ATOM     12  C   UNL     1      -1.865  -6.235   2.317  0.00  0.00    +0.101 C 
ATOM     13  C   UNL     1      -0.886  -6.540   1.184  0.00  0.00    +0.103 C 
ATOM     14  C   UNL     1       0.024  -5.390   0.858  0.00  0.00    +0.128 C 
ENDROOT
BRANCH   1  19
ATOM     15  C   UNL     1       0.054   0.744  -1.325  0.00  0.00    +0.044 C 
ATOM     16  C   UNL     1      -0.010  -0.745  -1.100  0.00  0.00    -0.050 A 
ATOM     17  C   UNL     1       0.072  -1.253   0.183  0.00  0.00    +0.005 A 
ATOM     18  C   UNL     1       0.013  -2.616   0.393  0.00  0.00    +0.023 A 
ATOM     19  C   UNL     1      -0.128  -3.478  -0.687  0.00  0.00    +0.030 A 
ATOM     20  C   UNL     1      -0.210  -2.965  -1.975  0.00  0.00    +0.023 A 
ATOM     21  C   UNL     1      -0.157  -1.599  -2.177  0.00  0.00    +0.005 A 
ENDBRANCH   1  19
BRANCH  12  22
ATOM     22  C   UNL     1      -2.998  -5.389   1.798  0.00  0.00    +0.222 C 
ATOM     23  O   UNL     1      -3.012  -5.041   0.636  0.00  0.00    -0.275 OA
ATOM     24  N   UNL     1      -3.997  -5.019   2.624  0.00  0.00    -0.285 N 
ATOM     25  H   UNL     1      -3.953  -5.241   3.567  0.00  0.00    +0.155 HD
BRANCH  24  26
ATOM     26  C   UNL     1      -5.097  -4.314   2.120  0.00  0.00    +0.034 A 
ATOM     27  C   UNL     1      -6.365  -4.541   2.639  0.00  0.00    +0.026 A 
ATOM     28  C   UNL     1      -7.449  -3.845   2.142  0.00  0.00    +0.040 A 
ATOM     29  C   UNL     1      -7.272  -2.921   1.125  0.00  0.00    +0.124 A 
ATOM     30  C   UNL     1      -6.008  -2.693   0.606  0.00  0.00    +0.040 A 
ATOM     31  C   UNL     1      -4.921  -3.383   1.105  0.00  0.00    +0.026 A 
ATOM     32  F   UNL     1      -8.333  -2.242   0.639  0.00  0.00    -0.205 F 
ENDBRANCH  24  26
ENDBRANCH  12  22
BRANCH   8  33
ATOM     33  N   UNL     1      -4.928 -11.554   1.313  0.00  0.00    +0.056 N 
ATOM     34  O   UNL     1      -5.275 -12.309   0.435  0.00  0.00    -0.126 OA
ATOM     35  O   UNL     1      -5.295 -11.738   2.450  0.00  0.00    -0.126 OA
ENDBRANCH   8  33
TORSDOF 4
