REMARK  Name = ZINC00871803
REMARK  7 active torsions:
REMARK  status: ('A' for Active; 'I' for Inactive)
REMARK    1  A    between atoms: C_1  and  O_2
REMARK    2  A    between atoms: O_2  and  C_3
REMARK    3  A    between atoms: C_5  and  C_13
REMARK    4  A    between atoms: C_7  and  O_11
REMARK    5  A    between atoms: C_8  and  O_9
REMARK    6  A    between atoms: O_9  and  C_10
REMARK    7  A    between atoms: O_11  and  C_12
REMARK                            x       y       z     vdW  Elec       q    Type
REMARK                         _______ _______ _______ _____ _____    ______ ____
ROOT
ATOM      1  C   UNL     1      -0.793   1.673  -1.171  0.00  0.00    +0.105 C 
ATOM      2  C   UNL     1      -0.013   1.086   0.008  0.00  0.00    +0.029 C 
ATOM      3  C   UNL     1       1.409   1.714  -0.002  0.00  0.00    +0.033 C 
ATOM      4  C   UNL     1       1.215   3.042   0.703  0.00  0.00    -0.030 C 
ATOM      5  C   UNL     1       0.134   3.017   1.441  0.00  0.00    -0.023 C 
ATOM      6  C   UNL     1      -0.552   1.675   1.329  0.00  0.00    +0.049 C 
ATOM      7  C   UNL     1      -2.043   1.846   1.290  0.00  0.00    -0.019 A 
ATOM      8  C   UNL     1      -2.684   2.217   2.479  0.00  0.00    +0.006 A 
ATOM      9  C   UNL     1      -4.029   2.397   2.541  0.00  0.00    +0.009 A 
ATOM     10  C   UNL     1      -4.813   2.213   1.390  0.00  0.00    -0.016 A 
ATOM     11  C   UNL     1      -6.206   2.393   1.417  0.00  0.00    +0.008 A 
ATOM     12  C   UNL     1      -6.930   2.207   0.280  0.00  0.00    +0.001 A 
ATOM     13  C   UNL     1      -6.310   1.838  -0.912  0.00  0.00    +0.001 A 
ATOM     14  C   UNL     1      -4.962   1.654  -0.974  0.00  0.00    +0.010 A 
ATOM     15  C   UNL     1      -4.184   1.839   0.180  0.00  0.00    +0.003 A 
ATOM     16  C   UNL     1      -2.779   1.654   0.146  0.00  0.00    +0.039 A 
ATOM     17  N   UNL     1      -2.200   1.277  -1.061  0.00  0.00    -0.336 N 
ATOM     18  H   UNL     1      -2.296   0.284  -1.214  0.00  0.00    +0.147 HD
ENDROOT
BRANCH   1  21
ATOM     19  C   UNL     1       1.196   1.507  -4.380  0.00  0.00    +0.165 A 
ATOM     20  C   UNL     1       0.656   1.968  -3.189  0.00  0.00    +0.055 A 
ATOM     21  C   UNL     1      -0.207   1.168  -2.464  0.00  0.00    -0.020 A 
ATOM     22  C   UNL     1      -0.529  -0.097  -2.919  0.00  0.00    +0.055 A 
ATOM     23  C   UNL     1       0.003  -0.564  -4.111  0.00  0.00    +0.165 A 
ATOM     24  C   UNL     1       0.870   0.238  -4.843  0.00  0.00    +0.204 A 
BRANCH  19  26
ATOM     25  C   UNL     1       2.336   3.587  -4.556  0.00  0.00    +0.277 C 
ATOM     26  O   UNL     1       2.045   2.295  -5.093  0.00  0.00    -0.491 OA
ENDBRANCH  19  26
BRANCH  24  27
ATOM     27  O   UNL     1       1.399  -0.218  -6.012  0.00  0.00    -0.488 OA
ATOM     28  C   UNL     1       2.639  -0.922  -5.931  0.00  0.00    +0.277 C 
ENDBRANCH  24  27
BRANCH  23  29
ATOM     29  O   UNL     1      -0.319  -1.806  -4.560  0.00  0.00    -0.491 OA
ATOM     30  C   UNL     1      -1.216  -2.575  -3.756  0.00  0.00    +0.277 C 
ENDBRANCH  23  29
ENDBRANCH   1  21
TORSDOF 4
