REMARK  Name = ZINC36309386
REMARK  15 active torsions:
REMARK  status: ('A' for Active; 'I' for Inactive)
REMARK    1  A    between atoms: C_1  and  C_2
REMARK    2  A    between atoms: C_2  and  N_3
REMARK    3  A    between atoms: N_3  and  C_4
REMARK    4  A    between atoms: N_3  and  C_12
REMARK    5  A    between atoms: C_4  and  C_5
REMARK    6  A    between atoms: C_5  and  C_7
REMARK    7  A    between atoms: C_5  and  O_11
REMARK    8  A    between atoms: C_7  and  C_8
REMARK    9  A    between atoms: C_8  and  C_9
REMARK   10  A    between atoms: C_12  and  C_13
REMARK   11  A    between atoms: C_23  and  C_25
REMARK   12  A    between atoms: C_25  and  O_26
REMARK   13  A    between atoms: O_26  and  C_27
REMARK   14  A    between atoms: C_30  and  C_34
REMARK   15  A    between atoms: C_32  and  C_33
REMARK                            x       y       z     vdW  Elec       q    Type
REMARK                         _______ _______ _______ _____ _____    ______ ____
ROOT
ATOM      1  C   UNL     1      -0.750  -2.240   1.729  0.00  0.00    +0.200 C 
ATOM      2  O   UNL     1      -0.287  -1.327   2.380  0.00  0.00    -0.278 OA
ATOM      3  N   UNL     1      -0.671  -3.504   2.190  0.00  0.00    -0.292 N 
ATOM      4  C   UNL     1      -1.223  -4.619   1.406  0.00  0.00    +0.113 C 
ATOM      5  C   UNL     1      -0.062  -5.533   0.985  0.00  0.00    +0.061 C 
ATOM      6  C   UNL     1       0.854  -5.712   2.151  0.00  0.00    -0.004 A 
ATOM      7  C   UNL     1       0.918  -4.965   3.287  0.00  0.00    -0.014 A 
ATOM      8  C   UNL     1       1.876  -5.338   4.228  0.00  0.00    +0.013 A 
ATOM      9  C   UNL     1       2.680  -6.400   3.991  0.00  0.00    +0.046 A 
ATOM     10  S   UNL     1       2.112  -6.941   2.386  0.00  0.00    -0.101 S 
ATOM     11  C   UNL     1      -0.029  -3.788   3.480  0.00  0.00    +0.144 C 
ENDROOT
BRANCH   1  12
ATOM     12  C   UNL     1      -1.411  -1.961   0.404  0.00  0.00    +0.019 C 
BRANCH  12  13
ATOM     13  N   UNL     1      -1.368  -0.519   0.129  0.00  0.00    +0.387 N 
ATOM     14  H   UNL     1      -1.783  -0.017   0.900  0.00  0.00    -0.081 HD
BRANCH  13  16
ATOM     15  C   UNL     1       0.085   1.429  -0.178  0.00  0.00    -0.017 C 
ATOM     16  C   UNL     1       0.029  -0.093  -0.036  0.00  0.00    -0.081 C 
ENDBRANCH  13  16
BRANCH  13  17
ATOM     17  C   UNL     1      -2.116  -0.232  -1.102  0.00  0.00    -0.047 C 
BRANCH  17  18
ATOM     18  C   UNL     1      -3.600  -0.533  -0.879  0.00  0.00    +0.098 C 
BRANCH  18  19
ATOM     19  O   UNL     1      -4.099   0.290   0.177  0.00  0.00    -0.394 OA
ATOM     20  H   UNL     1      -4.093   1.235  -0.025  0.00  0.00    +0.210 HD
ENDBRANCH  18  19
BRANCH  18  21
ATOM     21  C   UNL     1      -4.378  -0.243  -2.164  0.00  0.00    +0.033 C 
BRANCH  21  22
ATOM     22  C   UNL     1      -5.838  -0.661  -1.981  0.00  0.00    +0.029 C 
BRANCH  22  23
ATOM     23  C   UNL     1      -6.605  -0.375  -3.246  0.00  0.00    -0.034 C 
ATOM     24  C   UNL     1      -7.276  -1.333  -3.837  0.00  0.00    +0.004 C 
ENDBRANCH  22  23
ENDBRANCH  21  22
ENDBRANCH  18  21
ENDBRANCH  17  18
ENDBRANCH  13  17
ENDBRANCH  12  13
ENDBRANCH   1  12
BRANCH  11  25
ATOM     25  C   UNL     1      -1.091  -4.149   4.520  0.00  0.00    +0.256 C 
BRANCH  25  26
ATOM     26  O   UNL     1      -1.731  -5.370   4.144  0.00  0.00    -0.490 OA
BRANCH  26  27
ATOM     27  C   UNL     1      -2.707  -5.835   4.967  0.00  0.00    +0.124 A 
ATOM     28  C   UNL     1      -3.047  -5.127   6.110  0.00  0.00    +0.046 A 
ATOM     29  C   UNL     1      -4.040  -5.601   6.945  0.00  0.00    +0.007 A 
ATOM     30  C   UNL     1      -4.695  -6.780   6.642  0.00  0.00    -0.050 A 
ATOM     31  C   UNL     1      -4.358  -7.488   5.503  0.00  0.00    +0.010 A 
ATOM     32  C   UNL     1      -3.369  -7.015   4.662  0.00  0.00    -0.009 A 
ATOM     33  C   UNL     1      -3.006  -7.784   3.418  0.00  0.00    +0.047 C 
ATOM     34  C   UNL     1      -5.779  -7.295   7.554  0.00  0.00    +0.044 C 
ENDBRANCH  26  27
ENDBRANCH  25  26
ENDBRANCH  11  25
TORSDOF 12
