REMARK  Name = ZINC59105700
REMARK  8 active torsions:
REMARK  status: ('A' for Active; 'I' for Inactive)
REMARK    1  A    between atoms: C_1  and  C_2
REMARK    2  A    between atoms: C_2  and  N_3
REMARK    3  A    between atoms: N_3  and  C_4
REMARK    4  A    between atoms: N_3  and  C_6
REMARK    5  A    between atoms: C_4  and  C_5
REMARK    6  A    between atoms: C_9  and  C_13
REMARK    7  A    between atoms: C_10  and  O_12
REMARK    8  A    between atoms: N_19  and  C_20
REMARK                            x       y       z     vdW  Elec       q    Type
REMARK                         _______ _______ _______ _____ _____    ______ ____
ROOT
ATOM      1  C   UNL     1      -2.261  -1.421  -5.905  0.00  0.00    +0.031 C 
ATOM      2  C   UNL     1      -3.434  -0.766  -6.111  0.00  0.00    +0.078 C 
ATOM      3  C   UNL     1      -4.064   0.297  -5.309  0.00  0.00    +0.256 C 
ATOM      4  O   UNL     1      -3.541   0.724  -4.296  0.00  0.00    -0.269 OA
ATOM      5  N   UNL     1      -5.222   0.768  -5.739  0.00  0.00    -0.260 N 
ATOM      6  C   UNL     1      -5.798   0.273  -6.889  0.00  0.00    +0.166 C 
ATOM      7  N   UNL     1      -6.933   0.624  -7.452  0.00  0.00    -0.226 NA
ATOM      8  S   UNL     1      -4.622  -0.957  -7.432  0.00  0.00    -0.049 S 
ATOM      9  H   UNL     1      -5.670   1.469  -5.241  0.00  0.00    +0.157 HD
ENDROOT
BRANCH   7  10
ATOM     10  C   UNL     1      -7.343   0.010  -8.605  0.00  0.00    +0.067 A 
ATOM     11  C   UNL     1      -6.438  -0.202  -9.646  0.00  0.00    +0.030 A 
ATOM     12  C   UNL     1      -6.857  -0.821 -10.806  0.00  0.00    +0.040 A 
ATOM     13  C   UNL     1      -8.174  -1.231 -10.938  0.00  0.00    +0.124 A 
ATOM     14  C   UNL     1      -9.077  -1.022  -9.908  0.00  0.00    +0.040 A 
ATOM     15  C   UNL     1      -8.668  -0.410  -8.742  0.00  0.00    +0.030 A 
ATOM     16  F   UNL     1      -8.580  -1.835 -12.076  0.00  0.00    -0.205 F 
ENDBRANCH   7  10
BRANCH   1  20
ATOM     17  C   UNL     1      -0.121  -0.843  -2.293  0.00  0.00    +0.033 A 
ATOM     18  C   UNL     1      -1.508  -0.974  -2.273  0.00  0.00    +0.024 A 
ATOM     19  C   UNL     1      -2.201  -1.159  -3.434  0.00  0.00    +0.013 A 
ATOM     20  C   UNL     1      -1.519  -1.221  -4.657  0.00  0.00    +0.018 A 
ATOM     21  C   UNL     1      -0.119  -1.089  -4.681  0.00  0.00    +0.126 A 
ATOM     22  C   UNL     1       0.570  -0.896  -3.498  0.00  0.00    +0.069 A 
BRANCH  21  23
ATOM     23  O   UNL     1       0.551  -1.148  -5.860  0.00  0.00    -0.506 OA
ATOM     24  H   UNL     1       0.662  -0.290  -6.292  0.00  0.00    +0.292 HD
ENDBRANCH  21  23
BRANCH  17  25
ATOM     25  N   UNL     1       0.575  -0.653  -1.103  0.00  0.00    -0.330 N 
BRANCH  25  27
ATOM     26  C   UNL     1      -0.546   0.851   0.467  0.00  0.00    +0.024 C 
ATOM     27  C   UNL     1      -0.151  -0.597   0.169  0.00  0.00    +0.102 C 
ENDBRANCH  25  27
BRANCH  25  28
ATOM     28  C   UNL     1       2.032  -0.509  -1.121  0.00  0.00    +0.102 C 
ATOM     29  C   UNL     1       2.683  -1.887  -0.983  0.00  0.00    +0.024 C 
ENDBRANCH  25  28
ENDBRANCH  17  25
ENDBRANCH   1  20
TORSDOF 6
