REMARK  Name = ZINC13998233
REMARK  5 active torsions:
REMARK  status: ('A' for Active; 'I' for Inactive)
REMARK    1  A    between atoms: C_6  and  C_11
REMARK    2  A    between atoms: C_11  and  C_13
REMARK    3  A    between atoms: C_11  and  O_34
REMARK    4  A    between atoms: C_13  and  N_62
REMARK    5  A    between atoms: C_20  and  O_33
REMARK                            x       y       z     vdW  Elec       q    Type
REMARK                         _______ _______ _______ _____ _____    ______ ____
ROOT
ATOM      1  C   UNL     1      -4.801   2.716   2.661  0.00  0.00    -0.075 C 
ATOM      2  C   UNL     1      -4.813   4.055   1.918  0.00  0.00    +0.029 C 
ATOM      3  C   UNL     1      -4.812   3.796   0.411  0.00  0.00    +0.110 C 
ATOM      4  C   UNL     1      -6.020   2.931   0.041  0.00  0.00    +0.029 C 
ATOM      5  C   UNL     1      -5.971   1.627   0.841  0.00  0.00    -0.075 C 
ATOM      6  C   UNL     1      -4.890   5.129  -0.340  0.00  0.00    +0.084 C 
ATOM      7  C   UNL     1      -3.719   6.004   0.112  0.00  0.00    +0.152 C 
ATOM      8  C   UNL     1      -2.438   5.206   0.073  0.00  0.00    +0.023 A 
ATOM      9  C   UNL     1      -1.226   5.903   0.069  0.00  0.00    +0.010 A 
ATOM     10  C   UNL     1      -0.033   5.253   0.043  0.00  0.00    +0.009 A 
ATOM     11  C   UNL     1      -0.006   3.848   0.028  0.00  0.00    -0.014 A 
ATOM     12  C   UNL     1       1.207   3.140   0.009  0.00  0.00    +0.008 A 
ATOM     13  C   UNL     1       1.191   1.779   0.000  0.00  0.00    +0.001 A 
ATOM     14  C   UNL     1      -0.013   1.076   0.008  0.00  0.00    +0.001 A 
ATOM     15  C   UNL     1      -1.206   1.730   0.017  0.00  0.00    +0.012 A 
ATOM     16  C   UNL     1      -1.228   3.135   0.032  0.00  0.00    +0.024 A 
ATOM     17  C   UNL     1      -2.452   3.843   0.047  0.00  0.00    +0.135 A 
ATOM     18  O   UNL     1      -3.608   3.131   0.033  0.00  0.00    -0.485 OA
ATOM     19  N   UNL     1      -6.004   1.946   2.284  0.00  0.00    +0.382 N 
ATOM     20  H   UNL     1      -6.838   2.513   2.480  0.00  0.00    -0.082 HD
ENDROOT
BRANCH   7  21
ATOM     21  O   UNL     1      -3.603   7.130  -0.760  0.00  0.00    -0.387 OA
ATOM     22  H   UNL     1      -2.883   7.733  -0.530  0.00  0.00    +0.210 HD
ENDBRANCH   7  21
BRANCH  19  23
ATOM     23  C   UNL     1      -6.074   0.701   3.075  0.00  0.00    -0.042 C 
BRANCH  23  24
ATOM     24  C   UNL     1      -7.157  -0.206   2.487  0.00  0.00    +0.128 C 
BRANCH  24  30
ATOM     25  C   UNL     1      -6.862  -6.055   5.210  0.00  0.00    +0.001 A 
ATOM     26  C   UNL     1      -6.070  -6.040   4.063  0.00  0.00    +0.001 A 
ATOM     27  C   UNL     1      -5.961  -4.917   3.301  0.00  0.00    +0.008 A 
ATOM     28  C   UNL     1      -6.656  -3.754   3.674  0.00  0.00    -0.018 A 
ATOM     29  C   UNL     1      -6.568  -2.576   2.913  0.00  0.00    +0.014 A 
ATOM     30  C   UNL     1      -7.255  -1.468   3.305  0.00  0.00    -0.020 A 
ATOM     31  C   UNL     1      -8.042  -1.482   4.455  0.00  0.00    +0.007 A 
ATOM     32  C   UNL     1      -8.156  -2.606   5.213  0.00  0.00    +0.009 A 
ATOM     33  C   UNL     1      -7.461  -3.769   4.840  0.00  0.00    -0.018 A 
ATOM     34  C   UNL     1      -7.548  -4.947   5.602  0.00  0.00    +0.008 A 
ENDBRANCH  24  30
BRANCH  24  35
ATOM     35  O   UNL     1      -8.414   0.475   2.511  0.00  0.00    -0.389 OA
ATOM     36  H   UNL     1      -8.705   0.731   3.397  0.00  0.00    +0.210 HD
ENDBRANCH  24  35
ENDBRANCH  23  24
ENDBRANCH  19  23
TORSDOF 5
