REMARK  Name = ZINC66187771
REMARK  5 active torsions:
REMARK  status: ('A' for Active; 'I' for Inactive)
REMARK    1  A    between atoms: C_1  and  N_2
REMARK    2  A    between atoms: N_2  and  C_3
REMARK    3  A    between atoms: N_17  and  C_18
REMARK    4  A    between atoms: C_18  and  C_19
REMARK    5  A    between atoms: C_19  and  N_20
REMARK                            x       y       z     vdW  Elec       q    Type
REMARK                         _______ _______ _______ _____ _____    ______ ____
ROOT
ATOM      1  C   UNL     1      -0.096   1.459   0.011  0.00  0.00    +0.134 C 
ATOM      2  N   UNL     1      -0.046  -0.005   0.003  0.00  0.00    -0.286 N 
ATOM      3  C   UNL     1      -0.042  -0.673  -1.168  0.00  0.00    +0.302 C 
ATOM      4  O   UNL     1       0.000  -1.888  -1.175  0.00  0.00    -0.253 OA
ATOM      5  N   UNL     1      -0.084   0.007  -2.331  0.00  0.00    -0.301 N 
ATOM      6  H   UNL     1      -0.118   0.976  -2.326  0.00  0.00    +0.150 HD
ENDROOT
BRANCH   2   7
ATOM      7  C   UNL     1       0.001  -0.744   1.267  0.00  0.00    +0.080 C 
ATOM      8  C   UNL     1       1.251  -0.336   2.050  0.00  0.00    +0.041 C 
ATOM      9  C   UNL     1       1.314  -1.136   3.355  0.00  0.00    +0.108 C 
ATOM     10  N   UNL     1       0.054  -0.946   4.088  0.00  0.00    -0.317 N 
ATOM     11  C   UNL     1      -1.213  -1.222   3.397  0.00  0.00    +0.108 C 
ATOM     12  C   UNL     1      -1.248  -0.422   2.092  0.00  0.00    +0.041 C 
ATOM     13  C   UNL     1       0.062  -0.513   5.409  0.00  0.00    +0.099 A 
ATOM     14  C   UNL     1       1.271  -0.378   6.083  0.00  0.00    +0.042 A 
ATOM     15  C   UNL     1       1.264   0.053   7.397  0.00  0.00    +0.005 A 
ATOM     16  C   UNL     1       0.042   0.336   7.995  0.00  0.00    +0.018 A 
ATOM     17  C   UNL     1      -1.119   0.179   7.267  0.00  0.00    +0.084 A 
ATOM     18  N   UNL     1      -1.082  -0.229   6.012  0.00  0.00    -0.350 N 
ATOM     19  H   UNL     1      -1.913  -0.327   5.521  0.00  0.00    +0.166 HD
ENDBRANCH   2   7
BRANCH   5  20
ATOM     20  C   UNL     1      -0.080  -0.719  -3.604  0.00  0.00    +0.087 C 
BRANCH  20  21
ATOM     21  C   UNL     1      -0.133   0.281  -4.761  0.00  0.00    -0.059 C 
BRANCH  21  22
ATOM     22  N   UNL     1      -0.129  -0.446  -6.037  0.00  0.00    +0.384 N 
ATOM     23  C   UNL     1      -0.027   0.517  -7.142  0.00  0.00    -0.073 C 
ATOM     24  C   UNL     1       0.309  -0.245  -8.436  0.00  0.00    +0.024 C 
ATOM     25  C   UNL     1      -0.612  -1.417  -8.521  0.00  0.00    -0.011 A 
ATOM     26  C   UNL     1      -1.393  -1.907  -7.517  0.00  0.00    -0.054 A 
ATOM     27  C   UNL     1      -2.182  -3.012  -7.825  0.00  0.00    +0.009 A 
ATOM     28  C   UNL     1      -2.143  -3.546  -9.069  0.00  0.00    +0.045 A 
ATOM     29  S   UNL     1      -0.960  -2.486  -9.888  0.00  0.00    -0.101 S 
ATOM     30  C   UNL     1      -1.361  -1.237  -6.146  0.00  0.00    -0.042 C 
ATOM     31  H   UNL     1       0.667  -1.066  -6.064  0.00  0.00    -0.081 HD
ENDBRANCH  21  22
ENDBRANCH  20  21
ENDBRANCH   5  20
TORSDOF 4
