REMARK  Name = ZINC16319470
REMARK  8 active torsions:
REMARK  status: ('A' for Active; 'I' for Inactive)
REMARK    1  A    between atoms: C_4  and  C_7
REMARK    2  A    between atoms: N_8  and  C_9
REMARK    3  A    between atoms: C_9  and  C_10
REMARK    4  A    between atoms: C_13  and  N_16
REMARK    5  A    between atoms: N_19  and  C_20
REMARK    6  A    between atoms: C_20  and  N_22
REMARK    7  A    between atoms: N_22  and  C_23
REMARK    8  A    between atoms: N_22  and  C_29
REMARK                            x       y       z     vdW  Elec       q    Type
REMARK                         _______ _______ _______ _____ _____    ______ ____
ROOT
ATOM      1  C   UNL     1       1.627   3.615  -0.408  0.00  0.00    +0.097 C 
ATOM      2  N   UNL     1       2.111   2.613  -1.082  0.00  0.00    -0.328 N 
ATOM      3  N   UNL     1       2.356   4.784  -0.287  0.00  0.00    -0.284 N 
ATOM      4  H   UNL     1       1.511   1.701  -1.218  0.00  0.00    +0.148 HD
ATOM      5  H   UNL     1       3.449   4.740  -0.172  0.00  0.00    +0.155 HD
ENDROOT
BRANCH   1   9
ATOM      6  C   UNL     1      -2.197   3.300   1.419  0.00  0.00    +0.000 A 
ATOM      7  C   UNL     1      -1.825   2.396   0.441  0.00  0.00    +0.001 A 
ATOM      8  C   UNL     1      -0.585   2.495  -0.158  0.00  0.00    +0.011 A 
ATOM      9  C   UNL     1       0.295   3.505   0.230  0.00  0.00    +0.011 A 
ATOM     10  C   UNL     1      -0.084   4.409   1.222  0.00  0.00    +0.011 A 
ATOM     11  C   UNL     1      -1.326   4.301   1.812  0.00  0.00    +0.001 A 
ENDBRANCH   1   9
BRANCH   3  12
ATOM     12  C   UNL     1       1.727   5.976  -0.310  0.00  0.00    +0.147 C 
ATOM     13  S   UNL     1       0.050   6.053  -0.644  0.00  0.00    -0.018 S 
BRANCH  12  14
ATOM     14  N   UNL     1       2.419   7.107  -0.070  0.00  0.00    -0.251 N 
BRANCH  14  15
ATOM     15  C   UNL     1       1.749   8.333   0.017  0.00  0.00    +0.040 A 
ATOM     16  C   UNL     1       1.167   8.889  -1.115  0.00  0.00    +0.024 A 
ATOM     17  C   UNL     1       0.502  10.097  -1.025  0.00  0.00    +0.002 A 
ATOM     18  C   UNL     1       0.424  10.756   0.188  0.00  0.00    +0.000 A 
ATOM     19  C   UNL     1       1.006  10.206   1.316  0.00  0.00    +0.002 A 
ATOM     20  C   UNL     1       1.668   8.997   1.234  0.00  0.00    +0.024 A 
ENDBRANCH  14  15
BRANCH  14  21
ATOM     21  C   UNL     1       3.809   7.057   0.092  0.00  0.00    +0.040 A 
ATOM     22  C   UNL     1       4.356   6.457   1.218  0.00  0.00    +0.024 A 
ATOM     23  C   UNL     1       5.728   6.404   1.373  0.00  0.00    +0.002 A 
ATOM     24  C   UNL     1       6.555   6.958   0.413  0.00  0.00    +0.000 A 
ATOM     25  C   UNL     1       6.013   7.561  -0.707  0.00  0.00    +0.002 A 
ATOM     26  C   UNL     1       4.642   7.612  -0.870  0.00  0.00    +0.024 A 
ENDBRANCH  14  21
ENDBRANCH  12  14
ENDBRANCH   3  12
BRANCH   2  27
ATOM     27  C   UNL     1       3.454   2.699  -1.659  0.00  0.00    +0.138 C 
BRANCH  27  28
ATOM     28  C   UNL     1       4.351   1.684  -0.997  0.00  0.00    -0.030 A 
ATOM     29  C   UNL     1       4.993   1.997   0.187  0.00  0.00    +0.007 A 
ATOM     30  C   UNL     1       5.812   1.065   0.796  0.00  0.00    +0.033 A 
ATOM     31  C   UNL     1       5.997  -0.176   0.217  0.00  0.00    +0.126 A 
ATOM     32  C   UNL     1       5.359  -0.487  -0.969  0.00  0.00    +0.033 A 
ATOM     33  C   UNL     1       4.536   0.443  -1.576  0.00  0.00    +0.007 A 
BRANCH  31  34
ATOM     34  N   UNL     1       6.877  -1.172   0.867  0.00  0.00    +0.056 N 
ATOM     35  O   UNL     1       7.040  -2.267   0.357  0.00  0.00    -0.126 OA
ATOM     36  O   UNL     1       7.440  -0.898   1.912  0.00  0.00    -0.126 OA
ENDBRANCH  31  34
ENDBRANCH  27  28
ENDBRANCH   2  27
TORSDOF 8
