REMARK  Name = ZINC01830375
REMARK  7 active torsions:
REMARK  status: ('A' for Active; 'I' for Inactive)
REMARK    1  A    between atoms: C_1  and  C_2
REMARK    2  A    between atoms: C_2  and  O_3
REMARK    3  A    between atoms: O_3  and  C_4
REMARK    4  A    between atoms: C_6  and  C_11
REMARK    5  A    between atoms: C_9  and  O_10
REMARK    6  A    between atoms: N_17  and  C_18
REMARK    7  A    between atoms: C_23  and  C_24
REMARK                            x       y       z     vdW  Elec       q    Type
REMARK                         _______ _______ _______ _____ _____    ______ ____
ROOT
ATOM      1  C   UNL     1       1.524  -4.118   0.320  0.00  0.00    +0.028 C 
ATOM      2  C   UNL     1       1.937  -2.856   0.603  0.00  0.00    +0.078 C 
ATOM      3  C   UNL     1       3.286  -2.366   0.945  0.00  0.00    +0.256 C 
ATOM      4  O   UNL     1       4.239  -3.121   1.011  0.00  0.00    -0.269 OA
ATOM      5  N   UNL     1       3.413  -1.071   1.178  0.00  0.00    -0.260 N 
ATOM      6  C   UNL     1       2.321  -0.233   1.099  0.00  0.00    +0.166 C 
ATOM      7  N   UNL     1       2.272   1.065   1.299  0.00  0.00    -0.225 NA
ATOM      8  S   UNL     1       0.990  -1.342   0.668  0.00  0.00    -0.049 S 
ATOM      9  H   UNL     1       4.282  -0.707   1.406  0.00  0.00    +0.157 HD
ENDROOT
BRANCH   7  10
ATOM     10  C   UNL     1       1.085   1.733   1.161  0.00  0.00    +0.078 A 
ATOM     11  C   UNL     1       0.311   1.559   0.012  0.00  0.00    +0.030 A 
ATOM     12  C   UNL     1      -0.880   2.240  -0.124  0.00  0.00    +0.022 A 
ATOM     13  C   UNL     1      -1.315   3.087   0.882  0.00  0.00    +0.042 A 
ATOM     14  C   UNL     1      -0.552   3.265   2.023  0.00  0.00    +0.034 A 
ATOM     15  C   UNL     1       0.644   2.594   2.169  0.00  0.00    +0.082 A 
ATOM     16 CL   UNL     1      -2.819   3.936   0.707  0.00  0.00    -0.084 Cl
BRANCH  15  17
ATOM     17  C   UNL     1       1.473   2.788   3.412  0.00  0.00    +0.419 C 
ATOM     18  F   UNL     1       0.828   3.689   4.266  0.00  0.00    -0.166 F 
ATOM     19  F   UNL     1       1.633   1.560   4.063  0.00  0.00    -0.166 F 
ATOM     20  F   UNL     1       2.728   3.297   3.061  0.00  0.00    -0.166 F 
ENDBRANCH  15  17
ENDBRANCH   7  10
BRANCH   1  23
ATOM     21  C   UNL     1      -1.676  -5.849  -0.589  0.00  0.00    +0.162 A 
ATOM     22  C   UNL     1      -0.328  -5.580  -0.463  0.00  0.00    +0.057 A 
ATOM     23  C   UNL     1       0.092  -4.408   0.179  0.00  0.00    -0.020 A 
ATOM     24  C   UNL     1      -0.859  -3.511   0.680  0.00  0.00    +0.012 A 
ATOM     25  C   UNL     1      -2.203  -3.786   0.546  0.00  0.00    +0.050 A 
ATOM     26  C   UNL     1      -2.617  -4.951  -0.086  0.00  0.00    +0.158 A 
BRANCH  26  27
ATOM     27  O   UNL     1      -3.943  -5.216  -0.215  0.00  0.00    -0.503 OA
ATOM     28  H   UNL     1      -4.336  -4.869  -1.028  0.00  0.00    +0.292 HD
ENDBRANCH  26  27
BRANCH  21  29
ATOM     29  O   UNL     1      -2.087  -6.988  -1.208  0.00  0.00    -0.489 OA
BRANCH  29  31
ATOM     30  C   UNL     1      -1.719  -9.081  -2.358  0.00  0.00    +0.048 C 
ATOM     31  C   UNL     1      -1.070  -7.863  -1.698  0.00  0.00    +0.226 C 
ENDBRANCH  29  31
ENDBRANCH  21  29
ENDBRANCH   1  23
TORSDOF 6
