REMARK  Name = ZINC48892427
REMARK  5 active torsions:
REMARK  status: ('A' for Active; 'I' for Inactive)
REMARK    1  A    between atoms: C_1  and  N_2
REMARK    2  A    between atoms: N_2  and  C_3
REMARK    3  A    between atoms: C_3  and  C_4
REMARK    4  A    between atoms: C_12  and  C_18
REMARK    5  A    between atoms: C_14  and  N_17
REMARK                            x       y       z     vdW  Elec       q    Type
REMARK                         _______ _______ _______ _____ _____    ______ ____
ROOT
ATOM      1  C   UNL     1       0.044   1.624   0.426  0.00  0.00    +0.131 C 
ATOM      2  N   UNL     1       0.022   0.191   0.126  0.00  0.00    -0.313 N 
ATOM      3  C   UNL     1      -0.111  -0.240  -1.184  0.00  0.00    +0.134 A 
ATOM      4  C   UNL     1       1.035  -0.560  -1.932  0.00  0.00    +0.078 A 
ATOM      5  C   UNL     1       0.879  -0.994  -3.253  0.00  0.00    +0.040 A 
ATOM      6  C   UNL     1      -0.408  -1.089  -3.768  0.00  0.00    +0.044 A 
ATOM      7  C   UNL     1      -1.490  -0.754  -2.964  0.00  0.00    +0.135 A 
ATOM      8  N   UNL     1      -1.316  -0.353  -1.720  0.00  0.00    -0.238 NA
ENDROOT
BRANCH   4   9
ATOM      9  C   UNL     1       2.377  -0.441  -1.335  0.00  0.00    +0.245 C 
ATOM     10  O   UNL     1       2.497  -0.152  -0.160  0.00  0.00    -0.270 OA
ATOM     11  N   UNL     1       3.473  -0.653  -2.091  0.00  0.00    -0.325 N 
ATOM     12  H   UNL     1       3.377  -0.884  -3.029  0.00  0.00    +0.145 HD
ATOM     13  H   UNL     1       4.356  -0.575  -1.699  0.00  0.00    +0.145 HD
ENDBRANCH   4   9
BRANCH   6  14
ATOM     14  N   UNL     1      -0.612  -1.518  -5.086  0.00  0.00    -0.357 N 
ATOM     15  H   UNL     1       0.147  -1.750  -5.644  0.00  0.00    +0.142 HD
ATOM     16  H   UNL     1      -1.513  -1.582  -5.441  0.00  0.00    +0.142 HD
ENDBRANCH   6  14
BRANCH   2  17
ATOM     17  C   UNL     1       0.140  -0.787   1.210  0.00  0.00    +0.142 C 
BRANCH  17  18
ATOM     18  C   UNL     1      -1.236  -1.214   1.653  0.00  0.00    -0.016 A 
ATOM     19  C   UNL     1      -1.838  -0.594   2.732  0.00  0.00    +0.006 A 
ATOM     20  C   UNL     1      -3.100  -0.986   3.138  0.00  0.00    +0.000 A 
ATOM     21  C   UNL     1      -3.760  -1.998   2.466  0.00  0.00    +0.001 A 
ATOM     22  C   UNL     1      -3.158  -2.619   1.388  0.00  0.00    +0.015 A 
ATOM     23  C   UNL     1      -1.898  -2.223   0.978  0.00  0.00    +0.023 A 
ATOM     24 BR   UNL     1      -1.077  -3.067  -0.502  0.00  0.00    -0.050 Br
ENDBRANCH  17  18
ENDBRANCH   2  17
TORSDOF 4
