REMARK  Name = ZINC35371451
REMARK  7 active torsions:
REMARK  status: ('A' for Active; 'I' for Inactive)
REMARK    1  A    between atoms: C_1  and  C_2
REMARK    2  A    between atoms: C_2  and  C_3
REMARK    3  A    between atoms: C_12  and  C_13
REMARK    4  A    between atoms: C_13  and  C_15
REMARK    5  A    between atoms: C_13  and  C_26
REMARK    6  A    between atoms: C_15  and  C_16
REMARK    7  A    between atoms: N_18  and  C_19
REMARK                            x       y       z     vdW  Elec       q    Type
REMARK                         _______ _______ _______ _____ _____    ______ ____
ROOT
ATOM      1  C   UNL     1       5.280  -1.490  -3.041  0.00  0.00    +0.066 C 
ENDROOT
BRANCH   1  11
ATOM      2  C   UNL     1       0.720  -0.477  -1.216  0.00  0.00    -0.024 A 
ATOM      3  C   UNL     1      -0.012  -0.809  -2.335  0.00  0.00    +0.005 A 
ATOM      4  C   UNL     1       0.619  -1.263  -3.484  0.00  0.00    +0.001 A 
ATOM      5  C   UNL     1       1.979  -1.390  -3.526  0.00  0.00    +0.010 A 
ATOM      6  C   UNL     1       2.740  -1.059  -2.404  0.00  0.00    +0.004 A 
ATOM      7  C   UNL     1       2.106  -0.593  -1.237  0.00  0.00    +0.050 A 
ATOM      8  N   UNL     1       3.093  -0.344  -0.310  0.00  0.00    -0.360 N 
ATOM      9  H   UNL     1       2.942  -0.015   0.590  0.00  0.00    +0.165 HD
ATOM     10  C   UNL     1       4.319  -0.629  -0.847  0.00  0.00    +0.088 A 
ATOM     11  C   UNL     1       4.175  -1.072  -2.106  0.00  0.00    -0.014 A 
BRANCH   2  13
ATOM     12  C   UNL     1       0.002   1.545   0.027  0.00  0.00    +0.009 C 
ATOM     13  C   UNL     1       0.022   0.015   0.026  0.00  0.00    +0.034 C 
ENDBRANCH   2  13
ENDBRANCH   1  11
BRANCH   1  14
ATOM     14  C   UNL     1       6.223  -0.334  -3.253  0.00  0.00    -0.002 A 
ATOM     15  C   UNL     1       6.548   0.302  -4.404  0.00  0.00    +0.012 A 
ATOM     16  C   UNL     1       7.448   1.351  -4.360  0.00  0.00    +0.008 A 
ATOM     17  C   UNL     1       7.978   1.712  -3.166  0.00  0.00    +0.045 A 
ATOM     18  S   UNL     1       7.196   0.557  -2.051  0.00  0.00    -0.101 S 
ENDBRANCH   1  14
BRANCH   1  19
ATOM     19  C   UNL     1       6.045  -2.668  -2.432  0.00  0.00    +0.109 C 
BRANCH  19  20
ATOM     20  C   UNL     1       7.070  -3.165  -3.418  0.00  0.00    +0.218 C 
ATOM     21  O   UNL     1       7.178  -2.630  -4.502  0.00  0.00    -0.275 OA
ATOM     22  N   UNL     1       7.866  -4.203  -3.097  0.00  0.00    -0.285 N 
ATOM     23  H   UNL     1       7.827  -4.588  -2.207  0.00  0.00    +0.155 HD
BRANCH  22  24
ATOM     24  C   UNL     1       8.751  -4.728  -4.047  0.00  0.00    +0.034 A 
ATOM     25  C   UNL     1       9.010  -6.092  -4.078  0.00  0.00    +0.026 A 
ATOM     26  C   UNL     1       9.883  -6.607  -5.016  0.00  0.00    +0.040 A 
ATOM     27  C   UNL     1      10.501  -5.764  -5.925  0.00  0.00    +0.124 A 
ATOM     28  C   UNL     1      10.244  -4.404  -5.896  0.00  0.00    +0.040 A 
ATOM     29  C   UNL     1       9.367  -3.885  -4.963  0.00  0.00    +0.026 A 
ATOM     30  F   UNL     1      11.355  -6.270  -6.841  0.00  0.00    -0.205 F 
ENDBRANCH  22  24
ENDBRANCH  19  20
ENDBRANCH   1  19
TORSDOF 6
