REMARK  Name = ZINC22382177
REMARK  6 active torsions:
REMARK  status: ('A' for Active; 'I' for Inactive)
REMARK    1  A    between atoms: C_3  and  C_8
REMARK    2  A    between atoms: C_8  and  C_9
REMARK    3  A    between atoms: C_9  and  N_10
REMARK    4  A    between atoms: C_11  and  C_13
REMARK    5  A    between atoms: N_18  and  S_19
REMARK    6  A    between atoms: S_19  and  C_22
REMARK                            x       y       z     vdW  Elec       q    Type
REMARK                         _______ _______ _______ _____ _____    ______ ____
ROOT
ATOM      1  C   UNL     1       3.921   1.612  -2.428  0.00  0.00    +0.165 C 
ATOM      2  C   UNL     1       4.024   0.996  -3.839  0.00  0.00    +0.031 C 
ATOM      3  C   UNL     1       2.805   0.038  -3.891  0.00  0.00    +0.019 C 
ATOM      4  C   UNL     1       2.755  -0.478  -2.429  0.00  0.00    +0.110 C 
ATOM      5  N   UNL     1       3.123   0.689  -1.607  0.00  0.00    -0.165 NA
ENDROOT
BRANCH   1   7
ATOM      6  N   UNL     1       6.200   2.572  -2.428  0.00  0.00    -0.314 N 
ATOM      7  C   UNL     1       5.297   1.767  -1.834  0.00  0.00    +0.232 C 
ATOM      8  O   UNL     1       5.592   1.168  -0.822  0.00  0.00    -0.274 OA
ATOM      9  H   UNL     1       5.933   3.115  -3.346  0.00  0.00    +0.149 HD
BRANCH   6  10
ATOM     10  C   UNL     1       7.538   2.723  -1.851  0.00  0.00    +0.109 C 
BRANCH  10  11
ATOM     11  C   UNL     1       8.360   3.684  -2.712  0.00  0.00    +0.054 C 
BRANCH  11  14
ATOM     12  C   UNL     1      12.019   3.131  -1.960  0.00  0.00    +0.002 A 
ATOM     13  C   UNL     1      10.755   2.989  -2.504  0.00  0.00    +0.004 A 
ATOM     14  C   UNL     1       9.736   3.839  -2.118  0.00  0.00    -0.045 A 
ATOM     15  C   UNL     1       9.981   4.835  -1.192  0.00  0.00    +0.023 A 
ATOM     16  C   UNL     1      11.243   4.975  -0.643  0.00  0.00    +0.041 A 
ATOM     17  C   UNL     1      12.263   4.124  -1.031  0.00  0.00    +0.020 A 
ATOM     18 CL   UNL     1      11.550   6.222   0.524  0.00  0.00    -0.084 Cl
ENDBRANCH  11  14
ENDBRANCH  10  11
ENDBRANCH   6  10
ENDBRANCH   1   7
BRANCH   5  19
ATOM     19  S   UNL     1       2.711   0.920  -0.020  0.00  0.00    +0.062 S 
ATOM     20  O   UNL     1       3.681   1.804   0.527  0.00  0.00    -0.153 OA
ATOM     21  O   UNL     1       2.461  -0.368   0.526  0.00  0.00    -0.153 OA
BRANCH  19  22
ATOM     22  C   UNL     1       1.175   1.782   0.000  0.00  0.00    +0.109 A 
ATOM     23  C   UNL     1       1.160   3.165   0.008  0.00  0.00    +0.032 A 
ATOM     24  C   UNL     1      -0.043   3.845   0.025  0.00  0.00    +0.051 A 
ATOM     25  C   UNL     1      -1.239   3.142   0.034  0.00  0.00    +0.162 A 
ATOM     26  C   UNL     1      -1.223   1.752   0.017  0.00  0.00    +0.164 A 
ATOM     27  C   UNL     1      -0.013   1.076   0.008  0.00  0.00    +0.078 A 
ATOM     28  O   UNL     1      -2.385   1.043   0.025  0.00  0.00    -0.485 OA
ATOM     29  C   UNL     1      -3.568   1.746   0.418  0.00  0.00    +0.270 C 
ATOM     30  C   UNL     1      -3.591   3.095  -0.313  0.00  0.00    +0.270 C 
ATOM     31  O   UNL     1      -2.416   3.825   0.055  0.00  0.00    -0.485 OA
ENDBRANCH  19  22
ENDBRANCH   5  19
TORSDOF 6
