REMARK  Name = ZINC16392172
REMARK  9 active torsions:
REMARK  status: ('A' for Active; 'I' for Inactive)
REMARK    1  A    between atoms: C_1  and  C_2
REMARK    2  A    between atoms: C_2  and  O_3
REMARK    3  A    between atoms: O_3  and  C_4
REMARK    4  A    between atoms: C_5  and  O_22
REMARK    5  A    between atoms: C_7  and  C_11
REMARK    6  A    between atoms: C_12  and  C_13
REMARK    7  A    between atoms: C_12  and  C_15
REMARK    8  A    between atoms: C_15  and  C_17
REMARK    9  A    between atoms: O_22  and  C_23
REMARK                            x       y       z     vdW  Elec       q    Type
REMARK                         _______ _______ _______ _____ _____    ______ ____
ROOT
ATOM      1  C   UNL     1      -0.252   1.195   2.430  0.00  0.00    +0.176 A 
ATOM      2  C   UNL     1       0.797   1.946   2.962  0.00  0.00    +0.163 A 
ATOM      3  C   UNL     1       1.374   1.575   4.159  0.00  0.00    +0.057 A 
ATOM      4  C   UNL     1       0.903   0.441   4.839  0.00  0.00    -0.019 A 
ATOM      5  C   UNL     1      -0.151  -0.307   4.297  0.00  0.00    +0.027 A 
ATOM      6  C   UNL     1      -0.724   0.075   3.104  0.00  0.00    +0.064 A 
ATOM      7 BR   UNL     1      -2.152  -0.930   2.378  0.00  0.00    -0.046 Br
ENDROOT
BRANCH   4   8
ATOM      8  C   UNL     1       1.510   0.042   6.110  0.00  0.00    +0.030 C 
ATOM      9  C   UNL     1       1.532  -1.287   6.476  0.00  0.00    +0.100 C 
BRANCH   9  10
ATOM     10  C   UNL     1       1.094  -2.291   5.553  0.00  0.00    +0.103 C 
ATOM     11  N   UNL     1       0.747  -3.087   4.822  0.00  0.00    -0.191 NA
ENDBRANCH   9  10
BRANCH   9  12
ATOM     12  C   UNL     1       2.005  -1.674   7.815  0.00  0.00    +0.210 C 
ATOM     13  O   UNL     1       2.377  -0.819   8.600  0.00  0.00    -0.285 OA
BRANCH  12  14
ATOM     14  C   UNL     1       2.028  -3.086   8.204  0.00  0.00    +0.060 A 
ATOM     15  C   UNL     1       2.438  -3.658   9.401  0.00  0.00    +0.019 A 
ATOM     16  C   UNL     1       2.350  -5.023   9.503  0.00  0.00    +0.008 A 
ATOM     17  C   UNL     1       1.887  -5.740   8.445  0.00  0.00    +0.046 A 
ATOM     18  S   UNL     1       1.545  -4.521   7.260  0.00  0.00    -0.093 S 
ENDBRANCH  12  14
ENDBRANCH   9  12
ENDBRANCH   4   8
BRANCH   2  19
ATOM     19  O   UNL     1       1.251   3.044   2.301  0.00  0.00    -0.491 OA
ATOM     20  C   UNL     1       2.328   3.765   2.904  0.00  0.00    +0.277 C 
ENDBRANCH   2  19
BRANCH   1  21
ATOM     21  O   UNL     1      -0.817   1.563   1.252  0.00  0.00    -0.487 OA
BRANCH  21  23
ATOM     22  C   UNL     1      -1.013   1.540  -1.157  0.00  0.00    +0.048 C 
ATOM     23  C   UNL     1      -0.250   1.015   0.060  0.00  0.00    +0.226 C 
ENDBRANCH  21  23
ENDBRANCH   1  21
TORSDOF 7
