REMARK  Name = ZINC53656800
REMARK  5 active torsions:
REMARK  status: ('A' for Active; 'I' for Inactive)
REMARK    1  A    between atoms: C_4  and  C_7
REMARK    2  A    between atoms: C_7  and  N_8
REMARK    3  A    between atoms: C_12  and  C_15
REMARK    4  A    between atoms: C_15  and  N_16
REMARK    5  A    between atoms: N_16  and  C_17
REMARK                            x       y       z     vdW  Elec       q    Type
REMARK                         _______ _______ _______ _____ _____    ______ ____
ROOT
ATOM      1  N   UNL     1       1.558  -2.598  -1.413  0.00  0.00    -0.297 NA
ATOM      2  C   UNL     1       0.257  -2.480  -2.083  0.00  0.00    +0.085 C 
ATOM      3  C   UNL     1       0.409  -2.842  -3.562  0.00  0.00    +0.016 C 
ATOM      4  C   UNL     1       0.937  -4.275  -3.680  0.00  0.00    +0.004 C 
ATOM      5  C   UNL     1       2.269  -4.382  -2.933  0.00  0.00    -0.014 C 
ATOM      6  C   UNL     1       2.063  -3.975  -1.472  0.00  0.00    +0.086 C 
ENDROOT
BRANCH   1   7
ATOM      7  C   UNL     1       1.480  -2.125  -0.024  0.00  0.00    +0.128 C 
BRANCH   7  11
ATOM      8  C   UNL     1      -0.017   1.379   0.010  0.00  0.00    +0.023 A 
ATOM      9  C   UNL     1       1.160   2.052   0.002  0.00  0.00    +0.046 A 
ATOM     10  S   UNL     1       2.348   0.720  -0.017  0.00  0.00    -0.099 S 
ATOM     11  C   UNL     1       1.197  -0.645  -0.013  0.00  0.00    +0.018 A 
ATOM     12  C   UNL     1       0.002  -0.004   0.002  0.00  0.00    +0.029 A 
ATOM     13 BR   UNL     1      -1.614  -0.986   0.013  0.00  0.00    -0.049 Br
ENDBRANCH   7  11
ENDBRANCH   1   7
BRANCH   5  14
ATOM     14  C   UNL     1       2.775  -5.825  -2.996  0.00  0.00    -0.078 C 
BRANCH  14  15
ATOM     15  N   UNL     1       3.082  -6.176  -4.389  0.00  0.00    +0.381 N 
ATOM     16  H   UNL     1       2.248  -6.087  -4.950  0.00  0.00    -0.086 HD
ATOM     17  H   UNL     1       3.793  -5.554  -4.744  0.00  0.00    -0.086 HD
BRANCH  15  18
ATOM     18  C   UNL     1       3.567  -7.561  -4.449  0.00  0.00    -0.072 C 
ATOM     19  C   UNL     1       5.005  -7.785  -4.924  0.00  0.00    -0.017 C 
ATOM     20  C   UNL     1       3.832  -8.157  -5.834  0.00  0.00    -0.017 C 
ENDBRANCH  15  18
ENDBRANCH  14  15
ENDBRANCH   5  14
TORSDOF 5
