REMARK  Name = ZINC06130864
REMARK  12 active torsions:
REMARK  status: ('A' for Active; 'I' for Inactive)
REMARK    1  A    between atoms: C_1  and  C_2
REMARK    2  A    between atoms: C_2  and  N_3
REMARK    3  A    between atoms: N_3  and  C_4
REMARK    4  A    between atoms: N_3  and  C_6
REMARK    5  A    between atoms: C_4  and  C_5
REMARK    6  A    between atoms: C_9  and  C_13
REMARK    7  A    between atoms: C_10  and  O_12
REMARK    8  A    between atoms: N_14  and  N_15
REMARK    9  A    between atoms: C_16  and  C_18
REMARK   10  A    between atoms: C_23  and  N_24
REMARK   11  A    between atoms: N_24  and  S_25
REMARK   12  A    between atoms: S_25  and  C_28
REMARK                            x       y       z     vdW  Elec       q    Type
REMARK                         _______ _______ _______ _____ _____    ______ ____
ROOT
ATOM      1  N   UNL     1      -5.851   6.218   0.356  0.00  0.00    -0.203 N 
ATOM      2  C   UNL     1      -5.984   7.556   0.268  0.00  0.00    +0.265 C 
ATOM      3  O   UNL     1      -5.002   8.257   0.118  0.00  0.00    -0.268 OA
ATOM      4  H   UNL     1      -6.635   5.659   0.475  0.00  0.00    +0.178 HD
ENDROOT
BRANCH   2   5
ATOM      5  C   UNL     1      -7.321   8.171   0.354  0.00  0.00    +0.061 A 
ATOM      6  C   UNL     1      -8.454   7.370   0.527  0.00  0.00    +0.015 A 
ATOM      7  C   UNL     1      -9.700   7.950   0.606  0.00  0.00    +0.001 A 
ATOM      8  C   UNL     1      -9.839   9.327   0.516  0.00  0.00    +0.002 A 
ATOM      9  C   UNL     1      -8.731  10.131   0.346  0.00  0.00    +0.025 A 
ATOM     10  C   UNL     1      -7.465   9.564   0.269  0.00  0.00    +0.060 A 
BRANCH  10  11
ATOM     11  N   UNL     1      -6.347  10.372   0.103  0.00  0.00    -0.215 N 
ATOM     12  H   UNL     1      -5.603  10.066  -0.437  0.00  0.00    +0.174 HD
BRANCH  11  13
ATOM     13  S   UNL     1      -6.286  11.860   0.829  0.00  0.00    +0.079 S 
ATOM     14  O   UNL     1      -4.984  12.375   0.589  0.00  0.00    -0.149 OA
ATOM     15  O   UNL     1      -7.464  12.552   0.438  0.00  0.00    -0.149 OA
BRANCH  13  16
ATOM     16  C   UNL     1      -6.411  11.597   2.567  0.00  0.00    +0.146 A 
ATOM     17  C   UNL     1      -5.423  11.395   3.473  0.00  0.00    +0.036 A 
ATOM     18  C   UNL     1      -5.759  11.210   4.801  0.00  0.00    +0.010 A 
ATOM     19  C   UNL     1      -7.066  11.235   5.158  0.00  0.00    +0.047 A 
ATOM     20  S   UNL     1      -7.871  11.535   3.593  0.00  0.00    -0.077 S 
ENDBRANCH  13  16
ENDBRANCH  11  13
ENDBRANCH  10  11
ENDBRANCH   2   5
BRANCH   1  22
ATOM     21  C   UNL     1      -4.452   4.344   0.358  0.00  0.00    +0.142 C 
ATOM     22  N   UNL     1      -4.580   5.634   0.274  0.00  0.00    -0.187 NA
BRANCH  21  26
ATOM     23  C   UNL     1      -0.599   2.572   0.111  0.00  0.00    +0.033 A 
ATOM     24  C   UNL     1      -1.724   1.771   0.282  0.00  0.00    +0.024 A 
ATOM     25  C   UNL     1      -2.975   2.342   0.363  0.00  0.00    +0.015 A 
ATOM     26  C   UNL     1      -3.116   3.730   0.272  0.00  0.00    +0.036 A 
ATOM     27  C   UNL     1      -1.981   4.536   0.100  0.00  0.00    +0.127 A 
ATOM     28  C   UNL     1      -0.729   3.952   0.025  0.00  0.00    +0.069 A 
BRANCH  27  29
ATOM     29  O   UNL     1      -2.110   5.885   0.011  0.00  0.00    -0.506 OA
ATOM     30  H   UNL     1      -2.061   6.341   0.862  0.00  0.00    +0.292 HD
ENDBRANCH  27  29
BRANCH  23  31
ATOM     31  N   UNL     1       0.664   1.987   0.030  0.00  0.00    -0.330 N 
BRANCH  31  33
ATOM     32  C   UNL     1       1.002   0.134   1.590  0.00  0.00    +0.024 C 
ATOM     33  C   UNL     1       0.805   0.532   0.126  0.00  0.00    +0.102 C 
ENDBRANCH  31  33
BRANCH  31  34
ATOM     34  C   UNL     1       1.850   2.826  -0.157  0.00  0.00    +0.102 C 
ATOM     35  C   UNL     1       2.115   3.010  -1.653  0.00  0.00    +0.024 C 
ENDBRANCH  31  34
ENDBRANCH  23  31
ENDBRANCH  21  26
ENDBRANCH   1  22
TORSDOF 10
