REMARK  Name = ZINC12877652
REMARK  10 active torsions:
REMARK  status: ('A' for Active; 'I' for Inactive)
REMARK    1  A    between atoms: C_1  and  C_2
REMARK    2  A    between atoms: C_2  and  O_4
REMARK    3  A    between atoms: O_4  and  C_5
REMARK    4  A    between atoms: C_5  and  C_6
REMARK    5  A    between atoms: C_6  and  C_8
REMARK    6  A    between atoms: C_14  and  C_33
REMARK    7  A    between atoms: C_25  and  C_32
REMARK    8  A    between atoms: C_28  and  O_31
REMARK    9  A    between atoms: C_35  and  C_37
REMARK   10  A    between atoms: C_35  and  C_38
REMARK                            x       y       z     vdW  Elec       q    Type
REMARK                         _______ _______ _______ _____ _____    ______ ____
ROOT
ATOM      1  C   UNL     1       3.184  -0.864   4.694  0.00  0.00    +0.165 C 
ATOM      2  C   UNL     1       4.286   0.235   4.575  0.00  0.00    +0.162 C 
ATOM      3  C   UNL     1       3.617   1.450   3.890  0.00  0.00    +0.039 C 
ATOM      4  C   UNL     1       2.154   1.060   3.711  0.00  0.00    +0.004 C 
ATOM      5  C   UNL     1       2.211  -0.485   3.571  0.00  0.00    +0.010 C 
ATOM      6  C   UNL     1       0.791  -1.000   3.730  0.00  0.00    +0.010 C 
ATOM      7  C   UNL     1      -0.029  -0.451   2.551  0.00  0.00    +0.005 C 
ATOM      8  C   UNL     1       0.011   1.073   2.506  0.00  0.00    -0.001 C 
ATOM      9  C   UNL     1       1.455   1.599   2.479  0.00  0.00    -0.004 C 
ATOM     10  C   UNL     1       1.430   3.127   2.502  0.00  0.00    +0.004 C 
ATOM     11  C   UNL     1       0.685   3.641   1.268  0.00  0.00    +0.004 C 
ATOM     12  C   UNL     1      -0.749   3.109   1.276  0.00  0.00    -0.002 C 
ATOM     13  C   UNL     1      -0.729   1.579   1.267  0.00  0.00    -0.026 C 
ATOM     14  C   UNL     1      -2.164   1.050   1.277  0.00  0.00    +0.010 C 
ATOM     15  C   UNL     1      -2.904   1.557   0.037  0.00  0.00    +0.032 C 
ATOM     16  C   UNL     1      -2.923   3.087   0.045  0.00  0.00    +0.115 C 
ATOM     17  C   UNL     1      -1.488   3.616   0.035  0.00  0.00    +0.035 C 
ATOM     18  C   UNL     1      -0.013   1.086   0.008  0.00  0.00    +0.012 C 
ATOM     19  C   UNL     1       2.770  -0.879   2.202  0.00  0.00    +0.015 C 
ATOM     20  O   UNL     1       4.585   0.564   5.939  0.00  0.00    -0.343 OA
ATOM     21  C   UNL     1       3.414   0.271   6.707  0.00  0.00    +0.166 C 
ATOM     22  O   UNL     1       2.564  -0.605   5.963  0.00  0.00    -0.332 OA
ATOM     23  C   UNL     1       2.666   1.569   7.013  0.00  0.00    +0.074 C 
ATOM     24  C   UNL     1       3.820  -0.405   8.018  0.00  0.00    +0.074 C 
ENDROOT
BRANCH   1  25
ATOM     25  C   UNL     1       3.723  -2.265   4.560  0.00  0.00    +0.205 C 
ATOM     26  O   UNL     1       3.852  -2.761   3.467  0.00  0.00    -0.291 OA
BRANCH  25  27
ATOM     27  C   UNL     1       4.102  -3.047   5.791  0.00  0.00    +0.309 C 
BRANCH  27  28
ATOM     28  O   UNL     1       4.591  -4.357   5.401  0.00  0.00    -0.457 OA
BRANCH  28  30
ATOM     29  C   UNL     1       5.490  -6.561   6.059  0.00  0.00    +0.136 C 
ATOM     30  C   UNL     1       4.973  -5.184   6.387  0.00  0.00    +0.304 C 
ATOM     31  O   UNL     1       4.901  -4.824   7.539  0.00  0.00    -0.251 OA
ENDBRANCH  28  30
ENDBRANCH  27  28
ENDBRANCH  25  27
ENDBRANCH   1  25
BRANCH  16  32
ATOM     32  O   UNL     1      -3.593   3.549   1.219  0.00  0.00    -0.392 OA
ATOM     33  H   UNL     1      -4.511   3.251   1.292  0.00  0.00    +0.210 HD
ENDBRANCH  16  32
TORSDOF 5
