REMARK  Name = ZINC39357608
REMARK  11 active torsions:
REMARK  status: ('A' for Active; 'I' for Inactive)
REMARK    1  A    between atoms: C_4  and  C_7
REMARK    2  A    between atoms: C_9  and  C_17
REMARK    3  A    between atoms: N_18  and  N_19
REMARK    4  A    between atoms: C_24  and  C_27
REMARK    5  A    between atoms: C_27  and  C_28
REMARK    6  A    between atoms: N_30  and  C_31
REMARK    7  A    between atoms: C_31  and  C_32
REMARK    8  A    between atoms: C_32  and  C_33
REMARK    9  A    between atoms: C_33  and  C_34
REMARK   10  A    between atoms: C_34  and  C_35
REMARK   11  A    between atoms: C_35  and  C_36
REMARK                            x       y       z     vdW  Elec       q    Type
REMARK                         _______ _______ _______ _____ _____    ______ ____
ROOT
ATOM      1  N   UNL     1       4.718  -0.314   4.702  0.00  0.00    -0.127 NA
ATOM      2  C   UNL     1       5.011  -0.905   5.857  0.00  0.00    +0.183 C 
ATOM      3  N   UNL     1       5.159  -2.243   6.083  0.00  0.00    -0.263 N 
ATOM      4  C   UNL     1       5.454  -2.734   7.279  0.00  0.00    +0.233 C 
ATOM      5  O   UNL     1       5.589  -3.919   7.499  0.00  0.00    -0.274 OA
ATOM      6  C   UNL     1       5.604  -1.661   8.347  0.00  0.00    +0.149 C 
ATOM      7  S   UNL     1       5.282  -0.157   7.339  0.00  0.00    -0.075 S 
ATOM      8  H   UNL     1       5.045  -2.857   5.341  0.00  0.00    +0.157 HD
ENDROOT
BRANCH   1  10
ATOM      9  C   UNL     1       4.245  -0.438   2.493  0.00  0.00    +0.141 C 
ATOM     10  N   UNL     1       4.536  -1.025   3.641  0.00  0.00    -0.155 NA
BRANCH   9  12
ATOM     11  C   UNL     1       3.711  -0.707  -0.038  0.00  0.00    +0.142 C 
ATOM     12  C   UNL     1       4.049  -1.204   1.351  0.00  0.00    +0.008 C 
ATOM     13  C   UNL     1       4.122  -2.599   1.243  0.00  0.00    +0.005 A 
ATOM     14  C   UNL     1       4.397  -3.613   2.181  0.00  0.00    +0.010 A 
ATOM     15  C   UNL     1       4.401  -4.914   1.787  0.00  0.00    +0.001 A 
ATOM     16  C   UNL     1       4.139  -5.277   0.466  0.00  0.00    +0.002 A 
ATOM     17  C   UNL     1       3.867  -4.353  -0.489  0.00  0.00    +0.026 A 
ATOM     18  C   UNL     1       3.845  -2.976  -0.151  0.00  0.00    +0.044 A 
ATOM     19  N   UNL     1       3.611  -1.900  -0.883  0.00  0.00    -0.373 N 
ATOM     20  H   UNL     1       3.405  -1.900  -1.831  0.00  0.00    +0.161 HD
BRANCH  11  24
ATOM     21  C   UNL     1      -0.017   1.378   0.010  0.00  0.00    +0.000 A 
ATOM     22  C   UNL     1       1.171   2.086   0.002  0.00  0.00    +0.000 A 
ATOM     23  C   UNL     1       2.377   1.411  -0.013  0.00  0.00    +0.006 A 
ATOM     24  C   UNL     1       2.396   0.029  -0.020  0.00  0.00    -0.021 A 
ATOM     25  C   UNL     1       1.208  -0.679  -0.012  0.00  0.00    +0.006 A 
ATOM     26  C   UNL     1       0.002  -0.004   0.002  0.00  0.00    +0.000 A 
ENDBRANCH  11  24
ENDBRANCH   9  12
ENDBRANCH   1  10
BRANCH   6  27
ATOM     27  C   UNL     1       4.561  -1.829   9.454  0.00  0.00    +0.119 C 
BRANCH  27  28
ATOM     28  C   UNL     1       4.823  -0.825  10.547  0.00  0.00    +0.215 C 
ATOM     29  O   UNL     1       5.752  -0.051  10.450  0.00  0.00    -0.276 OA
ATOM     30  N   UNL     1       4.024  -0.786  11.632  0.00  0.00    -0.315 N 
ATOM     31  H   UNL     1       3.281  -1.405  11.709  0.00  0.00    +0.149 HD
BRANCH  30  32
ATOM     32  C   UNL     1       4.279   0.190  12.694  0.00  0.00    +0.104 C 
BRANCH  32  33
ATOM     33  C   UNL     1       3.236   0.022  13.801  0.00  0.00    +0.019 C 
BRANCH  33  34
ATOM     34  C   UNL     1       3.502   1.041  14.911  0.00  0.00    +0.002 C 
BRANCH  34  35
ATOM     35  C   UNL     1       2.459   0.874  16.018  0.00  0.00    +0.011 C 
BRANCH  35  36
ATOM     36  C   UNL     1       2.725   1.893  17.128  0.00  0.00    +0.125 C 
BRANCH  36  37
ATOM     37  C   UNL     1       1.698   1.728  18.218  0.00  0.00    +0.356 C 
ATOM     38  O   UNL     1       0.833   0.874  18.117  0.00  0.00    -0.246 OA
ATOM     39  O   UNL     1       1.731   2.448  19.201  0.00  0.00    -0.246 OA
ENDBRANCH  36  37
ENDBRANCH  35  36
ENDBRANCH  34  35
ENDBRANCH  33  34
ENDBRANCH  32  33
ENDBRANCH  30  32
ENDBRANCH  27  28
ENDBRANCH   6  27
TORSDOF 11
