REMARK  Name = ZINC27204289
REMARK  13 active torsions:
REMARK  status: ('A' for Active; 'I' for Inactive)
REMARK    1  A    between atoms: C_1  and  C_2
REMARK    2  A    between atoms: C_2  and  C_4
REMARK    3  A    between atoms: C_2  and  C_11
REMARK    4  A    between atoms: C_4  and  C_5
REMARK    5  A    between atoms: C_5  and  C_6
REMARK    6  A    between atoms: C_6  and  C_7
REMARK    7  A    between atoms: C_7  and  C_8
REMARK    8  A    between atoms: C_7  and  C_9
REMARK    9  A    between atoms: C_7  and  O_10
REMARK   10  A    between atoms: C_17  and  C_35
REMARK   11  A    between atoms: C_22  and  C_23
REMARK   12  A    between atoms: C_26  and  O_34
REMARK   13  A    between atoms: C_29  and  O_33
REMARK                            x       y       z     vdW  Elec       q    Type
REMARK                         _______ _______ _______ _____ _____    ______ ____
ROOT
ATOM      1  C   UNL     1       0.227   1.140   2.555  0.00  0.00    -0.002 C 
ATOM      2  C   UNL     1       1.570   1.916   2.539  0.00  0.00    +0.005 C 
ATOM      3  C   UNL     1       1.537   2.867   3.772  0.00  0.00    +0.009 C 
ATOM      4  C   UNL     1       0.038   3.040   4.027  0.00  0.00    +0.021 C 
ATOM      5  C   UNL     1      -0.474   1.585   3.830  0.00  0.00    -0.022 C 
ATOM      6  C   UNL     1      -1.984   1.626   3.841  0.00  0.00    +0.008 C 
ATOM      7  C   UNL     1      -2.427   1.996   5.266  0.00  0.00    +0.005 C 
ATOM      8  C   UNL     1      -1.863   3.347   5.702  0.00  0.00    +0.031 C 
ATOM      9  C   UNL     1      -0.369   3.423   5.419  0.00  0.00    -0.066 C 
ATOM     10  C   UNL     1       0.514   3.803   6.342  0.00  0.00    -0.000 C 
ATOM     11  C   UNL     1       0.018   0.731   5.001  0.00  0.00    +0.012 C 
ENDROOT
BRANCH  10  12
ATOM     12  C   UNL     1       0.059   4.166   7.686  0.00  0.00    +0.004 C 
ATOM     13  C   UNL     1       0.953   4.551   8.620  0.00  0.00    -0.040 C 
ATOM     14  C   UNL     1       2.437   4.614   8.320  0.00  0.00    +0.067 C 
ATOM     15  C   UNL     1       3.194   3.944   9.466  0.00  0.00    +0.122 C 
ATOM     16  C   UNL     1       2.852   4.631  10.789  0.00  0.00    +0.067 C 
ATOM     17  C   UNL     1       1.377   4.395  11.129  0.00  0.00    +0.147 C 
ATOM     18  C   UNL     1       0.533   4.924   9.987  0.00  0.00    -0.023 C 
ATOM     19  C   UNL     1      -0.537   5.689  10.204  0.00  0.00    +0.015 C 
BRANCH  17  20
ATOM     20  O   UNL     1       1.139   2.996  11.296  0.00  0.00    -0.387 OA
ATOM     21  H   UNL     1       0.130   2.636  11.545  0.00  0.00    +0.210 HD
ENDBRANCH  17  20
BRANCH  15  22
ATOM     22  O   UNL     1       4.600   4.043   9.229  0.00  0.00    -0.391 OA
ATOM     23  H   UNL     1       5.311   3.614   9.952  0.00  0.00    +0.210 HD
ENDBRANCH  15  22
ENDBRANCH  10  12
BRANCH   1  25
ATOM     24  C   UNL     1       0.096   1.027   0.063  0.00  0.00    +0.008 C 
ATOM     25  C   UNL     1      -0.614   1.506   1.331  0.00  0.00    -0.010 C 
BRANCH  25  26
ATOM     26  C   UNL     1      -0.794   3.024   1.272  0.00  0.00    +0.003 C 
BRANCH  26  27
ATOM     27  C   UNL     1      -1.629   3.391   0.043  0.00  0.00    +0.003 C 
BRANCH  27  28
ATOM     28  C   UNL     1      -1.810   4.910  -0.016  0.00  0.00    +0.034 C 
BRANCH  28  29
ATOM     29  C   UNL     1      -2.645   5.277  -1.244  0.00  0.00    +0.061 C 
ATOM     30  C   UNL     1      -4.015   4.603  -1.148  0.00  0.00    +0.041 C 
ATOM     31  C   UNL     1      -2.825   6.795  -1.303  0.00  0.00    +0.041 C 
BRANCH  29  32
ATOM     32  O   UNL     1      -1.976   4.830  -2.425  0.00  0.00    -0.389 OA
ATOM     33  H   UNL     1      -2.428   5.006  -3.413  0.00  0.00    +0.210 HD
ENDBRANCH  29  32
ENDBRANCH  28  29
ENDBRANCH  27  28
ENDBRANCH  26  27
ENDBRANCH  25  26
ENDBRANCH   1  25
TORSDOF 9
