REMARK  Name = ZINC01058575
REMARK  15 active torsions:
REMARK  status: ('A' for Active; 'I' for Inactive)
REMARK    1  A    between atoms: C_1  and  C_2
REMARK    2  A    between atoms: C_2  and  O_3
REMARK    3  A    between atoms: O_3  and  C_4
REMARK    4  A    between atoms: C_4  and  C_6
REMARK    5  A    between atoms: C_7  and  N_38
REMARK    6  A    between atoms: N_8  and  C_32
REMARK    7  A    between atoms: C_11  and  C_13
REMARK    8  A    between atoms: C_15  and  O_23
REMARK    9  A    between atoms: C_16  and  O_21
REMARK   10  A    between atoms: C_17  and  O_19
REMARK   11  A    between atoms: O_19  and  C_20
REMARK   12  A    between atoms: O_21  and  C_22
REMARK   13  A    between atoms: O_23  and  C_24
REMARK   14  A    between atoms: C_28  and  C_30
REMARK   15  A    between atoms: C_28  and  C_31
REMARK                            x       y       z     vdW  Elec       q    Type
REMARK                         _______ _______ _______ _____ _____    ______ ____
ROOT
ATOM      1  C   UNL     1       4.575   3.784   0.714  0.00  0.00    +0.084 C 
ATOM      2  C   UNL     1       3.622   3.292  -0.123  0.00  0.00    +0.103 C 
ATOM      3  N   UNL     1       2.530   4.060  -0.452  0.00  0.00    -0.261 N 
ATOM      4  C   UNL     1       2.564   5.421  -0.296  0.00  0.00    +0.025 C 
ATOM      5  C   UNL     1       3.467   5.997   0.528  0.00  0.00    +0.025 C 
ATOM      6  C   UNL     1       4.456   5.160   1.300  0.00  0.00    +0.094 C 
ATOM      7  C   UNL     1       3.517   7.393   0.685  0.00  0.00    +0.162 C 
ATOM      8  O   UNL     1       4.339   7.879   1.437  0.00  0.00    -0.292 OA
ATOM      9  C   UNL     1       2.577   8.298  -0.073  0.00  0.00    +0.086 C 
ATOM     10  C   UNL     1       2.173   7.619  -1.386  0.00  0.00    -0.023 C 
ATOM     11  C   UNL     1       1.563   6.255  -1.059  0.00  0.00    +0.058 C 
ATOM     12  C   UNL     1       3.409   7.431  -2.269  0.00  0.00    +0.011 C 
ATOM     13  C   UNL     1       1.144   8.480  -2.120  0.00  0.00    +0.011 C 
ENDROOT
BRANCH   6  14
ATOM     14  C   UNL     1       3.997   5.050   2.731  0.00  0.00    -0.028 A 
ATOM     15  C   UNL     1       2.783   4.455   3.022  0.00  0.00    +0.054 A 
ATOM     16  C   UNL     1       2.360   4.347   4.338  0.00  0.00    +0.165 A 
ATOM     17  C   UNL     1       3.152   4.847   5.364  0.00  0.00    +0.204 A 
ATOM     18  C   UNL     1       4.368   5.450   5.067  0.00  0.00    +0.165 A 
ATOM     19  C   UNL     1       4.787   5.549   3.749  0.00  0.00    +0.054 A 
BRANCH  18  20
ATOM     20  O   UNL     1       5.147   5.942   6.068  0.00  0.00    -0.491 OA
ATOM     21  C   UNL     1       6.384   6.548   5.689  0.00  0.00    +0.277 C 
ENDBRANCH  18  20
BRANCH  17  22
ATOM     22  O   UNL     1       2.736   4.748   6.656  0.00  0.00    -0.488 OA
ATOM     23  C   UNL     1       1.956   5.829   7.171  0.00  0.00    +0.277 C 
ENDBRANCH  17  22
BRANCH  16  24
ATOM     24  O   UNL     1       1.168   3.756   4.623  0.00  0.00    -0.491 OA
ATOM     25  C   UNL     1       0.407   3.264   3.518  0.00  0.00    +0.277 C 
ENDBRANCH  16  24
ENDBRANCH   6  14
BRANCH   3  26
ATOM     26  C   UNL     1       1.377   3.447  -0.955  0.00  0.00    +0.040 A 
ATOM     27  C   UNL     1       0.216   3.416  -0.193  0.00  0.00    +0.024 A 
ATOM     28  C   UNL     1      -0.920   2.811  -0.693  0.00  0.00    +0.002 A 
ATOM     29  C   UNL     1      -0.902   2.231  -1.948  0.00  0.00    +0.000 A 
ATOM     30  C   UNL     1       0.251   2.265  -2.712  0.00  0.00    +0.002 A 
ATOM     31  C   UNL     1       1.390   2.869  -2.218  0.00  0.00    +0.024 A 
ENDBRANCH   3  26
BRANCH   2  32
ATOM     32  N   UNL     1       3.750   2.028  -0.640  0.00  0.00    -0.346 N 
ATOM     33  H   UNL     1       4.622   1.701  -0.910  0.00  0.00    +0.143 HD
ATOM     34  H   UNL     1       2.969   1.462  -0.735  0.00  0.00    +0.143 HD
ENDBRANCH   2  32
BRANCH   1  35
ATOM     35  C   UNL     1       5.688   2.992   1.034  0.00  0.00    +0.339 C 
ATOM     36  O   UNL     1       5.741   1.835   0.656  0.00  0.00    -0.245 OA
BRANCH  35  37
ATOM     37  O   UNL     1       6.699   3.512   1.762  0.00  0.00    -0.462 OA
BRANCH  37  39
ATOM     38  C   UNL     1       8.841   3.408   2.879  0.00  0.00    +0.048 C 
ATOM     39  C   UNL     1       7.801   2.649   2.052  0.00  0.00    +0.229 C 
ENDBRANCH  37  39
ENDBRANCH  35  37
ENDBRANCH   1  35
TORSDOF 9
