REMARK  Name = ZINC21246141
REMARK  8 active torsions:
REMARK  status: ('A' for Active; 'I' for Inactive)
REMARK    1  A    between atoms: C_1  and  C_2
REMARK    2  A    between atoms: C_11  and  N_30
REMARK    3  A    between atoms: C_13  and  S_15
REMARK    4  A    between atoms: S_15  and  C_16
REMARK    5  A    between atoms: C_16  and  C_18
REMARK    6  A    between atoms: C_16  and  C_19
REMARK    7  A    between atoms: N_21  and  C_22
REMARK    8  A    between atoms: C_27  and  C_28
REMARK                            x       y       z     vdW  Elec       q    Type
REMARK                         _______ _______ _______ _____ _____    ______ ____
ROOT
ATOM      1  C   UNL     1       2.378  -6.893  -0.171  0.00  0.00    +0.008 C 
ATOM      2  C   UNL     1       2.060  -5.428   0.136  0.00  0.00    -0.009 C 
ATOM      3  C   UNL     1       0.862  -4.973  -0.702  0.00  0.00    +0.008 C 
ATOM      4  C   UNL     1       0.386  -3.601  -0.224  0.00  0.00    +0.037 C 
ATOM      5  C   UNL     1       1.576  -2.646  -0.202  0.00  0.00    -0.025 A 
ATOM      6  C   UNL     1       2.838  -3.119  -0.202  0.00  0.00    -0.004 A 
ATOM      7  S   UNL     1       3.872  -1.679  -0.175  0.00  0.00    -0.073 S 
ATOM      8  C   UNL     1       2.603  -0.439  -0.163  0.00  0.00    +0.115 A 
ATOM      9  C   UNL     1       1.411  -1.190  -0.182  0.00  0.00    +0.051 A 
ATOM     10  C   UNL     1       0.208  -0.431  -0.178  0.00  0.00    +0.129 A 
ATOM     11  N   UNL     1       0.277   0.889  -0.157  0.00  0.00    -0.207 NA
ATOM     12  C   UNL     1       1.436   1.536  -0.140  0.00  0.00    +0.192 A 
ATOM     13  N   UNL     1       2.589   0.880  -0.143  0.00  0.00    -0.214 NA
ATOM     14  C   UNL     1       3.270  -4.553  -0.221  0.00  0.00    +0.046 C 
ENDROOT
BRANCH  10  15
ATOM     15  N   UNL     1      -1.020  -1.067  -0.195  0.00  0.00    -0.343 N 
ATOM     16  H   UNL     1      -1.947  -0.475  -0.192  0.00  0.00    +0.144 HD
ATOM     17  H   UNL     1      -1.070  -2.166  -0.212  0.00  0.00    +0.144 HD
ENDBRANCH  10  15
BRANCH  12  18
ATOM     18  S   UNL     1       1.444   3.297  -0.113  0.00  0.00    -0.073 S 
BRANCH  18  19
ATOM     19  C   UNL     1      -0.338   3.619  -0.119  0.00  0.00    +0.137 C 
ATOM     20  C   UNL     1      -0.939   3.130  -1.438  0.00  0.00    +0.029 C 
BRANCH  19  21
ATOM     21  C   UNL     1      -0.581   5.099   0.026  0.00  0.00    +0.230 C 
ATOM     22  O   UNL     1       0.270   5.891  -0.321  0.00  0.00    -0.274 OA
ATOM     23  N   UNL     1      -1.744   5.544   0.541  0.00  0.00    -0.284 N 
ATOM     24  H   UNL     1      -2.477   4.828   0.943  0.00  0.00    +0.155 HD
BRANCH  23  25
ATOM     25  C   UNL     1      -2.019   6.910   0.565  0.00  0.00    +0.051 A 
ATOM     26  C   UNL     1      -1.564   7.731  -0.457  0.00  0.00    +0.024 A 
ATOM     27  C   UNL     1      -1.841   9.084  -0.433  0.00  0.00    +0.002 A 
ATOM     28  C   UNL     1      -2.565   9.633   0.612  0.00  0.00    +0.001 A 
ATOM     29  C   UNL     1      -3.022   8.834   1.638  0.00  0.00    +0.021 A 
ATOM     30  C   UNL     1      -2.753   7.463   1.626  0.00  0.00    +0.073 A 
BRANCH  30  31
ATOM     31  C   UNL     1      -3.224   6.627   2.689  0.00  0.00    +0.101 C 
ATOM     32  N   UNL     1      -3.597   5.964   3.533  0.00  0.00    -0.191 NA
ENDBRANCH  30  31
ENDBRANCH  23  25
ENDBRANCH  19  21
ENDBRANCH  18  19
ENDBRANCH  12  18
TORSDOF 6
