REMARK  Name = ZINC20892968
REMARK  7 active torsions:
REMARK  status: ('A' for Active; 'I' for Inactive)
REMARK    1  A    between atoms: C_1  and  C_2
REMARK    2  A    between atoms: N_5  and  C_7
REMARK    3  A    between atoms: C_19  and  C_21
REMARK    4  A    between atoms: C_24  and  O_27
REMARK    5  A    between atoms: O_27  and  C_28
REMARK    6  A    between atoms: C_28  and  C_29
REMARK    7  A    between atoms: C_28  and  C_30
REMARK                            x       y       z     vdW  Elec       q    Type
REMARK                         _______ _______ _______ _____ _____    ______ ____
ROOT
ATOM      1  C   UNL     1      -3.758   0.866   3.616  0.00  0.00    +0.068 C 
ATOM      2  C   UNL     1      -3.955   0.666   5.096  0.00  0.00    +0.067 A 
ATOM      3  C   UNL     1      -3.938  -0.576   5.766  0.00  0.00    +0.033 A 
ATOM      4  C   UNL     1      -4.152  -0.340   7.079  0.00  0.00    +0.133 A 
ATOM      5  N   UNL     1      -4.300   1.022   7.224  0.00  0.00    -0.216 N 
ATOM      6  N   UNL     1      -4.170   1.611   5.966  0.00  0.00    -0.170 NA
ATOM      7  N   UNL     1      -4.238  -1.183   8.161  0.00  0.00    -0.269 N 
ATOM      8  C   UNL     1      -4.103  -2.462   8.340  0.00  0.00    +0.228 C 
ATOM      9  O   UNL     1      -4.156  -2.824   9.497  0.00  0.00    -0.275 OA
ATOM     10  C   UNL     1      -3.895  -3.548   7.358  0.00  0.00    +0.166 C 
ATOM     11  S   UNL     1      -2.804  -3.074   6.009  0.00  0.00    -0.138 S 
ATOM     12  C   UNL     1      -3.711  -1.865   5.041  0.00  0.00    +0.112 C 
ATOM     13  H   UNL     1      -4.471  -0.777   9.157  0.00  0.00    +0.156 HD
ENDROOT
BRANCH   5  14
ATOM     14  C   UNL     1      -4.540   1.699   8.428  0.00  0.00    +0.086 A 
ATOM     15  C   UNL     1      -3.743   1.449   9.537  0.00  0.00    +0.029 A 
ATOM     16  C   UNL     1      -3.979   2.121  10.721  0.00  0.00    +0.002 A 
ATOM     17  C   UNL     1      -5.014   3.035  10.805  0.00  0.00    +0.002 A 
ATOM     18  C   UNL     1      -5.812   3.284   9.704  0.00  0.00    +0.022 A 
ATOM     19  C   UNL     1      -5.579   2.618   8.515  0.00  0.00    +0.066 A 
ATOM     20 CL   UNL     1      -6.582   2.929   7.133  0.00  0.00    -0.081 Cl
ENDBRANCH   5  14
BRANCH  12  21
ATOM     21  C   UNL     1      -2.939  -1.580   3.778  0.00  0.00    -0.030 A 
ATOM     22  C   UNL     1      -3.505  -1.852   2.546  0.00  0.00    +0.008 A 
ATOM     23  C   UNL     1      -2.799  -1.592   1.388  0.00  0.00    +0.046 A 
ATOM     24  C   UNL     1      -1.522  -1.056   1.461  0.00  0.00    +0.121 A 
ATOM     25  C   UNL     1      -0.954  -0.788   2.698  0.00  0.00    +0.046 A 
ATOM     26  C   UNL     1      -1.665  -1.046   3.853  0.00  0.00    +0.008 A 
BRANCH  24  27
ATOM     27  O   UNL     1      -0.825  -0.798   0.322  0.00  0.00    -0.489 OA
BRANCH  27  28
ATOM     28  C   UNL     1       0.522  -0.346   0.474  0.00  0.00    +0.167 C 
ATOM     29  C   UNL     1       0.534   1.176   0.630  0.00  0.00    +0.051 C 
ATOM     30  C   UNL     1       1.333  -0.738  -0.762  0.00  0.00    +0.051 C 
ENDBRANCH  27  28
ENDBRANCH  24  27
ENDBRANCH  12  21
TORSDOF 4
