REMARK  Name = ZINC56718073
REMARK  9 active torsions:
REMARK  status: ('A' for Active; 'I' for Inactive)
REMARK    1  A    between atoms: C_1  and  C_2
REMARK    2  A    between atoms: C_2  and  C_4
REMARK    3  A    between atoms: C_2  and  N_14
REMARK    4  A    between atoms: C_7  and  S_10
REMARK    5  A    between atoms: S_10  and  N_13
REMARK    6  A    between atoms: N_14  and  C_15
REMARK    7  A    between atoms: N_18  and  C_19
REMARK    8  A    between atoms: C_22  and  O_26
REMARK    9  A    between atoms: O_26  and  C_27
REMARK                            x       y       z     vdW  Elec       q    Type
REMARK                         _______ _______ _______ _____ _____    ______ ____
ROOT
ATOM      1  N   UNL     1       0.674  -0.495   1.299  0.00  0.00    -0.282 N 
ATOM      2  C   UNL     1       2.021  -0.100   1.717  0.00  0.00    +0.134 C 
ATOM      3  C   UNL     1      -0.054  -1.329   2.068  0.00  0.00    +0.307 C 
ATOM      4  O   UNL     1      -1.172  -1.656   1.721  0.00  0.00    -0.252 OA
ATOM      5  N   UNL     1       0.459  -1.799   3.223  0.00  0.00    -0.269 N 
ATOM      6  H   UNL     1       1.374  -1.591   3.468  0.00  0.00    +0.156 HD
ENDROOT
BRANCH   5   7
ATOM      7  C   UNL     1      -0.331  -2.588   4.069  0.00  0.00    +0.040 A 
ATOM      8  C   UNL     1      -0.192  -2.483   5.447  0.00  0.00    +0.065 A 
ATOM      9  C   UNL     1      -0.971  -3.263   6.282  0.00  0.00    +0.169 A 
ATOM     10  C   UNL     1      -1.893  -4.150   5.744  0.00  0.00    +0.190 A 
ATOM     11  C   UNL     1      -2.033  -4.255   4.367  0.00  0.00    +0.169 A 
ATOM     12  C   UNL     1      -1.257  -3.471   3.531  0.00  0.00    +0.065 A 
ATOM     13  F   UNL     1      -2.930  -5.118   3.842  0.00  0.00    -0.201 F 
ATOM     14  F   UNL     1      -0.835  -3.161   7.622  0.00  0.00    -0.201 F 
BRANCH  10  15
ATOM     15  O   UNL     1      -2.660  -4.917   6.566  0.00  0.00    -0.490 OA
ATOM     16  C   UNL     1      -3.914  -4.372   6.979  0.00  0.00    +0.277 C 
ENDBRANCH  10  15
ENDBRANCH   5   7
BRANCH   1  18
ATOM     17  C   UNL     1       0.171   1.546   0.048  0.00  0.00    +0.033 C 
ATOM     18  C   UNL     1       0.117   0.016   0.044  0.00  0.00    +0.104 C 
BRANCH  18  19
ATOM     19  C   UNL     1       0.923  -0.511  -1.115  0.00  0.00    -0.027 A 
ATOM     20  C   UNL     1       1.539  -1.746  -1.024  0.00  0.00    +0.007 A 
ATOM     21  C   UNL     1       2.279  -2.230  -2.087  0.00  0.00    +0.029 A 
ATOM     22  C   UNL     1       2.401  -1.480  -3.241  0.00  0.00    +0.105 A 
ATOM     23  C   UNL     1       1.785  -0.246  -3.333  0.00  0.00    +0.029 A 
ATOM     24  C   UNL     1       1.042   0.236  -2.272  0.00  0.00    +0.007 A 
BRANCH  22  25
ATOM     25  S   UNL     1       3.345  -2.096  -4.596  0.00  0.00    +0.056 S 
ATOM     26  O   UNL     1       3.756  -0.966  -5.352  0.00  0.00    -0.153 OA
ATOM     27  O   UNL     1       4.270  -3.029  -4.055  0.00  0.00    -0.153 OA
BRANCH  25  28
ATOM     28  N   UNL     1       2.311  -2.960  -5.560  0.00  0.00    -0.204 NA
ATOM     29  H   UNL     1       2.470  -3.014  -6.515  0.00  0.00    +0.144 HD
ATOM     30  H   UNL     1       1.547  -3.411  -5.169  0.00  0.00    +0.144 HD
ENDBRANCH  25  28
ENDBRANCH  22  25
ENDBRANCH  18  19
ENDBRANCH   1  18
TORSDOF 6
