REMARK  Name = ZINC49573560
REMARK  10 active torsions:
REMARK  status: ('A' for Active; 'I' for Inactive)
REMARK    1  A    between atoms: C_1  and  C_2
REMARK    2  A    between atoms: C_2  and  C_3
REMARK    3  A    between atoms: C_2  and  C_4
REMARK    4  A    between atoms: C_10  and  C_11
REMARK    5  A    between atoms: N_13  and  C_20
REMARK    6  A    between atoms: C_20  and  C_21
REMARK    7  A    between atoms: C_21  and  O_22
REMARK    8  A    between atoms: O_22  and  C_23
REMARK    9  A    between atoms: C_28  and  O_29
REMARK   10  A    between atoms: O_29  and  C_30
REMARK                            x       y       z     vdW  Elec       q    Type
REMARK                         _______ _______ _______ _____ _____    ______ ____
ROOT
ATOM      1  C   UNL     1      -7.042  -4.368   1.928  0.00  0.00    +0.001 A 
ATOM      2  C   UNL     1      -7.644  -4.429   0.686  0.00  0.00    +0.095 A 
ATOM      3  N   UNL     1      -8.647  -5.328   0.715  0.00  0.00    -0.343 N 
ATOM      4  C   UNL     1      -8.755  -5.900   1.967  0.00  0.00    +0.050 A 
ATOM      5  C   UNL     1      -7.760  -5.336   2.781  0.00  0.00    +0.007 A 
ATOM      6  C   UNL     1      -7.633  -5.736   4.107  0.00  0.00    +0.010 A 
ATOM      7  C   UNL     1      -8.486  -6.691   4.618  0.00  0.00    +0.001 A 
ATOM      8  C   UNL     1      -9.468  -7.252   3.814  0.00  0.00    +0.002 A 
ATOM      9  C   UNL     1      -9.610  -6.859   2.501  0.00  0.00    +0.026 A 
ENDROOT
BRANCH   1  16
ATOM     10  C   UNL     1      -2.857   0.732  -0.362  0.00  0.00    +0.102 C 
ATOM     11  N   UNL     1      -3.038  -0.097   0.626  0.00  0.00    -0.169 NA
ATOM     12  N   UNL     1      -4.282  -0.625   0.898  0.00  0.00    -0.154 N 
ATOM     13  C   UNL     1      -4.606  -1.456   1.992  0.00  0.00    +0.132 C 
ATOM     14  N   UNL     1      -3.905  -1.496   3.095  0.00  0.00    -0.385 N 
ATOM     15  C   UNL     1      -5.823  -2.281   1.766  0.00  0.00    +0.079 C 
ATOM     16  C   UNL     1      -5.954  -3.548   2.305  0.00  0.00    +0.026 C 
ATOM     17  C   UNL     1      -6.888  -1.674   0.935  0.00  0.00    +0.273 C 
ATOM     18  O   UNL     1      -8.052  -2.023   1.052  0.00  0.00    -0.268 OA
ATOM     19  N   UNL     1      -6.535  -0.724   0.045  0.00  0.00    -0.152 NA
ATOM     20  C   UNL     1      -5.303  -0.283   0.036  0.00  0.00    +0.181 C 
ATOM     21  S   UNL     1      -4.500   0.864  -1.052  0.00  0.00    -0.038 S 
ATOM     22  H   UNL     1      -3.118  -0.936   3.191  0.00  0.00    +0.157 HD
ATOM     23  H   UNL     1      -4.171  -2.086   3.818  0.00  0.00    +0.157 HD
BRANCH  10  25
ATOM     24  C   UNL     1      -1.501   2.799  -0.169  0.00  0.00    +0.014 C 
ATOM     25  C   UNL     1      -1.587   1.410  -0.806  0.00  0.00    +0.040 C 
ATOM     26  C   UNL     1      -0.382   0.574  -0.370  0.00  0.00    +0.014 C 
ENDBRANCH  10  25
ENDBRANCH   1  16
BRANCH   3  27
ATOM     27  C   UNL     1      -9.506  -5.654  -0.426  0.00  0.00    +0.163 C 
BRANCH  27  28
ATOM     28  C   UNL     1     -10.784  -4.815  -0.359  0.00  0.00    +0.250 C 
BRANCH  28  29
ATOM     29  O   UNL     1     -11.622  -5.133  -1.472  0.00  0.00    -0.487 OA
BRANCH  29  30
ATOM     30  C   UNL     1     -12.806  -4.470  -1.563  0.00  0.00    +0.162 A 
ATOM     31  C   UNL     1     -13.151  -3.531  -0.605  0.00  0.00    +0.049 A 
ATOM     32  C   UNL     1     -14.355  -2.858  -0.698  0.00  0.00    +0.004 A 
ATOM     33  C   UNL     1     -15.217  -3.120  -1.747  0.00  0.00    +0.004 A 
ATOM     34  C   UNL     1     -14.879  -4.057  -2.706  0.00  0.00    +0.049 A 
ATOM     35  C   UNL     1     -13.671  -4.730  -2.621  0.00  0.00    +0.161 A 
BRANCH  35  36
ATOM     36  O   UNL     1     -13.335  -5.647  -3.567  0.00  0.00    -0.491 OA
ATOM     37  C   UNL     1     -14.271  -5.863  -4.625  0.00  0.00    +0.277 C 
ENDBRANCH  35  36
ENDBRANCH  29  30
ENDBRANCH  28  29
ENDBRANCH  27  28
ENDBRANCH   3  27
TORSDOF 7
