REMARK  Name = ZINC20873272
REMARK  17 active torsions:
REMARK  status: ('A' for Active; 'I' for Inactive)
REMARK    1  A    between atoms: C_1  and  C_2
REMARK    2  A    between atoms: C_2  and  C_3
REMARK    3  A    between atoms: C_2  and  C_4
REMARK    4  A    between atoms: C_2  and  C_5
REMARK    5  A    between atoms: C_5  and  C_6
REMARK    6  A    between atoms: C_6  and  C_7
REMARK    7  A    between atoms: C_6  and  C_8
REMARK    8  A    between atoms: C_6  and  N_9
REMARK    9  A    between atoms: N_9  and  C_10
REMARK   10  A    between atoms: C_10  and  C_11
REMARK   11  A    between atoms: C_16  and  O_17
REMARK   12  A    between atoms: O_17  and  C_18
REMARK   13  A    between atoms: C_18  and  C_19
REMARK   14  A    between atoms: N_21  and  C_22
REMARK   15  A    between atoms: C_22  and  C_23
REMARK   16  A    between atoms: C_22  and  C_24
REMARK   17  A    between atoms: C_22  and  C_25
REMARK                            x       y       z     vdW  Elec       q    Type
REMARK                         _______ _______ _______ _____ _____    ______ ____
ROOT
ATOM      1  C   UNL     1       2.551   1.996  -1.154  0.00  0.00    -0.022 A 
ATOM      2  C   UNL     1       1.282   2.531  -1.048  0.00  0.00    +0.020 A 
ATOM      3  C   UNL     1       0.188   1.816  -1.502  0.00  0.00    +0.018 A 
ATOM      4  C   UNL     1       0.364   0.566  -2.068  0.00  0.00    +0.019 A 
ATOM      5  C   UNL     1       1.630   0.025  -2.172  0.00  0.00    +0.047 A 
ATOM      6  C   UNL     1       2.728   0.741  -1.717  0.00  0.00    +0.123 A 
ATOM      7 BR   UNL     1      -1.548   2.552  -1.356  0.00  0.00    -0.050 Br
ENDROOT
BRANCH   1   8
ATOM      8  C   UNL     1       3.742   2.775  -0.659  0.00  0.00    -0.042 C 
BRANCH   8   9
ATOM      9  N   UNL     1       4.412   3.420  -1.796  0.00  0.00    +0.385 N 
ATOM     10  H   UNL     1       3.697   4.093  -2.292  0.00  0.00    -0.085 HD
ATOM     11  H   UNL     1       4.735   2.642  -2.504  0.00  0.00    -0.085 HD
BRANCH   9  12
ATOM     12  C   UNL     1       5.581   4.191  -1.351  0.00  0.00    -0.073 C 
ATOM     13  C   UNL     1       5.133   5.274  -0.367  0.00  0.00    -0.010 C 
ATOM     14  C   UNL     1       6.576   3.255  -0.661  0.00  0.00    -0.010 C 
BRANCH  12  15
ATOM     15  C   UNL     1       6.251   4.846  -2.560  0.00  0.00    -0.007 C 
BRANCH  15  17
ATOM     16  C   UNL     1       5.091   7.036  -2.241  0.00  0.00    +0.010 C 
ATOM     17  C   UNL     1       5.289   5.854  -3.192  0.00  0.00    -0.039 C 
ATOM     18  C   UNL     1       5.873   6.356  -4.514  0.00  0.00    +0.010 C 
ATOM     19  C   UNL     1       3.942   5.178  -3.453  0.00  0.00    +0.010 C 
ENDBRANCH  15  17
ENDBRANCH  12  15
ENDBRANCH   9  12
ENDBRANCH   8   9
ENDBRANCH   1   8
BRANCH   6  20
ATOM     20  O   UNL     1       3.976   0.213  -1.823  0.00  0.00    -0.483 OA
BRANCH  20  21
ATOM     21  C   UNL     1       4.084  -1.084  -2.414  0.00  0.00    +0.324 C 
BRANCH  21  22
ATOM     22  C   UNL     1       5.531  -1.503  -2.447  0.00  0.00    +0.251 C 
ATOM     23  O   UNL     1       6.386  -0.763  -2.008  0.00  0.00    -0.272 OA
ATOM     24  N   UNL     1       5.875  -2.699  -2.964  0.00  0.00    -0.308 N 
ATOM     25  H   UNL     1       5.099  -3.370  -3.362  0.00  0.00    +0.149 HD
BRANCH  24  26
ATOM     26  C   UNL     1       7.282  -3.106  -2.997  0.00  0.00    +0.026 C 
ATOM     27  C   UNL     1       7.834  -3.147  -1.570  0.00  0.00    +0.031 C 
ATOM     28  C   UNL     1       7.397  -4.494  -3.629  0.00  0.00    +0.031 C 
ATOM     29  C   UNL     1       8.085  -2.100  -3.825  0.00  0.00    +0.031 C 
ENDBRANCH  24  26
ENDBRANCH  21  22
ENDBRANCH  20  21
ENDBRANCH   6  20
TORSDOF 9
