REMARK  Name = ZINC09886421
REMARK  12 active torsions:
REMARK  status: ('A' for Active; 'I' for Inactive)
REMARK    1  A    between atoms: C_1  and  N_2
REMARK    2  A    between atoms: N_2  and  C_3
REMARK    3  A    between atoms: N_2  and  S_10
REMARK    4  A    between atoms: C_3  and  C_4
REMARK    5  A    between atoms: S_10  and  C_13
REMARK    6  A    between atoms: C_16  and  N_19
REMARK    7  A    between atoms: N_19  and  C_20
REMARK    8  A    between atoms: C_20  and  N_22
REMARK    9  A    between atoms: C_23  and  C_25
REMARK   10  A    between atoms: C_26  and  C_27
REMARK   11  A    between atoms: C_32  and  O_33
REMARK   12  A    between atoms: O_33  and  C_34
REMARK                            x       y       z     vdW  Elec       q    Type
REMARK                         _______ _______ _______ _____ _____    ______ ____
ROOT
ATOM      1  C   UNL     1      -5.836   3.203  -0.103  0.00  0.00    +0.106 A 
ATOM      2  C   UNL     1      -5.912   1.824  -0.035  0.00  0.00    +0.030 A 
ATOM      3  C   UNL     1      -4.756   1.069   0.005  0.00  0.00    +0.025 A 
ATOM      4  C   UNL     1      -3.518   1.696  -0.023  0.00  0.00    +0.033 A 
ATOM      5  C   UNL     1      -3.445   3.082  -0.086  0.00  0.00    +0.025 A 
ATOM      6  C   UNL     1      -4.604   3.831  -0.132  0.00  0.00    +0.030 A 
ENDROOT
BRANCH   1   7
ATOM      7  S   UNL     1      -7.313   4.163  -0.154  0.00  0.00    +0.061 S 
ATOM      8  O   UNL     1      -6.973   5.400  -0.766  0.00  0.00    -0.153 OA
ATOM      9  O   UNL     1      -8.332   3.315  -0.666  0.00  0.00    -0.153 OA
BRANCH   7  11
ATOM     10  C   UNL     1      -8.603   3.599   2.155  0.00  0.00    +0.132 C 
ATOM     11  N   UNL     1      -7.727   4.508   1.411  0.00  0.00    -0.175 NA
BRANCH  11  12
ATOM     12  C   UNL     1      -7.218   5.723   2.053  0.00  0.00    +0.144 C 
BRANCH  12  13
ATOM     13  C   UNL     1      -8.237   6.826   1.920  0.00  0.00    -0.032 A 
ATOM     14  C   UNL     1      -8.200   7.672   0.827  0.00  0.00    +0.005 A 
ATOM     15  C   UNL     1      -9.137   8.680   0.702  0.00  0.00    +0.000 A 
ATOM     16  C   UNL     1     -10.104   8.850   1.675  0.00  0.00    +0.000 A 
ATOM     17  C   UNL     1     -10.138   8.007   2.771  0.00  0.00    +0.000 A 
ATOM     18  C   UNL     1      -9.204   6.995   2.893  0.00  0.00    +0.005 A 
ENDBRANCH  12  13
ENDBRANCH  11  12
ENDBRANCH   7  11
ENDBRANCH   1   7
BRANCH   4  19
ATOM     19  N   UNL     1      -2.345   0.934   0.018  0.00  0.00    -0.297 N 
ATOM     20  H   UNL     1      -1.619   1.193   0.607  0.00  0.00    +0.154 HD
BRANCH  19  21
ATOM     21  C   UNL     1      -2.225  -0.160  -0.760  0.00  0.00    +0.141 C 
ATOM     22  S   UNL     1      -3.546  -0.678  -1.718  0.00  0.00    -0.018 S 
BRANCH  21  23
ATOM     23  N   UNL     1      -1.065  -0.845  -0.784  0.00  0.00    -0.264 N 
ATOM     24  C   UNL     1      -0.946  -1.942  -1.558  0.00  0.00    +0.242 C 
ATOM     25  O   UNL     1      -1.885  -2.311  -2.239  0.00  0.00    -0.270 OA
ATOM     26  H   UNL     1      -0.316  -0.551  -0.242  0.00  0.00    +0.157 HD
BRANCH  24  27
ATOM     27  C   UNL     1       0.310  -2.688  -1.580  0.00  0.00    +0.068 C 
ATOM     28  C   UNL     1       0.429  -3.788  -2.356  0.00  0.00    +0.016 C 
BRANCH  28  29
ATOM     29  C   UNL     1       1.692  -4.538  -2.378  0.00  0.00    +0.017 A 
ATOM     30  C   UNL     1       2.774  -4.118  -1.597  0.00  0.00    +0.011 A 
ATOM     31  C   UNL     1       3.955  -4.827  -1.622  0.00  0.00    +0.001 A 
ATOM     32  C   UNL     1       4.076  -5.956  -2.417  0.00  0.00    +0.004 A 
ATOM     33  C   UNL     1       3.016  -6.382  -3.193  0.00  0.00    +0.046 A 
ATOM     34  C   UNL     1       1.818  -5.685  -3.178  0.00  0.00    +0.127 A 
BRANCH  34  35
ATOM     35  O   UNL     1       0.774  -6.106  -3.936  0.00  0.00    -0.495 OA
ATOM     36  C   UNL     1       0.977  -7.281  -4.724  0.00  0.00    +0.277 C 
ENDBRANCH  34  35
ENDBRANCH  28  29
ENDBRANCH  24  27
ENDBRANCH  21  23
ENDBRANCH  19  21
ENDBRANCH   4  19
TORSDOF 10
