REMARK  Name = ZINC09422520
REMARK  2 active torsions:
REMARK  status: ('A' for Active; 'I' for Inactive)
REMARK    1  A    between atoms: C_4  and  C_7
REMARK    2  A    between atoms: N_18  and  C_19
REMARK                            x       y       z     vdW  Elec       q    Type
REMARK                         _______ _______ _______ _____ _____    ______ ____
ROOT
ATOM      1  C   UNL     1      -2.482   5.160   0.493  0.00  0.00    +0.198 C 
ATOM      2  N   UNL     1      -2.366   3.833  -0.123  0.00  0.00    -0.321 N 
ATOM      3  C   UNL     1      -1.173   3.132   0.016  0.00  0.00    +0.041 A 
ATOM      4  C   UNL     1      -1.135   1.748  -0.004  0.00  0.00    +0.024 A 
ATOM      5  C   UNL     1       0.075   1.095   0.129  0.00  0.00    +0.002 A 
ATOM      6  C   UNL     1       1.252   1.814   0.271  0.00  0.00    +0.001 A 
ATOM      7  C   UNL     1       1.231   3.193   0.292  0.00  0.00    +0.015 A 
ATOM      8  C   UNL     1       0.017   3.864   0.169  0.00  0.00    +0.058 A 
ATOM      9  C   UNL     1      -0.059   5.335   0.184  0.00  0.00    +0.254 C 
ATOM     10  O   UNL     1       0.957   6.003   0.131  0.00  0.00    -0.270 OA
ATOM     11  N   UNL     1      -1.264   5.936   0.258  0.00  0.00    -0.244 N 
ATOM     12  H   UNL     1      -3.108   3.452  -0.619  0.00  0.00    +0.148 HD
ENDROOT
BRANCH  11  13
ATOM     13  C   UNL     1      -1.351   7.324   0.106  0.00  0.00    +0.042 A 
ATOM     14  C   UNL     1      -0.643   8.163   0.957  0.00  0.00    +0.026 A 
ATOM     15  C   UNL     1      -0.730   9.533   0.806  0.00  0.00    +0.043 A 
ATOM     16  C   UNL     1      -1.523  10.072  -0.192  0.00  0.00    +0.159 A 
ATOM     17  C   UNL     1      -2.231   9.237  -1.044  0.00  0.00    +0.160 A 
ATOM     18  C   UNL     1      -2.141   7.865  -0.899  0.00  0.00    +0.065 A 
ATOM     19  F   UNL     1      -3.005   9.765  -2.018  0.00  0.00    -0.202 F 
ATOM     20  F   UNL     1      -1.607  11.412  -0.338  0.00  0.00    -0.202 F 
ENDBRANCH  11  13
BRANCH   1  24
ATOM     21  C   UNL     1      -3.085   4.717   4.699  0.00  0.00    +0.000 A 
ATOM     22  C   UNL     1      -3.545   3.746   3.829  0.00  0.00    +0.000 A 
ATOM     23  C   UNL     1      -3.349   3.889   2.468  0.00  0.00    +0.007 A 
ATOM     24  C   UNL     1      -2.695   5.003   1.977  0.00  0.00    -0.009 A 
ATOM     25  C   UNL     1      -2.230   5.972   2.848  0.00  0.00    +0.007 A 
ATOM     26  C   UNL     1      -2.430   5.831   4.208  0.00  0.00    +0.000 A 
ENDBRANCH   1  24
TORSDOF 2
