REMARK  Name = ZINC20779215
REMARK  3 active torsions:
REMARK  status: ('A' for Active; 'I' for Inactive)
REMARK    1  A    between atoms: N_7  and  C_10
REMARK    2  A    between atoms: C_10  and  C_11
REMARK    3  A    between atoms: C_12  and  C_19
REMARK                            x       y       z     vdW  Elec       q    Type
REMARK                         _______ _______ _______ _____ _____    ______ ____
ROOT
ATOM      1  C   UNL     1      -0.712  -0.894   4.834  0.00  0.00    +0.070 A 
ATOM      2  C   UNL     1       0.033  -0.902   3.696  0.00  0.00    +0.149 A 
ATOM      3  N   UNL     1       1.196  -1.548   3.965  0.00  0.00    -0.216 NA
ATOM      4  C   UNL     1       1.187  -1.918   5.210  0.00  0.00    +0.178 A 
ATOM      5  N   UNL     1       0.014  -1.542   5.817  0.00  0.00    -0.295 N 
ATOM      6  C   UNL     1      -0.135  -1.876   7.146  0.00  0.00    +0.100 A 
ATOM      7  C   UNL     1       0.824  -2.534   7.796  0.00  0.00    +0.067 A 
ATOM      8  S   UNL     1       2.061  -2.737   6.524  0.00  0.00    -0.058 S 
ENDROOT
BRANCH   2   9
ATOM      9  C   UNL     1      -0.357  -0.320   2.400  0.00  0.00    +0.267 C 
ATOM     10  O   UNL     1      -1.387   0.320   2.306  0.00  0.00    -0.268 OA
ATOM     11  N   UNL     1       0.428  -0.497   1.318  0.00  0.00    -0.296 N 
ATOM     12  C   UNL     1       1.699  -1.225   1.434  0.00  0.00    +0.108 C 
ATOM     13  C   UNL     1       1.408  -2.693   1.721  0.00  0.00    +0.019 C 
ATOM     14  C   UNL     1       0.863  -3.358   0.446  0.00  0.00    +0.002 C 
ATOM     15  C   UNL     1      -0.603  -2.979   0.264  0.00  0.00    +0.000 C 
ATOM     16  C   UNL     1      -0.788  -2.105  -0.990  0.00  0.00    +0.002 C 
ATOM     17  C   UNL     1       0.305  -1.038  -1.041  0.00  0.00    +0.019 C 
ATOM     18  C   UNL     1       0.026   0.030   0.025  0.00  0.00    +0.108 C 
ENDBRANCH   2   9
BRANCH   1  19
ATOM     19  C   UNL     1      -2.082  -0.287   4.996  0.00  0.00    +0.141 C 
BRANCH  19  26
ATOM     20  C   UNL     1      -0.399   4.325   4.281  0.00  0.00    +0.013 A 
ATOM     21  C   UNL     1      -0.382   5.586   4.774  0.00  0.00    +0.046 A 
ATOM     22  S   UNL     1      -1.587   5.484   6.089  0.00  0.00    -0.101 S 
ATOM     23  C   UNL     1      -2.020   3.780   5.883  0.00  0.00    -0.005 A 
ATOM     24  C   UNL     1      -1.242   3.370   4.843  0.00  0.00    -0.023 A 
ATOM     25  C   UNL     1      -1.331   1.925   4.360  0.00  0.00    +0.120 C 
ATOM     26  N   UNL     1      -1.950   1.115   5.417  0.00  0.00    -0.292 NA
ATOM     27  C   UNL     1      -3.246   1.661   5.844  0.00  0.00    +0.090 C 
ATOM     28  C   UNL     1      -3.000   2.950   6.646  0.00  0.00    +0.058 C 
ENDBRANCH  19  26
ENDBRANCH   1  19
TORSDOF 3
