REMARK  Name = ZINC37440341
REMARK  4 active torsions:
REMARK  status: ('A' for Active; 'I' for Inactive)
REMARK    1  A    between atoms: C_1  and  C_2
REMARK    2  A    between atoms: C_2  and  N_3
REMARK    3  A    between atoms: C_11  and  C_12
REMARK    4  A    between atoms: C_13  and  C_18
REMARK                            x       y       z     vdW  Elec       q    Type
REMARK                         _______ _______ _______ _____ _____    ______ ____
ROOT
ATOM      1  N   UNL     1       0.688  -0.476  -1.203  0.00  0.00    -0.327 N 
ATOM      2  C   UNL     1       0.103  -0.745  -2.426  0.00  0.00    +0.069 A 
ATOM      3  C   UNL     1      -1.196  -0.676  -2.910  0.00  0.00    +0.029 A 
ATOM      4  C   UNL     1      -1.460  -1.024  -4.217  0.00  0.00    +0.022 A 
ATOM      5  C   UNL     1      -0.434  -1.442  -5.055  0.00  0.00    +0.043 A 
ATOM      6  C   UNL     1       0.861  -1.516  -4.592  0.00  0.00    +0.050 A 
ATOM      7  C   UNL     1       1.145  -1.168  -3.268  0.00  0.00    +0.091 A 
ATOM      8  N   UNL     1       2.286  -1.137  -2.534  0.00  0.00    -0.231 NA
ATOM      9  C   UNL     1       2.019  -0.727  -1.328  0.00  0.00    +0.128 A 
ATOM     10 CL   UNL     1      -0.787  -1.876  -6.699  0.00  0.00    -0.083 Cl
ENDROOT
BRANCH   9  11
ATOM     11  C   UNL     1       3.036  -0.558  -0.228  0.00  0.00    +0.144 C 
ATOM     12  C   UNL     1       3.460  -1.901   0.330  0.00  0.00    -0.050 C 
ATOM     13  C   UNL     1       4.714  -2.228   0.210  0.00  0.00    +0.034 C 
ATOM     14  C   UNL     1       5.659  -1.305  -0.449  0.00  0.00    +0.089 C 
ATOM     15  S   UNL     1       4.626   0.083  -0.893  0.00  0.00    -0.091 S 
ATOM     16  N   UNL     1       6.938  -1.465  -0.656  0.00  0.00    -0.293 NA
ATOM     17  C   UNL     1       2.471  -2.821   0.998  0.00  0.00    +0.041 C 
ATOM     18  H   UNL     1       7.380  -2.276  -0.360  0.00  0.00    +0.187 HD
ENDBRANCH   9  11
BRANCH   1  20
ATOM     19  C   UNL     1      -0.019   1.526   0.010  0.00  0.00    +0.027 C 
ATOM     20  C   UNL     1       0.002  -0.004   0.002  0.00  0.00    +0.120 C 
ENDBRANCH   1  20
TORSDOF 2
