REMARK  Name = ZINC20472179
REMARK  4 active torsions:
REMARK  status: ('A' for Active; 'I' for Inactive)
REMARK    1  A    between atoms: C_1  and  C_2
REMARK    2  A    between atoms: C_8  and  C_10
REMARK    3  A    between atoms: C_13  and  C_15
REMARK    4  A    between atoms: C_21  and  C_23
REMARK                            x       y       z     vdW  Elec       q    Type
REMARK                         _______ _______ _______ _____ _____    ______ ____
ROOT
ATOM      1  C   UNL     1       0.259  -4.855   3.253  0.00  0.00    +0.075 A 
ATOM      2  C   UNL     1       0.252  -6.238   3.141  0.00  0.00    +0.021 A 
ATOM      3  C   UNL     1       0.208  -6.932   4.326  0.00  0.00    +0.014 A 
ATOM      4  C   UNL     1       0.175  -6.242   5.493  0.00  0.00    +0.011 A 
ATOM      5  S   UNL     1       0.210  -4.631   5.020  0.00  0.00    -0.087 S 
ENDROOT
BRANCH   1  13
ATOM      6  C   UNL     1       0.417   2.020   0.697  0.00  0.00    +0.066 C 
ATOM      7  C   UNL     1       0.402   0.518   0.568  0.00  0.00    +0.047 A 
ATOM      8  C   UNL     1       0.430  -0.088  -0.644  0.00  0.00    +0.071 A 
ATOM      9  S   UNL     1       0.396  -1.806  -0.157  0.00  0.00    -0.060 S 
ATOM     10  C   UNL     1       0.349  -1.575   1.510  0.00  0.00    +0.165 A 
ATOM     11  N   UNL     1       0.367  -0.265   1.631  0.00  0.00    -0.230 NA
ATOM     12  N   UNL     1       0.308  -2.534   2.513  0.00  0.00    -0.260 N 
ATOM     13  C   UNL     1       0.302  -3.843   2.194  0.00  0.00    +0.256 C 
ATOM     14  O   UNL     1       0.333  -4.185   1.026  0.00  0.00    -0.269 OA
ATOM     15  H   UNL     1       0.284  -2.261   3.444  0.00  0.00    +0.157 HD
ENDBRANCH   1  13
BRANCH   4  16
ATOM     16  C   UNL     1       0.124  -6.795   6.894  0.00  0.00    +0.113 C 
ATOM     17  C   UNL     1       1.525  -6.726   7.537  0.00  0.00    +0.029 C 
ATOM     18  C   UNL     1       1.214  -6.335   9.006  0.00  0.00    +0.021 C 
ATOM     19  C   UNL     1       0.001  -5.389   8.826  0.00  0.00    +0.109 C 
ATOM     20  N   UNL     1      -0.780  -5.982   7.720  0.00  0.00    -0.289 N 
ATOM     21  C   UNL     1      -2.098  -5.806   7.502  0.00  0.00    +0.263 C 
ATOM     22  O   UNL     1      -2.628  -6.316   6.533  0.00  0.00    -0.268 OA
BRANCH  21  23
ATOM     23  C   UNL     1      -2.894  -4.999   8.434  0.00  0.00    +0.102 A 
ATOM     24  C   UNL     1      -4.266  -4.865   8.428  0.00  0.00    +0.032 A 
ATOM     25  C   UNL     1      -4.600  -4.009   9.483  0.00  0.00    +0.020 A 
ATOM     26  C   UNL     1      -3.451  -3.643  10.100  0.00  0.00    +0.083 A 
ATOM     27  N   UNL     1      -2.408  -4.242   9.475  0.00  0.00    -0.357 N 
ATOM     28  H   UNL     1      -1.474  -4.151   9.720  0.00  0.00    +0.165 HD
ENDBRANCH  21  23
ENDBRANCH   4  16
TORSDOF 3
