REMARK  Name = ZINC40815357
REMARK  7 active torsions:
REMARK  status: ('A' for Active; 'I' for Inactive)
REMARK    1  A    between atoms: C_1  and  C_2
REMARK    2  A    between atoms: C_5  and  S_8
REMARK    3  A    between atoms: S_8  and  N_11
REMARK    4  A    between atoms: N_11  and  N_12
REMARK    5  A    between atoms: C_19  and  C_32
REMARK    6  A    between atoms: C_20  and  C_22
REMARK    7  A    between atoms: C_29  and  C_31
REMARK                            x       y       z     vdW  Elec       q    Type
REMARK                         _______ _______ _______ _____ _____    ______ ____
ROOT
ATOM      1  N   UNL     1       2.504  -4.616   1.008  0.00  0.00    -0.170 NA
ATOM      2  C   UNL     1       3.747  -4.984   1.000  0.00  0.00    +0.071 C 
ATOM      3  C   UNL     1       4.345  -5.818  -0.124  0.00  0.00    +0.058 C 
ATOM      4  C   UNL     1       5.250  -6.885   0.501  0.00  0.00    +0.014 C 
ATOM      5  C   UNL     1       6.439  -6.234   1.213  0.00  0.00    +0.075 C 
ATOM      6  C   UNL     1       5.935  -5.196   2.183  0.00  0.00    +0.115 A 
ATOM      7  C   UNL     1       4.692  -4.617   2.080  0.00  0.00    +0.042 A 
ATOM      8  C   UNL     1       4.562  -3.705   3.135  0.00  0.00    +0.009 A 
ATOM      9  C   UNL     1       5.736  -3.760   3.834  0.00  0.00    +0.193 A 
ATOM     10  O   UNL     1       6.546  -4.672   3.244  0.00  0.00    -0.454 OA
ATOM     11  C   UNL     1       3.368  -2.837   3.438  0.00  0.00    +0.048 C 
ENDROOT
BRANCH   9  12
ATOM     12  C   UNL     1       6.059  -2.973   5.029  0.00  0.00    +0.285 C 
ATOM     13  O   UNL     1       5.245  -2.188   5.479  0.00  0.00    -0.266 OA
ATOM     14  N   UNL     1       7.257  -3.120   5.629  0.00  0.00    -0.264 N 
ATOM     15  C   UNL     1       7.605  -2.299   6.699  0.00  0.00    +0.125 A 
ATOM     16  C   UNL     1       8.881  -2.383   7.245  0.00  0.00    +0.044 A 
ATOM     17  C   UNL     1       9.214  -1.562   8.308  0.00  0.00    +0.005 A 
ATOM     18  C   UNL     1       8.255  -0.680   8.789  0.00  0.00    +0.023 A 
ATOM     19  C   UNL     1       7.008  -0.650   8.199  0.00  0.00    +0.040 A 
ATOM     20  N   UNL     1       6.720  -1.442   7.183  0.00  0.00    -0.237 NA
ATOM     21  C   UNL     1       5.962   0.304   8.717  0.00  0.00    +0.065 C 
ATOM     22  H   UNL     1       7.876  -3.797   5.316  0.00  0.00    +0.157 HD
ENDBRANCH   9  12
BRANCH   1  23
ATOM     23  N   UNL     1       1.655  -4.992  -0.041  0.00  0.00    -0.136 N 
ATOM     24  H   UNL     1       1.998  -5.528  -0.774  0.00  0.00    +0.197 HD
BRANCH  23  25
ATOM     25  S   UNL     1       0.067  -4.523  -0.031  0.00  0.00    +0.086 S 
ATOM     26  O   UNL     1      -0.472  -4.944   1.215  0.00  0.00    -0.149 OA
ATOM     27  O   UNL     1      -0.484  -4.928  -1.276  0.00  0.00    -0.149 OA
BRANCH  25  32
ATOM     28  C   UNL     1      -0.012   1.510   0.009  0.00  0.00    +0.044 C 
ATOM     29  C   UNL     1       0.008   0.004  -0.001  0.00  0.00    -0.050 A 
ATOM     30  C   UNL     1       0.012  -0.680  -1.203  0.00  0.00    +0.005 A 
ATOM     31  C   UNL     1       0.031  -2.062  -1.212  0.00  0.00    +0.029 A 
ATOM     32  C   UNL     1       0.045  -2.761  -0.019  0.00  0.00    +0.110 A 
ATOM     33  C   UNL     1       0.042  -2.077   1.182  0.00  0.00    +0.029 A 
ATOM     34  C   UNL     1       0.028  -0.695   1.191  0.00  0.00    +0.005 A 
ENDBRANCH  25  32
ENDBRANCH  23  25
ENDBRANCH   1  23
TORSDOF 4
