REMARK  Name = ZINC36530988
REMARK  15 active torsions:
REMARK  status: ('A' for Active; 'I' for Inactive)
REMARK    1  A    between atoms: C_1  and  C_2
REMARK    2  A    between atoms: C_2  and  C_3
REMARK    3  A    between atoms: C_2  and  C_4
REMARK    4  A    between atoms: C_2  and  C_5
REMARK    5  A    between atoms: C_5  and  C_6
REMARK    6  A    between atoms: C_6  and  C_7
REMARK    7  A    between atoms: C_6  and  C_8
REMARK    8  A    between atoms: C_6  and  N_9
REMARK    9  A    between atoms: C_10  and  C_12
REMARK   10  A    between atoms: C_12  and  C_14
REMARK   11  A    between atoms: C_12  and  N_28
REMARK   12  A    between atoms: N_28  and  C_29
REMARK   13  A    between atoms: C_30  and  C_32
REMARK   14  A    between atoms: C_33  and  O_39
REMARK   15  A    between atoms: C_37  and  O_38
REMARK                            x       y       z     vdW  Elec       q    Type
REMARK                         _______ _______ _______ _____ _____    ______ ____
ROOT
ATOM      1  C   UNL     1       5.381  -0.544  -4.332  0.00  0.00    +0.193 C 
ENDROOT
BRANCH   1   2
ATOM      2  C   UNL     1       4.844   0.414  -5.364  0.00  0.00    -0.010 A 
ATOM      3  C   UNL     1       4.147   1.496  -4.960  0.00  0.00    +0.015 A 
ATOM      4  C   UNL     1       3.623   2.424  -5.889  0.00  0.00    -0.017 A 
ATOM      5  C   UNL     1       2.901   3.546  -5.460  0.00  0.00    +0.008 A 
ATOM      6  C   UNL     1       2.406   4.425  -6.378  0.00  0.00    +0.001 A 
ATOM      7  C   UNL     1       2.609   4.226  -7.739  0.00  0.00    +0.001 A 
ATOM      8  C   UNL     1       3.308   3.143  -8.189  0.00  0.00    +0.009 A 
ATOM      9  C   UNL     1       3.827   2.225  -7.274  0.00  0.00    -0.010 A 
ATOM     10  C   UNL     1       4.584   1.049  -7.712  0.00  0.00    -0.010 A 
ATOM     11  C   UNL     1       5.087   0.162  -6.734  0.00  0.00    -0.012 A 
ATOM     12  C   UNL     1       5.817  -0.963  -7.143  0.00  0.00    +0.009 A 
ATOM     13  C   UNL     1       6.036  -1.182  -8.472  0.00  0.00    +0.001 A 
ATOM     14  C   UNL     1       5.544  -0.304  -9.430  0.00  0.00    +0.001 A 
ATOM     15  C   UNL     1       4.819   0.794  -9.065  0.00  0.00    +0.009 A 
ENDBRANCH   1   2
BRANCH   1  17
ATOM     16  N   UNL     1       3.293  -1.038  -3.102  0.00  0.00    -0.308 N 
ATOM     17  C   UNL     1       4.522  -0.484  -3.095  0.00  0.00    +0.239 C 
ATOM     18  O   UNL     1       4.936   0.062  -2.095  0.00  0.00    -0.273 OA
ATOM     19  H   UNL     1       2.985  -1.526  -3.881  0.00  0.00    +0.149 HD
BRANCH  16  20
ATOM     20  C   UNL     1       2.423  -0.903  -1.931  0.00  0.00    +0.030 C 
ATOM     21  C   UNL     1       2.295   0.575  -1.558  0.00  0.00    +0.031 C 
ATOM     22  C   UNL     1       3.026  -1.675  -0.755  0.00  0.00    +0.031 C 
BRANCH  20  23
ATOM     23  C   UNL     1       1.039  -1.469  -2.256  0.00  0.00    +0.031 C 
BRANCH  23  25
ATOM     24  C   UNL     1       1.277  -1.883  -4.708  0.00  0.00    +0.010 C 
ATOM     25  C   UNL     1       0.612  -1.002  -3.649  0.00  0.00    -0.036 C 
ATOM     26  C   UNL     1       1.039   0.452  -3.853  0.00  0.00    +0.010 C 
ATOM     27  C   UNL     1      -0.909  -1.110  -3.779  0.00  0.00    +0.010 C 
ENDBRANCH  23  25
ENDBRANCH  20  23
ENDBRANCH  16  20
ENDBRANCH   1  17
BRANCH   1  28
ATOM     28  N   UNL     1       6.756  -0.173  -3.989  0.00  0.00    -0.285 N 
ATOM     29  C   UNL     1       7.036   1.143  -3.409  0.00  0.00    +0.133 C 
ATOM     30  C   UNL     1       7.763  -1.041  -4.207  0.00  0.00    +0.254 C 
ATOM     31  O   UNL     1       7.531  -2.134  -4.689  0.00  0.00    -0.270 OA
BRANCH  30  32
ATOM     32  C   UNL     1       9.145  -0.667  -3.863  0.00  0.00    +0.119 A 
ATOM     33  C   UNL     1       9.656  -0.951  -2.588  0.00  0.00    +0.133 A 
ATOM     34  C   UNL     1      10.958  -0.595  -2.274  0.00  0.00    +0.046 A 
ATOM     35  C   UNL     1      11.753   0.036  -3.213  0.00  0.00    +0.007 A 
ATOM     36  C   UNL     1      11.259   0.321  -4.473  0.00  0.00    +0.046 A 
ATOM     37  C   UNL     1       9.962  -0.031  -4.809  0.00  0.00    +0.133 A 
BRANCH  37  38
ATOM     38  O   UNL     1       9.481   0.243  -6.048  0.00  0.00    -0.506 OA
ATOM     39  H   UNL     1       9.059   1.110  -6.122  0.00  0.00    +0.292 HD
ENDBRANCH  37  38
BRANCH  33  40
ATOM     40  O   UNL     1       8.879  -1.570  -1.665  0.00  0.00    -0.506 OA
ATOM     41  H   UNL     1       8.937  -2.535  -1.685  0.00  0.00    +0.292 HD
ENDBRANCH  33  40
ENDBRANCH  30  32
ENDBRANCH   1  28
TORSDOF 9
