REMARK  Name = ZINC40069488
REMARK  5 active torsions:
REMARK  status: ('A' for Active; 'I' for Inactive)
REMARK    1  A    between atoms: C_9  and  N_11
REMARK    2  A    between atoms: C_12  and  C_14
REMARK    3  A    between atoms: C_14  and  C_15
REMARK    4  A    between atoms: C_15  and  C_17
REMARK    5  A    between atoms: C_15  and  N_24
REMARK                            x       y       z     vdW  Elec       q    Type
REMARK                         _______ _______ _______ _____ _____    ______ ____
ROOT
ATOM      1  C   UNL     1       0.073  -4.272   0.193  0.00  0.00    +0.123 C 
ENDROOT
BRANCH   1   3
ATOM      2  N   UNL     1       1.207  -2.083  -0.015  0.00  0.00    -0.285 N 
ATOM      3  C   UNL     1       0.052  -2.768   0.092  0.00  0.00    +0.219 C 
ATOM      4  O   UNL     1      -1.006  -2.175   0.107  0.00  0.00    -0.275 OA
ATOM      5  H   UNL     1       2.047  -2.560  -0.107  0.00  0.00    +0.155 HD
BRANCH   2  14
ATOM      6  C   UNL     1       0.149   1.380   0.653  0.00  0.00    +0.004 A 
ATOM      7  C   UNL     1       1.142   2.109   0.072  0.00  0.00    +0.028 A 
ATOM      8  C   UNL     1       2.210   1.458  -0.568  0.00  0.00    +0.073 A 
ATOM      9  C   UNL     1       2.238   0.042  -0.600  0.00  0.00    +0.022 A 
ATOM     10  C   UNL     1       3.308  -0.606  -1.241  0.00  0.00    +0.013 A 
ATOM     11  C   UNL     1       4.282   0.166  -1.810  0.00  0.00    +0.020 A 
ATOM     12  C   UNL     1       4.195   1.555  -1.743  0.00  0.00    +0.111 A 
ATOM     13  N   UNL     1       3.195   2.155  -1.144  0.00  0.00    -0.255 NA
ATOM     14  C   UNL     1       1.196  -0.688   0.008  0.00  0.00    +0.043 A 
ATOM     15  C   UNL     1       0.167  -0.010   0.626  0.00  0.00    +0.024 A 
ENDBRANCH   2  14
ENDBRANCH   1   3
BRANCH   1  16
ATOM     16  C   UNL     1      -1.359  -4.796   0.304  0.00  0.00    +0.113 C 
BRANCH  16  17
ATOM     17  C   UNL     1      -1.333  -6.287   0.528  0.00  0.00    -0.027 A 
ATOM     18  C   UNL     1      -1.612  -6.802   1.780  0.00  0.00    +0.006 A 
ATOM     19  C   UNL     1      -1.588  -8.168   1.986  0.00  0.00    +0.015 A 
ATOM     20  C   UNL     1      -1.286  -9.020   0.939  0.00  0.00    +0.018 A 
ATOM     21  C   UNL     1      -1.007  -8.504  -0.314  0.00  0.00    +0.015 A 
ATOM     22  C   UNL     1      -1.036  -7.138  -0.520  0.00  0.00    +0.006 A 
ATOM     23 BR   UNL     1      -1.252 -10.890   1.220  0.00  0.00    -0.050 Br
ENDBRANCH  16  17
BRANCH  16  24
ATOM     24  N   UNL     1      -2.084  -4.502  -0.935  0.00  0.00    -0.292 N 
ATOM     25  C   UNL     1      -3.432  -4.490  -0.941  0.00  0.00    +0.298 C 
ATOM     26  O   UNL     1      -4.045  -4.634   0.099  0.00  0.00    -0.253 OA
ATOM     27  N   UNL     1      -4.099  -4.320  -2.099  0.00  0.00    -0.313 N 
ATOM     28  H   UNL     1      -1.594  -4.315  -1.751  0.00  0.00    +0.151 HD
ATOM     29  H   UNL     1      -3.610  -4.205  -2.929  0.00  0.00    +0.146 HD
ATOM     30  H   UNL     1      -5.069  -4.311  -2.104  0.00  0.00    +0.146 HD
ENDBRANCH  16  24
ENDBRANCH   1  16
TORSDOF 5
