REMARK  Name = ZINC06901216
REMARK  11 active torsions:
REMARK  status: ('A' for Active; 'I' for Inactive)
REMARK    1  A    between atoms: C_1  and  C_2
REMARK    2  A    between atoms: C_2  and  C_3
REMARK    3  A    between atoms: C_3  and  C_5
REMARK    4  A    between atoms: C_3  and  N_6
REMARK    5  A    between atoms: N_6  and  C_7
REMARK    6  A    between atoms: C_7  and  C_8
REMARK    7  A    between atoms: C_12  and  C_28
REMARK    8  A    between atoms: N_15  and  C_20
REMARK    9  A    between atoms: C_16  and  C_17
REMARK   10  A    between atoms: C_20  and  C_21
REMARK   11  A    between atoms: C_26  and  C_27
REMARK                            x       y       z     vdW  Elec       q    Type
REMARK                         _______ _______ _______ _____ _____    ______ ____
ROOT
ATOM      1  C   UNL     1       4.515  -0.116  -2.257  0.00  0.00    -0.025 A 
ATOM      2  C   UNL     1       5.003   1.173  -2.576  0.00  0.00    +0.002 A 
ATOM      3  C   UNL     1       4.382   2.366  -2.971  0.00  0.00    +0.010 A 
ATOM      4  C   UNL     1       5.137   3.475  -3.215  0.00  0.00    +0.004 A 
ATOM      5  C   UNL     1       6.519   3.435  -3.076  0.00  0.00    -0.048 A 
ATOM      6  C   UNL     1       7.153   2.276  -2.690  0.00  0.00    +0.029 A 
ATOM      7  C   UNL     1       6.404   1.130  -2.434  0.00  0.00    +0.050 A 
ATOM      8  N   UNL     1       6.739  -0.144  -2.043  0.00  0.00    -0.330 N 
ATOM      9  C   UNL     1       5.583  -0.895  -1.932  0.00  0.00    +0.134 A 
ATOM     10  C   UNL     1       7.333   4.673  -3.352  0.00  0.00    +0.044 C 
ENDROOT
BRANCH   9  11
ATOM     11  C   UNL     1       5.519  -2.304  -1.533  0.00  0.00    +0.403 C 
ATOM     12  O   UNL     1       6.528  -2.876  -1.141  0.00  0.00    -0.239 OA
ATOM     13  O   UNL     1       4.456  -2.909  -1.591  0.00  0.00    -0.239 OA
ENDBRANCH   9  11
BRANCH   1  14
ATOM     14  C   UNL     1       3.071  -0.548  -2.269  0.00  0.00    -0.043 C 
BRANCH  14  15
ATOM     15  N   UNL     1       2.477  -0.308  -0.947  0.00  0.00    +0.383 N 
ATOM     16  H   UNL     1       2.532   0.676  -0.728  0.00  0.00    -0.085 HD
ATOM     17  H   UNL     1       2.981  -0.836  -0.251  0.00  0.00    -0.085 HD
BRANCH  15  18
ATOM     18  C   UNL     1       1.070  -0.729  -0.959  0.00  0.00    -0.075 C 
ATOM     19  C   UNL     1       0.992  -2.242  -1.168  0.00  0.00    -0.014 C 
BRANCH  18  21
ATOM     20  C   UNL     1       0.383   1.158   0.529  0.00  0.00    +0.002 C 
ATOM     21  C   UNL     1       0.418  -0.364   0.377  0.00  0.00    -0.019 C 
ENDBRANCH  18  21
ENDBRANCH  15  18
ENDBRANCH  14  15
ENDBRANCH   1  14
BRANCH   8  22
ATOM     22  C   UNL     1       8.098  -0.626  -1.782  0.00  0.00    +0.158 C 
BRANCH  22  23
ATOM     23  C   UNL     1       8.598  -1.393  -2.979  0.00  0.00    -0.025 A 
ATOM     24  C   UNL     1       8.371  -2.753  -3.073  0.00  0.00    +0.005 A 
ATOM     25  C   UNL     1       8.830  -3.456  -4.171  0.00  0.00    +0.000 A 
ATOM     26  C   UNL     1       9.516  -2.799  -5.175  0.00  0.00    +0.000 A 
ATOM     27  C   UNL     1       9.743  -1.438  -5.081  0.00  0.00    +0.004 A 
ATOM     28  C   UNL     1       9.280  -0.735  -3.985  0.00  0.00    -0.046 A 
ATOM     29  C   UNL     1       9.523   0.749  -3.885  0.00  0.00    +0.044 C 
ENDBRANCH  22  23
ENDBRANCH   8  22
TORSDOF 7
