REMARK  Name = ZINC44834428
REMARK  7 active torsions:
REMARK  status: ('A' for Active; 'I' for Inactive)
REMARK    1  A    between atoms: C_1  and  C_2
REMARK    2  A    between atoms: C_2  and  C_3
REMARK    3  A    between atoms: C_3  and  C_4
REMARK    4  A    between atoms: C_4  and  C_6
REMARK    5  A    between atoms: C_4  and  C_9
REMARK    6  A    between atoms: C_6  and  N_8
REMARK    7  A    between atoms: N_11  and  C_12
REMARK                            x       y       z     vdW  Elec       q    Type
REMARK                         _______ _______ _______ _____ _____    ______ ____
ROOT
ATOM      1  C   UNL     1       0.226  -3.293  -2.682  0.00  0.00    +0.226 C 
ATOM      2  O   UNL     1      -0.450  -3.113  -3.673  0.00  0.00    -0.275 OA
ATOM      3  N   UNL     1       1.454  -3.837  -2.793  0.00  0.00    -0.283 N 
ATOM      4  H   UNL     1       2.023  -3.913  -2.011  0.00  0.00    +0.155 HD
ENDROOT
BRANCH   3   5
ATOM      5  C   UNL     1       1.909  -4.292  -4.037  0.00  0.00    +0.070 A 
ATOM      6  C   UNL     1       2.623  -3.440  -4.871  0.00  0.00    +0.065 A 
ATOM      7  C   UNL     1       3.070  -3.892  -6.098  0.00  0.00    +0.037 A 
ATOM      8  C   UNL     1       2.808  -5.191  -6.497  0.00  0.00    +0.021 A 
ATOM      9  C   UNL     1       2.096  -6.041  -5.669  0.00  0.00    +0.037 A 
ATOM     10  C   UNL     1       1.651  -5.597  -4.438  0.00  0.00    +0.065 A 
ATOM     11 CL   UNL     1       0.766  -6.667  -3.396  0.00  0.00    -0.082 Cl
ATOM     12 BR   UNL     1       3.422  -5.804  -8.176  0.00  0.00    -0.050 Br
ATOM     13 CL   UNL     1       2.952  -1.810  -4.372  0.00  0.00    -0.082 Cl
ENDBRANCH   3   5
BRANCH   1  14
ATOM     14  C   UNL     1      -0.308  -2.908  -1.326  0.00  0.00    +0.126 C 
BRANCH  14  15
ATOM     15  C   UNL     1       0.602  -1.883  -0.700  0.00  0.00    +0.058 C 
ATOM     16  S   UNL     1       1.320  -2.196   0.694  0.00  0.00    -0.040 S 
BRANCH  15  17
ATOM     17  N   UNL     1       0.811  -0.702  -1.315  0.00  0.00    -0.355 N 
ATOM     18  H   UNL     1       0.375  -0.512  -2.161  0.00  0.00    +0.143 HD
ATOM     19  H   UNL     1       1.397  -0.042  -0.912  0.00  0.00    +0.143 HD
ENDBRANCH  15  17
ENDBRANCH  14  15
BRANCH  14  20
ATOM     20  C   UNL     1      -1.712  -2.318  -1.480  0.00  0.00    +0.019 C 
BRANCH  20  22
ATOM     21  C   UNL     1      -3.707  -1.452  -0.249  0.00  0.00    +0.004 C 
ATOM     22  C   UNL     1      -2.303  -2.042  -0.096  0.00  0.00    -0.002 C 
ENDBRANCH  20  22
ENDBRANCH  14  20
ENDBRANCH   1  14
TORSDOF 6
