REMARK  Name = ZINC08023477
REMARK  5 active torsions:
REMARK  status: ('A' for Active; 'I' for Inactive)
REMARK    1  A    between atoms: C_1  and  C_2
REMARK    2  A    between atoms: C_7  and  N_8
REMARK    3  A    between atoms: C_9  and  C_11
REMARK    4  A    between atoms: C_11  and  S_12
REMARK    5  A    between atoms: S_12  and  C_13
REMARK                            x       y       z     vdW  Elec       q    Type
REMARK                         _______ _______ _______ _____ _____    ______ ____
ROOT
ATOM      1  C   UNL     1      -2.499   3.898   0.027  0.00  0.00    +0.103 C 
ATOM      2  N   UNL     1      -2.487   5.170  -0.259  0.00  0.00    -0.251 NA
ATOM      3  C   UNL     1      -1.262   5.867  -0.649  0.00  0.00    +0.126 C 
ATOM      4  C   UNL     1      -1.338   7.325  -0.188  0.00  0.00    +0.050 C 
ATOM      5  C   UNL     1      -2.549   8.001  -0.835  0.00  0.00    +0.004 C 
ATOM      6  C   UNL     1      -2.403   7.957  -2.358  0.00  0.00    +0.000 C 
ATOM      7  C   UNL     1      -2.322   6.501  -2.821  0.00  0.00    +0.004 C 
ATOM      8  C   UNL     1      -1.113   5.825  -2.172  0.00  0.00    +0.050 C 
ATOM      9  N   UNL     1      -0.091   5.229  -0.032  0.00  0.00    -0.320 N 
ATOM     10  C   UNL     1      -0.026   3.837  -0.026  0.00  0.00    +0.039 A 
ATOM     11  C   UNL     1      -1.240   3.128  -0.004  0.00  0.00    +0.027 A 
ATOM     12  C   UNL     1      -1.227   1.738  -0.012  0.00  0.00    +0.012 A 
ATOM     13  C   UNL     1      -0.019   1.069  -0.027  0.00  0.00    +0.001 A 
ATOM     14  C   UNL     1       1.174   1.771  -0.046  0.00  0.00    +0.002 A 
ATOM     15  C   UNL     1       1.175   3.154  -0.046  0.00  0.00    +0.023 A 
ATOM     16  H   UNL     1       0.617   5.762   0.361  0.00  0.00    +0.148 HD
ENDROOT
BRANCH   1  17
ATOM     17  S   UNL     1      -4.013   3.101   0.450  0.00  0.00    -0.096 S 
BRANCH  17  18
ATOM     18  C   UNL     1      -5.152   4.502   0.321  0.00  0.00    +0.171 C 
BRANCH  18  20
ATOM     19  N   UNL     1      -7.572   4.923   0.618  0.00  0.00    -0.285 N 
ATOM     20  C   UNL     1      -6.550   4.044   0.649  0.00  0.00    +0.227 C 
ATOM     21  O   UNL     1      -6.756   2.885   0.941  0.00  0.00    -0.275 OA
ATOM     22  H   UNL     1      -7.397   5.864   0.464  0.00  0.00    +0.155 HD
BRANCH  19  29
ATOM     23  C   UNL     1      -9.495   6.782   1.588  0.00  0.00    +0.045 C 
ATOM     24  C   UNL     1      -9.854   5.351   1.281  0.00  0.00    -0.029 A 
ATOM     25  C   UNL     1     -11.149   4.908   1.468  0.00  0.00    +0.005 A 
ATOM     26  C   UNL     1     -11.480   3.595   1.186  0.00  0.00    +0.000 A 
ATOM     27  C   UNL     1     -10.516   2.722   0.715  0.00  0.00    +0.002 A 
ATOM     28  C   UNL     1      -9.220   3.160   0.521  0.00  0.00    +0.023 A 
ATOM     29  C   UNL     1      -8.884   4.477   0.809  0.00  0.00    +0.036 A 
ENDBRANCH  19  29
ENDBRANCH  18  20
ENDBRANCH  17  18
ENDBRANCH   1  17
TORSDOF 4
