REMARK  Name = ZINC45257536
REMARK  11 active torsions:
REMARK  status: ('A' for Active; 'I' for Inactive)
REMARK    1  A    between atoms: C_1  and  C_2
REMARK    2  A    between atoms: C_2  and  C_4
REMARK    3  A    between atoms: C_2  and  O_14
REMARK    4  A    between atoms: N_6  and  C_7
REMARK    5  A    between atoms: C_7  and  C_8
REMARK    6  A    between atoms: C_7  and  C_9
REMARK    7  A    between atoms: C_7  and  C_11
REMARK    8  A    between atoms: C_11  and  C_12
REMARK    9  A    between atoms: C_11  and  C_13
REMARK   10  A    between atoms: O_14  and  C_15
REMARK   11  A    between atoms: C_15  and  C_17
REMARK                            x       y       z     vdW  Elec       q    Type
REMARK                         _______ _______ _______ _____ _____    ______ ____
ROOT
ATOM      1  C   UNL     1      -1.924  -0.704  -1.184  0.00  0.00    +0.340 C 
ATOM      2  O   UNL     1      -1.313  -0.469  -2.208  0.00  0.00    -0.245 OA
ENDROOT
BRANCH   1   3
ATOM      3  C   UNL     1      -3.307  -1.214  -1.251  0.00  0.00    +0.060 A 
ATOM      4  C   UNL     1      -4.014  -1.479  -0.069  0.00  0.00    +0.017 A 
ATOM      5  C   UNL     1      -5.292  -1.950  -0.115  0.00  0.00    +0.027 A 
ATOM      6  C   UNL     1      -5.914  -2.175  -1.341  0.00  0.00    +0.047 A 
ATOM      7  C   UNL     1      -5.215  -1.912  -2.537  0.00  0.00    +0.004 A 
ATOM      8  C   UNL     1      -3.911  -1.425  -2.486  0.00  0.00    +0.025 A 
ATOM      9  C   UNL     1      -6.136  -2.249  -3.619  0.00  0.00    -0.019 A 
ATOM     10  C   UNL     1      -7.281  -2.673  -3.053  0.00  0.00    +0.020 A 
ATOM     11  N   UNL     1      -7.162  -2.634  -1.692  0.00  0.00    -0.358 N 
ATOM     12  H   UNL     1      -7.856  -2.892  -1.065  0.00  0.00    +0.166 HD
ATOM     13  C   UNL     1      -8.492  -3.116  -3.842  0.00  0.00    +0.053 C 
ATOM     14  C   UNL     1      -8.347  -2.608  -5.281  0.00  0.00    +0.006 C 
ATOM     15  C   UNL     1      -6.966  -2.987  -5.822  0.00  0.00    +0.005 C 
ATOM     16  C   UNL     1      -5.895  -2.157  -5.104  0.00  0.00    +0.037 C 
ENDBRANCH   1   3
BRANCH   1  17
ATOM     17  O   UNL     1      -1.339  -0.499   0.012  0.00  0.00    -0.449 OA
BRANCH  17  19
ATOM     18  C   UNL     1      -0.019   1.526   0.010  0.00  0.00    +0.062 C 
ATOM     19  C   UNL     1       0.002  -0.004   0.002  0.00  0.00    +0.259 C 
BRANCH  19  20
ATOM     20  C   UNL     1       0.731  -0.503   1.223  0.00  0.00    +0.255 C 
ATOM     21  O   UNL     1       0.135  -1.137   2.068  0.00  0.00    -0.272 OA
ATOM     22  N   UNL     1       2.045  -0.246   1.375  0.00  0.00    -0.294 N 
ATOM     23  H   UNL     1       2.522   0.261   0.699  0.00  0.00    +0.150 HD
BRANCH  22  24
ATOM     24  C   UNL     1       2.754  -0.731   2.562  0.00  0.00    +0.121 C 
ATOM     25  C   UNL     1       2.112  -0.137   3.818  0.00  0.00    +0.048 C 
BRANCH  24  26
ATOM     26  C   UNL     1       4.222  -0.306   2.489  0.00  0.00    +0.020 C 
ATOM     27  C   UNL     1       4.315   1.220   2.558  0.00  0.00    +0.010 C 
ATOM     28  C   UNL     1       4.989  -0.917   3.664  0.00  0.00    +0.010 C 
ENDBRANCH  24  26
BRANCH  24  29
ATOM     29  C   UNL     1       2.670  -2.200   2.617  0.00  0.00    +0.088 C 
ATOM     30  N   UNL     1       2.606  -3.333   2.660  0.00  0.00    -0.194 NA
ENDBRANCH  24  29
ENDBRANCH  22  24
ENDBRANCH  19  20
ENDBRANCH  17  19
ENDBRANCH   1  17
TORSDOF 7
