REMARK  Name = ZINC35703207
REMARK  14 active torsions:
REMARK  status: ('A' for Active; 'I' for Inactive)
REMARK    1  A    between atoms: C_1  and  C_2
REMARK    2  A    between atoms: C_9  and  C_20
REMARK    3  A    between atoms: C_10  and  N_11
REMARK    4  A    between atoms: N_11  and  C_12
REMARK    5  A    between atoms: C_12  and  C_13
REMARK    6  A    between atoms: C_12  and  C_14
REMARK    7  A    between atoms: C_12  and  C_15
REMARK    8  A    between atoms: C_15  and  C_16
REMARK    9  A    between atoms: C_16  and  C_17
REMARK   10  A    between atoms: C_16  and  C_18
REMARK   11  A    between atoms: C_16  and  C_19
REMARK   12  A    between atoms: C_24  and  O_26
REMARK   13  A    between atoms: O_26  and  C_27
REMARK   14  A    between atoms: C_27  and  C_29
REMARK                            x       y       z     vdW  Elec       q    Type
REMARK                         _______ _______ _______ _____ _____    ______ ____
ROOT
ATOM      1  C   UNL     1      -0.907   1.288  -4.539  0.00  0.00    +0.044 C 
ATOM      2  C   UNL     1      -0.621   0.001  -3.809  0.00  0.00    -0.046 A 
ATOM      3  C   UNL     1      -1.152  -1.212  -4.283  0.00  0.00    +0.021 A 
ATOM      4  C   UNL     1      -0.900  -2.366  -3.634  0.00  0.00    +0.094 A 
ATOM      5  N   UNL     1      -0.124  -2.376  -2.506  0.00  0.00    -0.289 N 
ATOM      6  C   UNL     1       0.409  -1.204  -2.019  0.00  0.00    +0.117 A 
ATOM      7  C   UNL     1       0.156   0.008  -2.694  0.00  0.00    +0.048 A 
ATOM      8  N   UNL     1       1.111  -1.482  -0.932  0.00  0.00    -0.338 N 
ATOM      9  C   UNL     1       1.053  -2.804  -0.691  0.00  0.00    +0.087 A 
ATOM     10  C   UNL     1       0.278  -3.384  -1.674  0.00  0.00    +0.129 A 
ATOM     11  H   UNL     1       1.592  -0.834  -0.394  0.00  0.00    +0.167 HD
ENDROOT
BRANCH   9  12
ATOM     12  C   UNL     1       1.706  -3.514   0.433  0.00  0.00    +0.005 A 
ATOM     13  C   UNL     1       2.366  -4.723   0.208  0.00  0.00    +0.010 A 
ATOM     14  C   UNL     1       2.975  -5.381   1.257  0.00  0.00    +0.004 A 
ATOM     15  C   UNL     1       2.933  -4.847   2.532  0.00  0.00    +0.046 A 
ATOM     16  C   UNL     1       2.278  -3.646   2.764  0.00  0.00    +0.133 A 
ATOM     17  C   UNL     1       1.669  -2.974   1.717  0.00  0.00    +0.056 A 
BRANCH  16  18
ATOM     18  O   UNL     1       2.240  -3.125   4.019  0.00  0.00    -0.422 OA
BRANCH  18  19
ATOM     19  C   UNL     1       1.084  -3.215   4.706  0.00  0.00    +0.346 C 
ATOM     20  O   UNL     1       0.145  -3.829   4.239  0.00  0.00    -0.244 OA
BRANCH  19  21
ATOM     21  C   UNL     1       0.958  -2.568   6.027  0.00  0.00    +0.078 A 
ATOM     22  C   UNL     1       2.033  -1.856   6.565  0.00  0.00    +0.018 A 
ATOM     23  C   UNL     1       1.909  -1.254   7.798  0.00  0.00    +0.021 A 
ATOM     24  C   UNL     1       0.722  -1.353   8.505  0.00  0.00    +0.042 A 
ATOM     25  C   UNL     1      -0.348  -2.056   7.979  0.00  0.00    +0.040 A 
ATOM     26  C   UNL     1      -0.240  -2.659   6.742  0.00  0.00    +0.056 A 
ATOM     27 CL   UNL     1      -1.584  -3.535   6.080  0.00  0.00    -0.083 Cl
ATOM     28 CL   UNL     1       0.575  -0.591  10.058  0.00  0.00    -0.083 Cl
ENDBRANCH  19  21
ENDBRANCH  18  19
ENDBRANCH  16  18
ENDBRANCH   9  12
BRANCH  10  29
ATOM     29  N   UNL     1      -0.036  -4.737  -1.796  0.00  0.00    -0.323 N 
ATOM     30  H   UNL     1       0.185  -5.353  -1.080  0.00  0.00    +0.148 HD
BRANCH  29  31
ATOM     31  C   UNL     1      -0.699  -5.229  -3.006  0.00  0.00    +0.028 C 
ATOM     32  C   UNL     1      -2.110  -4.642  -3.089  0.00  0.00    +0.031 C 
ATOM     33  C   UNL     1       0.104  -4.804  -4.237  0.00  0.00    +0.031 C 
BRANCH  31  34
ATOM     34  C   UNL     1      -0.785  -6.756  -2.956  0.00  0.00    +0.031 C 
BRANCH  34  35
ATOM     35  C   UNL     1       0.505  -7.320  -2.355  0.00  0.00    -0.036 C 
ATOM     36  C   UNL     1       0.326  -7.506  -0.847  0.00  0.00    +0.010 C 
ATOM     37  C   UNL     1       0.821  -8.670  -3.002  0.00  0.00    +0.010 C 
ATOM     38  C   UNL     1       1.656  -6.347  -2.615  0.00  0.00    +0.010 C 
ENDBRANCH  34  35
ENDBRANCH  31  34
ENDBRANCH  29  31
ENDBRANCH  10  29
TORSDOF 8
