REMARK  Name = ZINC09541073
REMARK  6 active torsions:
REMARK  status: ('A' for Active; 'I' for Inactive)
REMARK    1  A    between atoms: C_3  and  N_9
REMARK    2  A    between atoms: C_10  and  C_12
REMARK    3  A    between atoms: C_12  and  S_13
REMARK    4  A    between atoms: S_13  and  C_14
REMARK    5  A    between atoms: C_17  and  C_20
REMARK    6  A    between atoms: N_18  and  N_19
REMARK                            x       y       z     vdW  Elec       q    Type
REMARK                         _______ _______ _______ _____ _____    ______ ____
ROOT
ATOM      1  C   UNL     1       6.099   6.756  -0.483  0.00  0.00    +0.209 A 
ATOM      2  N   UNL     1       7.254   6.128  -0.504  0.00  0.00    -0.120 NA
ATOM      3  N   UNL     1       8.215   6.974  -0.613  0.00  0.00    -0.125 NA
ATOM      4  C   UNL     1       7.734   8.196  -0.668  0.00  0.00    +0.200 A 
ATOM      5  N   UNL     1       6.362   8.092  -0.592  0.00  0.00    -0.223 N 
ENDROOT
BRANCH   4   6
ATOM      6  C   UNL     1       8.513   9.440  -0.793  0.00  0.00    +0.108 A 
ATOM      7  C   UNL     1       9.886   9.542  -0.881  0.00  0.00    +0.004 A 
ATOM      8  C   UNL     1      10.206  10.895  -0.986  0.00  0.00    +0.067 A 
ATOM      9  N   UNL     1       9.093  11.589  -0.964  0.00  0.00    -0.178 NA
ATOM     10  N   UNL     1       8.012  10.708  -0.850  0.00  0.00    -0.273 N 
ATOM     11  H   UNL     1       7.074  10.954  -0.814  0.00  0.00    +0.189 HD
ATOM     12  C   UNL     1      11.709  11.053  -1.086  0.00  0.00    +0.058 C 
ATOM     13  C   UNL     1      12.291   9.711  -0.592  0.00  0.00    +0.011 C 
ATOM     14  C   UNL     1      11.153   8.716  -0.903  0.00  0.00    +0.039 C 
ENDBRANCH   4   6
BRANCH   5  15
ATOM     15  N   UNL     1       5.455   9.113  -0.618  0.00  0.00    -0.295 N 
ATOM     16  H   UNL     1       5.264   9.450   0.314  0.00  0.00    +0.163 HD
ATOM     17  H   UNL     1       5.770   9.862  -1.216  0.00  0.00    +0.163 HD
ENDBRANCH   5  15
BRANCH   1  18
ATOM     18  S   UNL     1       4.508   6.012  -0.346  0.00  0.00    -0.075 S 
BRANCH  18  19
ATOM     19  C   UNL     1       4.861   4.236  -0.238  0.00  0.00    +0.173 C 
BRANCH  19  21
ATOM     20  N   UNL     1       3.584   2.129  -0.021  0.00  0.00    -0.283 N 
ATOM     21  C   UNL     1       3.567   3.473  -0.116  0.00  0.00    +0.228 C 
ATOM     22  O   UNL     1       2.511   4.069  -0.103  0.00  0.00    -0.275 OA
ATOM     23  H   UNL     1       4.430   1.658   0.049  0.00  0.00    +0.155 HD
BRANCH  20  26
ATOM     24  C   UNL     1       0.065   1.243  -0.620  0.00  0.00    +0.017 A 
ATOM     25  C   UNL     1       1.250   1.953  -0.618  0.00  0.00    +0.027 A 
ATOM     26  C   UNL     1       2.381   1.411  -0.024  0.00  0.00    +0.069 A 
ATOM     27  C   UNL     1       2.318   0.154   0.567  0.00  0.00    +0.146 A 
ATOM     28  C   UNL     1       1.129  -0.551   0.562  0.00  0.00    +0.055 A 
ATOM     29  C   UNL     1       0.004  -0.007  -0.032  0.00  0.00    +0.021 A 
ATOM     30 BR   UNL     1      -1.621  -0.974  -0.037  0.00  0.00    -0.050 Br
ATOM     31  F   UNL     1       3.417  -0.377   1.146  0.00  0.00    -0.204 F 
ENDBRANCH  20  26
ENDBRANCH  19  21
ENDBRANCH  18  19
ENDBRANCH   1  18
TORSDOF 6
