REMARK  Name = ZINC67478190
REMARK  6 active torsions:
REMARK  status: ('A' for Active; 'I' for Inactive)
REMARK    1  A    between atoms: C_6  and  C_11
REMARK    2  A    between atoms: C_11  and  C_13
REMARK    3  A    between atoms: C_11  and  O_31
REMARK    4  A    between atoms: C_13  and  N_14
REMARK    5  A    between atoms: N_17  and  N_18
REMARK    6  A    between atoms: C_19  and  C_21
REMARK                            x       y       z     vdW  Elec       q    Type
REMARK                         _______ _______ _______ _____ _____    ______ ____
ROOT
ATOM      1  N   UNL     1       6.665  -3.753  -1.519  0.00  0.00    -0.295 N 
ATOM      2  C   UNL     1       7.195  -4.160  -2.689  0.00  0.00    +0.316 C 
ATOM      3  O   UNL     1       6.608  -3.943  -3.731  0.00  0.00    -0.251 OA
ATOM      4  N   UNL     1       8.377  -4.808  -2.704  0.00  0.00    -0.218 N 
ATOM      5  H   UNL     1       7.134  -3.926  -0.688  0.00  0.00    +0.150 HD
ATOM      6  H   UNL     1       8.759  -5.101  -3.546  0.00  0.00    +0.174 HD
ENDROOT
BRANCH   4   7
ATOM      7  N   UNL     1       9.054  -5.058  -1.504  0.00  0.00    -0.230 N 
ATOM      8  C   UNL     1      10.236  -5.706  -1.519  0.00  0.00    +0.270 C 
ATOM      9  O   UNL     1      10.713  -6.072  -2.572  0.00  0.00    -0.270 OA
ATOM     10  H   UNL     1       8.672  -4.765  -0.661  0.00  0.00    +0.173 HD
BRANCH   8  11
ATOM     11  C   UNL     1      10.964  -5.975  -0.227  0.00  0.00    +0.264 C 
ATOM     12  C   UNL     1      11.462  -4.654   0.406  0.00  0.00    +0.093 C 
ATOM     13  C   UNL     1      12.792  -5.074   1.002  0.00  0.00    -0.002 A 
ATOM     14  C   UNL     1      13.621  -4.478   1.927  0.00  0.00    +0.007 A 
ATOM     15  C   UNL     1      14.798  -5.100   2.302  0.00  0.00    +0.000 A 
ATOM     16  C   UNL     1      15.139  -6.319   1.745  0.00  0.00    +0.004 A 
ATOM     17  C   UNL     1      14.312  -6.916   0.816  0.00  0.00    +0.046 A 
ATOM     18  C   UNL     1      13.127  -6.295   0.430  0.00  0.00    +0.125 A 
ATOM     19  O   UNL     1      12.184  -6.695  -0.471  0.00  0.00    -0.479 OA
ENDBRANCH   8  11
ENDBRANCH   4   7
BRANCH   1  20
ATOM     20  C   UNL     1       5.380  -3.049  -1.503  0.00  0.00    +0.142 C 
BRANCH  20  21
ATOM     21  C   UNL     1       5.008  -2.700  -0.060  0.00  0.00    +0.162 C 
BRANCH  21  27
ATOM     22  C   UNL     1      -0.016   1.357   0.009  0.00  0.00    +0.001 A 
ATOM     23  C   UNL     1       1.169   2.091   0.002  0.00  0.00    +0.001 A 
ATOM     24  C   UNL     1       2.378   1.468  -0.013  0.00  0.00    +0.008 A 
ATOM     25  C   UNL     1       2.438   0.063  -0.021  0.00  0.00    -0.018 A 
ATOM     26  C   UNL     1       3.668  -0.615  -0.036  0.00  0.00    +0.014 A 
ATOM     27  C   UNL     1       3.687  -1.976  -0.043  0.00  0.00    -0.017 A 
ATOM     28  C   UNL     1       2.502  -2.710  -0.036  0.00  0.00    +0.007 A 
ATOM     29  C   UNL     1       1.292  -2.087  -0.021  0.00  0.00    +0.009 A 
ATOM     30  C   UNL     1       1.233  -0.683  -0.013  0.00  0.00    -0.018 A 
ATOM     31  C   UNL     1       0.002  -0.004   0.002  0.00  0.00    +0.008 A 
ENDBRANCH  21  27
BRANCH  21  32
ATOM     32  O   UNL     1       4.903  -3.901   0.708  0.00  0.00    -0.386 OA
ATOM     33  H   UNL     1       4.234  -4.519   0.382  0.00  0.00    +0.210 HD
ENDBRANCH  21  32
ENDBRANCH  20  21
ENDBRANCH   1  20
TORSDOF 6
