REMARK  Name = ZINC36551520
REMARK  12 active torsions:
REMARK  status: ('A' for Active; 'I' for Inactive)
REMARK    1  A    between atoms: C_1  and  C_2
REMARK    2  A    between atoms: C_2  and  C_3
REMARK    3  A    between atoms: C_3  and  C_4
REMARK    4  A    between atoms: N_6  and  C_7
REMARK    5  A    between atoms: N_6  and  C_14
REMARK    6  A    between atoms: C_14  and  C_16
REMARK    7  A    between atoms: C_14  and  C_23
REMARK    8  A    between atoms: C_20  and  O_22
REMARK    9  A    between atoms: N_25  and  C_26
REMARK   10  A    between atoms: C_26  and  S_27
REMARK   11  A    between atoms: S_27  and  C_30
REMARK   12  A    between atoms: C_33  and  C_36
REMARK                            x       y       z     vdW  Elec       q    Type
REMARK                         _______ _______ _______ _____ _____    ______ ____
ROOT
ATOM      1  C   UNL     1      -2.814  -1.636   1.109  0.00  0.00    +0.197 C 
ENDROOT
BRANCH   1   2
ATOM      2  C   UNL     1      -1.586  -0.777   1.270  0.00  0.00    -0.014 A 
ATOM      3  C   UNL     1      -0.860  -0.394   0.157  0.00  0.00    +0.006 A 
ATOM      4  C   UNL     1       0.267   0.393   0.302  0.00  0.00    +0.004 A 
ATOM      5  C   UNL     1       0.671   0.798   1.559  0.00  0.00    +0.045 A 
ATOM      6  C   UNL     1      -0.054   0.415   2.677  0.00  0.00    +0.117 A 
ATOM      7  C   UNL     1      -1.189  -0.370   2.529  0.00  0.00    +0.051 A 
BRANCH   6   8
ATOM      8  O   UNL     1       0.341   0.813   3.915  0.00  0.00    -0.507 OA
ATOM      9  H   UNL     1      -0.042   1.654   4.199  0.00  0.00    +0.292 HD
ENDBRANCH   6   8
ENDBRANCH   1   2
BRANCH   1  10
ATOM     10  C   UNL     1      -4.047  -0.782   1.260  0.00  0.00    +0.240 C 
ATOM     11  O   UNL     1      -4.877  -0.754   0.377  0.00  0.00    -0.273 OA
ATOM     12  N   UNL     1      -4.226  -0.049   2.377  0.00  0.00    -0.294 N 
ATOM     13  H   UNL     1      -3.562  -0.071   3.084  0.00  0.00    +0.150 HD
BRANCH  12  14
ATOM     14  C   UNL     1      -5.425   0.781   2.524  0.00  0.00    +0.278 C 
BRANCH  14  15
ATOM     15  S   UNL     1      -6.688  -0.139   3.446  0.00  0.00    +0.013 S 
ATOM     16  O   UNL     1      -7.834   0.676   3.651  0.00  0.00    -0.168 OA
ATOM     17  O   UNL     1      -6.818  -1.453   2.919  0.00  0.00    -0.168 OA
BRANCH  15  18
ATOM     18  C   UNL     1      -6.002  -0.364   5.053  0.00  0.00    +0.090 A 
ATOM     19  C   UNL     1      -5.236  -1.482   5.327  0.00  0.00    +0.027 A 
ATOM     20  C   UNL     1      -4.697  -1.659   6.588  0.00  0.00    +0.005 A 
ATOM     21  C   UNL     1      -4.925  -0.718   7.574  0.00  0.00    -0.050 A 
ATOM     22  C   UNL     1      -5.691   0.400   7.300  0.00  0.00    +0.005 A 
ATOM     23  C   UNL     1      -6.225   0.579   6.038  0.00  0.00    +0.027 A 
ATOM     24  C   UNL     1      -4.339  -0.911   8.950  0.00  0.00    +0.044 C 
ENDBRANCH  15  18
ENDBRANCH  14  15
ENDBRANCH  12  14
ENDBRANCH   1  10
BRANCH   1  27
ATOM     25  C   UNL     1      -3.032  -1.500  -1.314  0.00  0.00    +0.221 C 
ATOM     26  O   UNL     1      -3.192  -0.302  -1.203  0.00  0.00    -0.275 OA
ATOM     27  N   UNL     1      -2.808  -2.253  -0.219  0.00  0.00    -0.255 N 
BRANCH  27  28
ATOM     28  C   UNL     1      -2.568  -3.626  -0.352  0.00  0.00    +0.039 A 
ATOM     29  C   UNL     1      -3.620  -4.528  -0.256  0.00  0.00    +0.023 A 
ATOM     30  C   UNL     1      -3.382  -5.881  -0.388  0.00  0.00    +0.003 A 
ATOM     31  C   UNL     1      -2.097  -6.340  -0.614  0.00  0.00    +0.020 A 
ATOM     32  C   UNL     1      -1.046  -5.444  -0.709  0.00  0.00    +0.043 A 
ATOM     33  C   UNL     1      -1.280  -4.088  -0.584  0.00  0.00    +0.043 A 
ATOM     34 CL   UNL     1       0.565  -6.024  -0.993  0.00  0.00    -0.083 Cl
ENDBRANCH  27  28
BRANCH  25  35
ATOM     35  C   UNL     1      -3.086  -2.145  -2.675  0.00  0.00    +0.096 C 
BRANCH  35  37
ATOM     36  C   UNL     1      -4.595  -3.098  -4.423  0.00  0.00    +0.004 C 
ATOM     37  C   UNL     1      -4.541  -2.443  -3.041  0.00  0.00    +0.006 C 
ENDBRANCH  35  37
ENDBRANCH  25  35
ENDBRANCH   1  27
TORSDOF 10
