REMARK  Name = ZINC45593788
REMARK  6 active torsions:
REMARK  status: ('A' for Active; 'I' for Inactive)
REMARK    1  A    between atoms: C_1  and  C_2
REMARK    2  A    between atoms: C_2  and  C_4
REMARK    3  A    between atoms: C_2  and  N_20
REMARK    4  A    between atoms: N_6  and  C_7
REMARK    5  A    between atoms: C_7  and  C_8
REMARK    6  A    between atoms: N_10  and  C_11
REMARK                            x       y       z     vdW  Elec       q    Type
REMARK                         _______ _______ _______ _____ _____    ______ ____
ROOT
ATOM      1  C   UNL     1      -1.129  -0.479   0.090  0.00  0.00    +0.234 C 
ATOM      2  O   UNL     1      -1.332  -1.191   1.051  0.00  0.00    -0.274 OA
ATOM      3  N   UNL     1      -2.130  -0.204  -0.769  0.00  0.00    -0.305 N 
ATOM      4  H   UNL     1      -1.967   0.364  -1.538  0.00  0.00    +0.149 HD
ENDROOT
BRANCH   1   6
ATOM      5  C   UNL     1       0.163   1.625  -0.140  0.00  0.00    +0.038 C 
ATOM      6  C   UNL     1       0.244   0.097  -0.144  0.00  0.00    +0.156 C 
BRANCH   6   7
ATOM      7  N   UNL     1       1.148  -0.347   0.921  0.00  0.00    -0.318 N 
ATOM      8  C   UNL     1       0.811  -0.112   2.332  0.00  0.00    +0.106 C 
ATOM      9  C   UNL     1       2.074   0.404   3.035  0.00  0.00    +0.024 C 
ATOM     10  C   UNL     1       3.147  -0.683   2.983  0.00  0.00    +0.038 C 
ATOM     11  C   UNL     1       3.328  -1.179   1.572  0.00  0.00    -0.026 A 
ATOM     12  C   UNL     1       2.342  -1.006   0.611  0.00  0.00    +0.034 A 
ATOM     13  C   UNL     1       2.536  -1.485  -0.680  0.00  0.00    +0.023 A 
ATOM     14  C   UNL     1       3.709  -2.135  -1.007  0.00  0.00    +0.002 A 
ATOM     15  C   UNL     1       4.690  -2.310  -0.049  0.00  0.00    +0.000 A 
ATOM     16  C   UNL     1       4.504  -1.826   1.235  0.00  0.00    +0.005 A 
ENDBRANCH   6   7
ENDBRANCH   1   6
BRANCH   3  17
ATOM     17  C   UNL     1      -3.464  -0.765  -0.542  0.00  0.00    +0.200 C 
BRANCH  17  18
ATOM     18  C   UNL     1      -4.394  -0.308  -1.637  0.00  0.00    +0.234 C 
ATOM     19  O   UNL     1      -3.982   0.414  -2.520  0.00  0.00    -0.274 OA
ATOM     20  N   UNL     1      -5.683  -0.703  -1.635  0.00  0.00    -0.282 N 
ATOM     21  H   UNL     1      -6.033  -1.212  -0.888  0.00  0.00    +0.155 HD
BRANCH  20  22
ATOM     22  C   UNL     1      -6.517  -0.377  -2.713  0.00  0.00    +0.072 A 
ATOM     23  C   UNL     1      -5.970  -0.128  -3.965  0.00  0.00    +0.029 A 
ATOM     24  C   UNL     1      -6.793   0.194  -5.027  0.00  0.00    +0.043 A 
ATOM     25  C   UNL     1      -8.164   0.269  -4.845  0.00  0.00    +0.161 A 
ATOM     26  C   UNL     1      -8.714   0.021  -3.597  0.00  0.00    +0.195 A 
ATOM     27  C   UNL     1      -7.893  -0.307  -2.532  0.00  0.00    +0.182 A 
ATOM     28  F   UNL     1      -8.428  -0.555  -1.316  0.00  0.00    -0.200 F 
ATOM     29  F   UNL     1     -10.052   0.095  -3.422  0.00  0.00    -0.199 F 
ATOM     30  F   UNL     1      -8.966   0.584  -5.886  0.00  0.00    -0.202 F 
ENDBRANCH  20  22
ENDBRANCH  17  18
ENDBRANCH   3  17
TORSDOF 5
