REMARK  Name = ZINC36586595
REMARK  15 active torsions:
REMARK  status: ('A' for Active; 'I' for Inactive)
REMARK    1  A    between atoms: C_1  and  C_2
REMARK    2  A    between atoms: C_2  and  C_3
REMARK    3  A    between atoms: C_2  and  C_4
REMARK    4  A    between atoms: C_2  and  N_5
REMARK    5  A    between atoms: C_6  and  C_8
REMARK    6  A    between atoms: C_8  and  C_10
REMARK    7  A    between atoms: C_8  and  N_17
REMARK    8  A    between atoms: C_14  and  O_16
REMARK    9  A    between atoms: N_17  and  C_28
REMARK   10  A    between atoms: C_18  and  C_20
REMARK   11  A    between atoms: C_21  and  O_27
REMARK   12  A    between atoms: C_25  and  O_26
REMARK   13  A    between atoms: C_28  and  C_29
REMARK   14  A    between atoms: C_28  and  C_30
REMARK   15  A    between atoms: C_28  and  C_31
REMARK                            x       y       z     vdW  Elec       q    Type
REMARK                         _______ _______ _______ _____ _____    ______ ____
ROOT
ATOM      1  C   UNL     1       3.632  -1.692  -3.189  0.00  0.00    +0.193 C 
ENDROOT
BRANCH   1   2
ATOM      2  C   UNL     1       3.332  -1.879  -4.654  0.00  0.00    -0.015 A 
ATOM      3  C   UNL     1       2.997  -0.788  -5.435  0.00  0.00    +0.006 A 
ATOM      4  C   UNL     1       2.720  -0.957  -6.779  0.00  0.00    +0.004 A 
ATOM      5  C   UNL     1       2.778  -2.216  -7.345  0.00  0.00    +0.045 A 
ATOM      6  C   UNL     1       3.114  -3.312  -6.563  0.00  0.00    +0.117 A 
ATOM      7  C   UNL     1       3.397  -3.139  -5.216  0.00  0.00    +0.051 A 
BRANCH   6   8
ATOM      8  O   UNL     1       3.171  -4.551  -7.118  0.00  0.00    -0.507 OA
ATOM      9  H   UNL     1       4.041  -4.785  -7.470  0.00  0.00    +0.292 HD
ENDBRANCH   6   8
ENDBRANCH   1   2
BRANCH   1  11
ATOM     10  N   UNL     1       2.119  -3.520  -2.489  0.00  0.00    -0.309 N 
ATOM     11  C   UNL     1       2.488  -2.229  -2.368  0.00  0.00    +0.239 C 
ATOM     12  O   UNL     1       1.898  -1.500  -1.600  0.00  0.00    -0.273 OA
ATOM     13  H   UNL     1       2.591  -4.103  -3.104  0.00  0.00    +0.149 HD
BRANCH  10  15
ATOM     14  C   UNL     1      -0.268  -3.261  -2.022  0.00  0.00    +0.031 C 
ATOM     15  C   UNL     1       1.006  -4.042  -1.692  0.00  0.00    +0.026 C 
ATOM     16  C   UNL     1       1.328  -3.887  -0.204  0.00  0.00    +0.031 C 
ATOM     17  C   UNL     1       0.796  -5.522  -2.017  0.00  0.00    +0.031 C 
ENDBRANCH  10  15
ENDBRANCH   1  11
BRANCH   1  18
ATOM     18  N   UNL     1       3.810  -0.266  -2.905  0.00  0.00    -0.277 N 
ATOM     19  C   UNL     1       2.766   0.579  -3.018  0.00  0.00    +0.255 C 
ATOM     20  O   UNL     1       1.705   0.178  -3.456  0.00  0.00    -0.270 OA
BRANCH  19  21
ATOM     21  C   UNL     1       2.911   1.986  -2.610  0.00  0.00    +0.119 A 
ATOM     22  C   UNL     1       3.246   2.965  -3.557  0.00  0.00    +0.133 A 
ATOM     23  C   UNL     1       3.379   4.286  -3.162  0.00  0.00    +0.046 A 
ATOM     24  C   UNL     1       3.182   4.641  -1.841  0.00  0.00    +0.007 A 
ATOM     25  C   UNL     1       2.851   3.685  -0.899  0.00  0.00    +0.046 A 
ATOM     26  C   UNL     1       2.708   2.358  -1.273  0.00  0.00    +0.133 A 
BRANCH  26  27
ATOM     27  O   UNL     1       2.377   1.422  -0.348  0.00  0.00    -0.506 OA
ATOM     28  H   UNL     1       3.138   1.014   0.088  0.00  0.00    +0.292 HD
ENDBRANCH  26  27
BRANCH  22  29
ATOM     29  O   UNL     1       3.441   2.619  -4.854  0.00  0.00    -0.506 OA
ATOM     30  H   UNL     1       2.639   2.653  -5.394  0.00  0.00    +0.292 HD
ENDBRANCH  22  29
ENDBRANCH  19  21
BRANCH  18  31
ATOM     31  C   UNL     1       5.123   0.242  -2.498  0.00  0.00    +0.030 C 
ATOM     32  C   UNL     1       6.160  -0.877  -2.612  0.00  0.00    +0.031 C 
ATOM     33  C   UNL     1       5.524   1.404  -3.408  0.00  0.00    +0.031 C 
ATOM     34  C   UNL     1       5.055   0.728  -1.049  0.00  0.00    +0.031 C 
ENDBRANCH  18  31
ENDBRANCH   1  18
TORSDOF 9
