REMARK  Name = ZINC56156221
REMARK  10 active torsions:
REMARK  status: ('A' for Active; 'I' for Inactive)
REMARK    1  A    between atoms: C_1  and  C_2
REMARK    2  A    between atoms: N_8  and  C_9
REMARK    3  A    between atoms: C_9  and  C_10
REMARK    4  A    between atoms: C_15  and  C_16
REMARK    5  A    between atoms: C_16  and  N_17
REMARK    6  A    between atoms: N_17  and  C_18
REMARK    7  A    between atoms: C_18  and  C_20
REMARK    8  A    between atoms: C_18  and  C_21
REMARK    9  A    between atoms: N_23  and  C_24
REMARK   10  A    between atoms: C_29  and  C_30
REMARK                            x       y       z     vdW  Elec       q    Type
REMARK                         _______ _______ _______ _____ _____    ______ ____
ROOT
ATOM      1  C   UNL     1       2.607   1.196   3.526  0.00  0.00    +0.117 C 
ENDROOT
BRANCH   1   7
ATOM      2  C   UNL     1       1.157  -0.829   3.773  0.00  0.00    -0.060 A 
ATOM      3  C   UNL     1       0.825  -2.015   4.401  0.00  0.00    +0.002 A 
ATOM      4  C   UNL     1       1.573  -2.463   5.473  0.00  0.00    +0.000 A 
ATOM      5  C   UNL     1       2.655  -1.725   5.918  0.00  0.00    +0.000 A 
ATOM      6  C   UNL     1       2.987  -0.540   5.289  0.00  0.00    +0.005 A 
ATOM      7  C   UNL     1       2.241  -0.094   4.214  0.00  0.00    -0.032 A 
BRANCH   2   8
ATOM      8  C   UNL     1       0.340  -0.341   2.604  0.00  0.00    -0.042 C 
BRANCH   8  15
ATOM      9  C   UNL     1      -0.864  -0.908   0.132  0.00  0.00    -0.013 C 
ATOM     10  C   UNL     1      -1.701  -0.641   1.385  0.00  0.00    -0.071 C 
ATOM     11  C   UNL     1      -3.005  -1.439   1.305  0.00  0.00    -0.016 C 
ATOM     12  C   UNL     1      -3.839  -1.169   2.560  0.00  0.00    -0.003 C 
ATOM     13  C   UNL     1      -3.013  -1.530   3.798  0.00  0.00    -0.019 C 
ATOM     14  C   UNL     1      -1.709  -0.730   3.785  0.00  0.00    -0.078 C 
ATOM     15  N   UNL     1      -0.945  -1.052   2.574  0.00  0.00    +0.384 N 
ATOM     16  H   UNL     1      -0.776  -2.046   2.538  0.00  0.00    -0.081 HD
ENDBRANCH   8  15
ENDBRANCH   2   8
ENDBRANCH   1   7
BRANCH   1  17
ATOM     17  N   UNL     1       1.761   2.282   4.039  0.00  0.00    -0.302 NA
ATOM     18  H   UNL     1       0.785   2.028   4.002  0.00  0.00    +0.123 HD
BRANCH  17  19
ATOM     19  C   UNL     1       2.008   3.532   3.308  0.00  0.00    +0.138 C 
ATOM     20  C   UNL     1       1.149   3.560   2.042  0.00  0.00    +0.034 C 
BRANCH  19  21
ATOM     21  C   UNL     1       1.652   4.705   4.184  0.00  0.00    +0.234 C 
ATOM     22  O   UNL     1       1.233   4.518   5.306  0.00  0.00    -0.274 OA
ATOM     23  N   UNL     1       1.798   5.962   3.719  0.00  0.00    -0.283 N 
ATOM     24  H   UNL     1       2.054   6.111   2.796  0.00  0.00    +0.155 HD
BRANCH  23  25
ATOM     25  C   UNL     1       1.583   7.047   4.567  0.00  0.00    +0.051 A 
ATOM     26  C   UNL     1       0.655   6.956   5.595  0.00  0.00    +0.024 A 
ATOM     27  C   UNL     1       0.443   8.032   6.433  0.00  0.00    +0.002 A 
ATOM     28  C   UNL     1       1.152   9.209   6.256  0.00  0.00    +0.001 A 
ATOM     29  C   UNL     1       2.077   9.318   5.240  0.00  0.00    +0.021 A 
ATOM     30  C   UNL     1       2.307   8.236   4.388  0.00  0.00    +0.073 A 
BRANCH  30  31
ATOM     31  C   UNL     1       3.271   8.340   3.335  0.00  0.00    +0.101 C 
ATOM     32  N   UNL     1       4.036   8.423   2.499  0.00  0.00    -0.191 NA
ENDBRANCH  30  31
ENDBRANCH  23  25
ENDBRANCH  19  21
ENDBRANCH  17  19
ENDBRANCH   1  17
TORSDOF 8
