REMARK  Name = ZINC06565635
REMARK  8 active torsions:
REMARK  status: ('A' for Active; 'I' for Inactive)
REMARK    1  A    between atoms: C_3  and  C_6
REMARK    2  A    between atoms: C_6  and  C_8
REMARK    3  A    between atoms: C_6  and  N_10
REMARK    4  A    between atoms: N_10  and  C_11
REMARK    5  A    between atoms: C_14  and  N_17
REMARK    6  A    between atoms: N_17  and  C_18
REMARK    7  A    between atoms: C_18  and  C_20
REMARK    8  A    between atoms: C_18  and  C_22
REMARK                            x       y       z     vdW  Elec       q    Type
REMARK                         _______ _______ _______ _____ _____    ______ ____
ROOT
ATOM      1  C   UNL     1      -0.017   1.396   0.010  0.00  0.00    +0.028 A 
ATOM      2  C   UNL     1      -1.229   2.074   0.019  0.00  0.00    +0.025 A 
ATOM      3  C   UNL     1      -1.248   3.454   0.031  0.00  0.00    +0.025 A 
ATOM      4  C   UNL     1      -0.054   4.165   0.025  0.00  0.00    +0.028 A 
ATOM      5  C   UNL     1       1.157   3.487   0.010  0.00  0.00    +0.025 A 
ATOM      6  C   UNL     1       1.176   2.106   0.002  0.00  0.00    +0.025 A 
ENDROOT
BRANCH   1   7
ATOM      7  N   UNL     1       0.002  -0.004   0.002  0.00  0.00    -0.325 N 
ATOM      8  H   UNL     1       0.849  -0.478  -0.009  0.00  0.00    +0.148 HD
BRANCH   7   9
ATOM      9  C   UNL     1      -1.256  -0.754   0.010  0.00  0.00    +0.211 C 
BRANCH   9  12
ATOM     10  C   UNL     1      -1.391  -4.080   1.861  0.00  0.00    +0.008 A 
ATOM     11  C   UNL     1      -1.811  -2.831   1.445  0.00  0.00    +0.014 A 
ATOM     12  C   UNL     1      -1.024  -2.120   0.601  0.00  0.00    +0.024 A 
ATOM     13  S   UNL     1       0.358  -3.226   0.365  0.00  0.00    -0.099 S 
ATOM     14  C   UNL     1      -0.204  -4.558   1.414  0.00  0.00    +0.045 A 
ENDBRANCH   9  12
BRANCH   9  15
ATOM     15  C   UNL     1      -1.753  -0.893  -1.369  0.00  0.00    +0.090 C 
ATOM     16  N   UNL     1      -2.136  -1.001  -2.433  0.00  0.00    -0.194 NA
ENDBRANCH   9  15
ENDBRANCH   7   9
ENDBRANCH   1   7
BRANCH   4  17
ATOM     17  N   UNL     1      -0.073   5.565   0.033  0.00  0.00    -0.325 N 
ATOM     18  H   UNL     1       0.760   6.061   0.028  0.00  0.00    +0.148 HD
BRANCH  17  19
ATOM     19  C   UNL     1      -1.352   6.280   0.048  0.00  0.00    +0.211 C 
BRANCH  19  20
ATOM     20  C   UNL     1      -1.167   7.652  -0.546  0.00  0.00    +0.024 A 
ATOM     21  C   UNL     1      -1.989   8.342  -1.375  0.00  0.00    +0.014 A 
ATOM     22  C   UNL     1      -1.611   9.602  -1.798  0.00  0.00    +0.008 A 
ATOM     23  C   UNL     1      -0.429  10.111  -1.373  0.00  0.00    +0.045 A 
ATOM     24  S   UNL     1       0.188   8.796  -0.335  0.00  0.00    -0.099 S 
ENDBRANCH  19  20
BRANCH  19  25
ATOM     25  C   UNL     1      -1.827   6.406   1.436  0.00  0.00    +0.090 C 
ATOM     26  N   UNL     1      -2.193   6.503   2.507  0.00  0.00    -0.194 NA
ENDBRANCH  19  25
ENDBRANCH  17  19
ENDBRANCH   4  17
TORSDOF 8
