REMARK  Name = ZINC35431828
REMARK  10 active torsions:
REMARK  status: ('A' for Active; 'I' for Inactive)
REMARK    1  A    between atoms: C_1  and  C_2
REMARK    2  A    between atoms: N_7  and  C_25
REMARK    3  A    between atoms: C_10  and  S_15
REMARK    4  A    between atoms: S_15  and  N_18
REMARK    5  A    between atoms: C_21  and  C_24
REMARK    6  A    between atoms: C_25  and  C_26
REMARK    7  A    between atoms: N_28  and  C_29
REMARK    8  A    between atoms: C_29  and  C_30
REMARK    9  A    between atoms: C_29  and  C_31
REMARK   10  A    between atoms: C_29  and  C_32
REMARK                            x       y       z     vdW  Elec       q    Type
REMARK                         _______ _______ _______ _____ _____    ______ ____
ROOT
ATOM      1  C   UNL     1      -0.019   1.526   0.010  0.00  0.00    +0.020 C 
ATOM      2  C   UNL     1       0.002  -0.004   0.002  0.00  0.00    +0.057 C 
ATOM      3  C   UNL     1      -1.437  -0.547   0.038  0.00  0.00    +0.110 C 
ATOM      4  C   UNL     1      -1.997  -0.455   1.427  0.00  0.00    +0.221 C 
ATOM      5  O   UNL     1      -2.580   0.552   1.768  0.00  0.00    -0.275 OA
ATOM      6  N   UNL     1      -1.867  -1.465   2.297  0.00  0.00    -0.261 N 
ATOM      7  C   UNL     1      -1.015  -2.542   2.009  0.00  0.00    +0.052 A 
ATOM      8  C   UNL     1      -1.466  -3.847   2.115  0.00  0.00    +0.053 A 
ATOM      9  C   UNL     1      -0.609  -4.894   1.824  0.00  0.00    +0.107 A 
ATOM     10  C   UNL     1       0.692  -4.643   1.428  0.00  0.00    +0.030 A 
ATOM     11  C   UNL     1       1.149  -3.342   1.322  0.00  0.00    +0.018 A 
ATOM     12  C   UNL     1       0.297  -2.290   1.613  0.00  0.00    +0.030 A 
ATOM     13  S   UNL     1       0.856  -0.621   1.491  0.00  0.00    -0.120 S 
ENDROOT
BRANCH   9  14
ATOM     14  S   UNL     1      -1.180  -6.556   1.958  0.00  0.00    +0.061 S 
ATOM     15  O   UNL     1      -0.029  -7.365   2.159  0.00  0.00    -0.153 OA
ATOM     16  O   UNL     1      -2.268  -6.539   2.872  0.00  0.00    -0.153 OA
BRANCH  14  17
ATOM     17  N   UNL     1      -1.805  -6.980   0.485  0.00  0.00    -0.177 NA
ATOM     18  C   UNL     1      -3.223  -6.746   0.179  0.00  0.00    +0.110 C 
ATOM     19  C   UNL     1      -3.849  -8.063  -0.292  0.00  0.00    +0.020 C 
ATOM     20  C   UNL     1      -3.037  -8.620  -1.463  0.00  0.00    -0.012 C 
ATOM     21  C   UNL     1      -1.605  -8.903  -1.004  0.00  0.00    +0.020 C 
ATOM     22  C   UNL     1      -0.952  -7.590  -0.543  0.00  0.00    +0.110 C 
ATOM     23  C   UNL     1      -3.679  -9.917  -1.958  0.00  0.00    +0.007 C 
ENDBRANCH  14  17
ENDBRANCH   9  14
BRANCH   6  24
ATOM     24  C   UNL     1      -2.618  -1.444   3.555  0.00  0.00    +0.209 C 
BRANCH  24  25
ATOM     25  C   UNL     1      -3.950  -2.119   3.356  0.00  0.00    +0.231 C 
ATOM     26  O   UNL     1      -4.244  -2.572   2.270  0.00  0.00    -0.274 OA
ATOM     27  N   UNL     1      -4.815  -2.219   4.384  0.00  0.00    -0.309 N 
ATOM     28  H   UNL     1      -4.580  -1.856   5.253  0.00  0.00    +0.149 HD
BRANCH  27  29
ATOM     29  C   UNL     1      -6.111  -2.875   4.191  0.00  0.00    +0.026 C 
ATOM     30  C   UNL     1      -5.888  -4.324   3.753  0.00  0.00    +0.031 C 
ATOM     31  C   UNL     1      -6.895  -2.853   5.505  0.00  0.00    +0.031 C 
ATOM     32  C   UNL     1      -6.903  -2.132   3.113  0.00  0.00    +0.031 C 
ENDBRANCH  27  29
ENDBRANCH  24  25
ENDBRANCH   6  24
TORSDOF 5
