REMARK  Name = ZINC00661907
REMARK  5 active torsions:
REMARK  status: ('A' for Active; 'I' for Inactive)
REMARK    1  A    between atoms: C_1  and  C_2
REMARK    2  A    between atoms: C_2  and  C_3
REMARK    3  A    between atoms: C_11  and  N_27
REMARK    4  A    between atoms: C_12  and  C_16
REMARK    5  A    between atoms: N_18  and  C_19
REMARK                            x       y       z     vdW  Elec       q    Type
REMARK                         _______ _______ _______ _____ _____    ______ ____
ROOT
ATOM      1  C   UNL     1      -1.146   1.567  -1.288  0.00  0.00    -0.007 C 
ATOM      2  C   UNL     1      -0.207   1.122  -0.161  0.00  0.00    +0.010 C 
ATOM      3  C   UNL     1      -0.781   1.612   1.167  0.00  0.00    +0.056 C 
ATOM      4  C   UNL     1      -1.097   3.083   1.097  0.00  0.00    +0.046 A 
ATOM      5  C   UNL     1      -1.222   3.760  -0.102  0.00  0.00    -0.025 A 
ATOM      6  C   UNL     1      -1.526   5.108  -0.106  0.00  0.00    +0.017 A 
ATOM      7  C   UNL     1      -1.703   5.789   1.121  0.00  0.00    +0.029 A 
ATOM      8  C   UNL     1      -2.022   7.189   1.351  0.00  0.00    +0.053 A 
ATOM      9  C   UNL     1      -2.144   7.628   2.651  0.00  0.00    +0.097 A 
ATOM     10  S   UNL     1      -1.831   6.160   3.612  0.00  0.00    -0.062 S 
ATOM     11  C   UNL     1      -1.549   5.009   2.289  0.00  0.00    +0.111 A 
ATOM     12  N   UNL     1      -1.262   3.729   2.243  0.00  0.00    -0.244 NA
ATOM     13  C   UNL     1      -1.038   3.083  -1.436  0.00  0.00    +0.040 C 
ENDROOT
BRANCH   9  14
ATOM     14  C   UNL     1      -2.445   8.932   3.114  0.00  0.00    +0.257 C 
ATOM     15  O   UNL     1      -2.633   9.833   2.316  0.00  0.00    -0.269 OA
ATOM     16  N   UNL     1      -2.523   9.177   4.437  0.00  0.00    -0.281 N 
ATOM     17  H   UNL     1      -2.449   8.446   5.070  0.00  0.00    +0.155 HD
BRANCH  16  18
ATOM     18  C   UNL     1      -2.710  10.484   4.896  0.00  0.00    +0.036 A 
ATOM     19  C   UNL     1      -3.453  10.717   6.047  0.00  0.00    +0.043 A 
ATOM     20  C   UNL     1      -3.631  12.010   6.503  0.00  0.00    +0.044 A 
ATOM     21  C   UNL     1      -3.081  13.072   5.807  0.00  0.00    +0.040 A 
ATOM     22  C   UNL     1      -2.346  12.843   4.657  0.00  0.00    +0.044 A 
ATOM     23  C   UNL     1      -2.159  11.552   4.200  0.00  0.00    +0.043 A 
ATOM     24 CL   UNL     1      -1.657  14.179   3.787  0.00  0.00    -0.083 Cl
ATOM     25 CL   UNL     1      -4.552  12.302   7.945  0.00  0.00    -0.083 Cl
ENDBRANCH  16  18
ENDBRANCH   9  14
BRANCH   8  26
ATOM     26  N   UNL     1      -2.200   8.062   0.286  0.00  0.00    -0.356 N 
ATOM     27  H   UNL     1      -2.112   7.741  -0.625  0.00  0.00    +0.142 HD
ATOM     28  H   UNL     1      -2.413   8.994   0.454  0.00  0.00    +0.142 HD
ENDBRANCH   8  26
BRANCH   1  30
ATOM     29  C   UNL     1      -1.748   1.239  -3.691  0.00  0.00    +0.004 C 
ATOM     30  C   UNL     1      -0.735   0.891  -2.598  0.00  0.00    +0.000 C 
ENDBRANCH   1  30
TORSDOF 4
