REMARK  Name = ZINC25308824
REMARK  6 active torsions:
REMARK  status: ('A' for Active; 'I' for Inactive)
REMARK    1  A    between atoms: C_1  and  C_2
REMARK    2  A    between atoms: C_4  and  C_31
REMARK    3  A    between atoms: C_14  and  C_17
REMARK    4  A    between atoms: C_22  and  O_23
REMARK    5  A    between atoms: O_23  and  C_24
REMARK    6  A    between atoms: C_24  and  C_25
REMARK                            x       y       z     vdW  Elec       q    Type
REMARK                         _______ _______ _______ _____ _____    ______ ____
ROOT
ATOM      1  C   UNL     1       1.220  -2.191  -0.018  0.00  0.00    +0.044 C 
ATOM      2  C   UNL     1       1.197  -0.684  -0.011  0.00  0.00    -0.037 A 
ATOM      3  C   UNL     1       0.002  -0.004   0.002  0.00  0.00    +0.025 A 
ATOM      4  C   UNL     1      -0.017   1.383   0.010  0.00  0.00    +0.014 A 
ATOM      5  N   UNL     1       1.111   2.066   0.003  0.00  0.00    -0.353 N 
ATOM      6  C   UNL     1       2.279   1.461  -0.013  0.00  0.00    +0.088 A 
ATOM      7  C   UNL     1       2.408   0.053  -0.019  0.00  0.00    +0.030 A 
ATOM      8  C   UNL     1       3.774  -0.459  -0.029  0.00  0.00    +0.058 A 
ATOM      9  C   UNL     1       4.788   0.489  -0.050  0.00  0.00    +0.097 A 
ATOM     10  S   UNL     1       3.959   2.046  -0.033  0.00  0.00    -0.064 S 
ATOM     11  C   UNL     1       6.159   0.173  -0.083  0.00  0.00    +0.254 C 
ATOM     12  O   UNL     1       7.027   1.012   0.079  0.00  0.00    -0.270 OA
ATOM     13  N   UNL     1       6.443  -1.139  -0.309  0.00  0.00    -0.289 N 
ATOM     14  C   UNL     1       5.381  -2.057  -0.710  0.00  0.00    +0.193 C 
ATOM     15  N   UNL     1       4.121  -1.820  -0.003  0.00  0.00    -0.321 N 
ATOM     16  C   UNL     1      -1.335   2.113   0.020  0.00  0.00    +0.063 C 
ATOM     17  H   UNL     1       7.473  -1.507  -0.189  0.00  0.00    +0.151 HD
ATOM     18  H   UNL     1       3.583  -2.661   0.460  0.00  0.00    +0.148 HD
ATOM     19  H   UNL     1       1.089   3.165   0.009  0.00  0.00    +0.166 HD
ENDROOT
BRANCH  14  20
ATOM     20  C   UNL     1       5.142  -1.905  -2.190  0.00  0.00    +0.032 A 
ATOM     21  C   UNL     1       3.865  -2.033  -2.701  0.00  0.00    +0.011 A 
ATOM     22  C   UNL     1       3.645  -1.894  -4.059  0.00  0.00    +0.001 A 
ATOM     23  C   UNL     1       4.702  -1.625  -4.909  0.00  0.00    +0.004 A 
ATOM     24  C   UNL     1       5.981  -1.495  -4.403  0.00  0.00    +0.046 A 
ATOM     25  C   UNL     1       6.203  -1.630  -3.040  0.00  0.00    +0.128 A 
BRANCH  25  26
ATOM     26  O   UNL     1       7.460  -1.498  -2.539  0.00  0.00    -0.485 OA
BRANCH  26  27
ATOM     27  C   UNL     1       8.504  -1.216  -3.473  0.00  0.00    +0.284 C 
BRANCH  27  28
ATOM     28  C   UNL     1       9.816  -1.104  -2.740  0.00  0.00    +0.078 A 
ATOM     29  C   UNL     1       9.850  -1.275  -1.369  0.00  0.00    +0.027 A 
ATOM     30  C   UNL     1      11.062  -1.171  -0.705  0.00  0.00    +0.003 A 
ATOM     31  C   UNL     1      12.200  -0.898  -1.448  0.00  0.00    +0.020 A 
ATOM     32  C   UNL     1      12.090  -0.740  -2.816  0.00  0.00    +0.111 A 
ATOM     33  N   UNL     1      10.920  -0.851  -3.416  0.00  0.00    -0.256 NA
ENDBRANCH  27  28
ENDBRANCH  26  27
ENDBRANCH  25  26
ENDBRANCH  14  20
TORSDOF 4
