REMARK  Name = ZINC39673330
REMARK  7 active torsions:
REMARK  status: ('A' for Active; 'I' for Inactive)
REMARK    1  A    between atoms: C_1  and  C_2
REMARK    2  A    between atoms: C_6  and  C_9
REMARK    3  A    between atoms: C_13  and  C_22
REMARK    4  A    between atoms: N_24  and  C_25
REMARK    5  A    between atoms: C_25  and  C_26
REMARK    6  A    between atoms: C_29  and  O_32
REMARK    7  A    between atoms: O_32  and  C_33
REMARK                            x       y       z     vdW  Elec       q    Type
REMARK                         _______ _______ _______ _____ _____    ______ ____
ROOT
ATOM      1  C   UNL     1       0.088  -2.900   2.609  0.00  0.00    +0.251 C 
ATOM      2  O   UNL     1       1.132  -3.257   3.121  0.00  0.00    -0.270 OA
ATOM      3  N   UNL     1      -1.089  -3.273   3.149  0.00  0.00    -0.296 N 
ATOM      4  C   UNL     1      -2.452  -2.946   2.668  0.00  0.00    +0.121 C 
ATOM      5  C   UNL     1      -3.264  -4.243   2.883  0.00  0.00    +0.100 C 
ATOM      6  C   UNL     1      -2.512  -4.996   3.994  0.00  0.00    -0.004 C 
ATOM      7  C   UNL     1      -1.313  -4.107   4.354  0.00  0.00    +0.115 C 
ATOM      8  C   UNL     1      -3.415  -5.185   5.209  0.00  0.00    -0.010 C 
ATOM      9  C   UNL     1      -2.666  -5.986   6.277  0.00  0.00    -0.082 C 
ATOM     10  N   UNL     1      -2.273  -7.290   5.727  0.00  0.00    +0.379 N 
ATOM     11  C   UNL     1      -1.331  -7.102   4.617  0.00  0.00    -0.082 C 
ATOM     12  C   UNL     1      -2.024  -6.347   3.479  0.00  0.00    -0.010 C 
ATOM     13  H   UNL     1      -1.833  -7.839   6.450  0.00  0.00    -0.086 HD
ATOM     14  H   UNL     1      -3.093  -7.773   5.393  0.00  0.00    -0.086 HD
ENDROOT
BRANCH   1  20
ATOM     15  C   UNL     1       0.156   1.617   0.480  0.00  0.00    +0.047 C 
ATOM     16  C   UNL     1       0.143   0.114   0.365  0.00  0.00    -0.014 A 
ATOM     17  C   UNL     1       0.153  -0.482  -0.883  0.00  0.00    +0.007 A 
ATOM     18  C   UNL     1       0.141  -1.860  -1.000  0.00  0.00    +0.021 A 
ATOM     19  C   UNL     1       0.120  -2.653   0.130  0.00  0.00    +0.056 A 
ATOM     20  C   UNL     1       0.111  -2.060   1.395  0.00  0.00    +0.091 A 
ATOM     21  C   UNL     1       0.128  -0.665   1.506  0.00  0.00    +0.140 A 
ATOM     22  F   UNL     1       0.124  -0.082   2.725  0.00  0.00    -0.204 F 
ATOM     23 CL   UNL     1       0.105  -4.382  -0.020  0.00  0.00    -0.083 Cl
ENDBRANCH   1  20
BRANCH   5  24
ATOM     24  C   UNL     1      -4.667  -3.917   3.324  0.00  0.00    +0.218 C 
ATOM     25  O   UNL     1      -4.881  -2.918   3.977  0.00  0.00    -0.275 OA
ATOM     26  N   UNL     1      -5.685  -4.737   2.993  0.00  0.00    -0.311 N 
ATOM     27  H   UNL     1      -5.513  -5.537   2.472  0.00  0.00    +0.149 HD
BRANCH  26  28
ATOM     28  C   UNL     1      -7.049  -4.420   3.422  0.00  0.00    +0.139 C 
BRANCH  28  29
ATOM     29  C   UNL     1      -7.992  -5.487   2.926  0.00  0.00    -0.030 A 
ATOM     30  C   UNL     1      -8.592  -5.356   1.688  0.00  0.00    +0.009 A 
ATOM     31  C   UNL     1      -9.456  -6.332   1.231  0.00  0.00    +0.046 A 
ATOM     32  C   UNL     1      -9.722  -7.444   2.017  0.00  0.00    +0.127 A 
ATOM     33  C   UNL     1      -9.119  -7.573   3.259  0.00  0.00    +0.046 A 
ATOM     34  C   UNL     1      -8.251  -6.597   3.709  0.00  0.00    +0.009 A 
BRANCH  32  35
ATOM     35  O   UNL     1     -10.573  -8.405   1.570  0.00  0.00    -0.434 OA
BRANCH  35  36
ATOM     36  C   UNL     1     -10.799  -9.522   2.432  0.00  0.00    +0.541 C 
ATOM     37  F   UNL     1      -9.587 -10.177   2.676  0.00  0.00    -0.166 F 
ATOM     38  F   UNL     1     -11.340  -9.075   3.643  0.00  0.00    -0.166 F 
ENDBRANCH  35  36
ENDBRANCH  32  35
ENDBRANCH  28  29
ENDBRANCH  26  28
ENDBRANCH   5  24
TORSDOF 6
