REMARK  Name = ZINC06721539
REMARK  7 active torsions:
REMARK  status: ('A' for Active; 'I' for Inactive)
REMARK    1  A    between atoms: C_1  and  C_2
REMARK    2  A    between atoms: C_4  and  C_22
REMARK    3  A    between atoms: N_11  and  C_12
REMARK    4  A    between atoms: C_12  and  C_13
REMARK    5  A    between atoms: C_16  and  O_21
REMARK    6  A    between atoms: C_17  and  O_19
REMARK    7  A    between atoms: O_19  and  C_20
REMARK                            x       y       z     vdW  Elec       q    Type
REMARK                         _______ _______ _______ _____ _____    ______ ____
ROOT
ATOM      1  C   UNL     1      -0.018   1.503   0.010  0.00  0.00    +0.044 C 
ATOM      2  C   UNL     1       0.002  -0.004   0.002  0.00  0.00    -0.049 A 
ATOM      3  C   UNL     1       0.006  -0.698  -1.199  0.00  0.00    +0.009 A 
ATOM      4  C   UNL     1       0.024  -2.068  -1.234  0.00  0.00    -0.024 A 
ATOM      5  C   UNL     1       0.039  -2.822  -0.038  0.00  0.00    +0.083 A 
ATOM      6  C   UNL     1       0.035  -2.081   1.166  0.00  0.00    +0.041 A 
ATOM      7  C   UNL     1       0.023  -0.709   1.192  0.00  0.00    +0.020 A 
ATOM      8  S   UNL     1       0.059  -3.361   2.398  0.00  0.00    -0.052 S 
ATOM      9  C   UNL     1       0.072  -4.753   1.277  0.00  0.00    +0.159 A 
ATOM     10  N   UNL     1       0.058  -4.165   0.102  0.00  0.00    -0.225 NA
ATOM     11  N   UNL     1       0.092  -6.101   1.571  0.00  0.00    -0.319 N 
ATOM     12  C   UNL     1       0.027  -2.780  -2.563  0.00  0.00    +0.046 C 
ATOM     13  H   UNL     1       0.097  -6.753   0.853  0.00  0.00    +0.148 HD
ENDROOT
BRANCH  11  14
ATOM     14  C   UNL     1       0.104  -6.546   2.966  0.00  0.00    +0.139 C 
BRANCH  14  15
ATOM     15  C   UNL     1       0.125  -8.052   3.013  0.00  0.00    -0.027 A 
ATOM     16  C   UNL     1      -1.063  -8.758   3.034  0.00  0.00    +0.009 A 
ATOM     17  C   UNL     1      -1.050 -10.140   3.076  0.00  0.00    +0.049 A 
ATOM     18  C   UNL     1       0.157 -10.820   3.098  0.00  0.00    +0.158 A 
ATOM     19  C   UNL     1       1.353 -10.110   3.076  0.00  0.00    +0.162 A 
ATOM     20  C   UNL     1       1.333  -8.725   3.028  0.00  0.00    +0.054 A 
BRANCH  19  21
ATOM     21  O   UNL     1       2.540 -10.773   3.096  0.00  0.00    -0.491 OA
ATOM     22  C   UNL     1       3.728  -9.979   3.072  0.00  0.00    +0.277 C 
ENDBRANCH  19  21
BRANCH  18  23
ATOM     23  O   UNL     1       0.172 -12.180   3.140  0.00  0.00    -0.503 OA
ATOM     24  H   UNL     1       0.177 -12.600   2.269  0.00  0.00    +0.292 HD
ENDBRANCH  18  23
ENDBRANCH  14  15
ENDBRANCH  11  14
TORSDOF 4
