REMARK  Name = ZINC13063828
REMARK  12 active torsions:
REMARK  status: ('A' for Active; 'I' for Inactive)
REMARK    1  A    between atoms: C_1  and  C_2
REMARK    2  A    between atoms: C_2  and  C_3
REMARK    3  A    between atoms: C_3  and  C_5
REMARK    4  A    between atoms: C_3  and  N_73
REMARK    5  A    between atoms: N_9  and  C_10
REMARK    6  A    between atoms: C_16  and  C_17
REMARK    7  A    between atoms: C_16  and  N_73
REMARK    8  A    between atoms: C_20  and  O_23
REMARK    9  A    between atoms: O_23  and  C_24
REMARK   10  A    between atoms: C_25  and  C_26
REMARK   11  A    between atoms: C_25  and  N_73
REMARK   12  A    between atoms: C_31  and  C_38
REMARK                            x       y       z     vdW  Elec       q    Type
REMARK                         _______ _______ _______ _____ _____    ______ ____
ROOT
ATOM      1  N   UNL     1      -1.915   2.569   2.247  0.00  0.00    +0.392 N 
ATOM      2  H   UNL     1      -1.255   3.236   2.663  0.00  0.00    -0.080 HD
ENDROOT
BRANCH   1   3
ATOM      3  C   UNL     1      -1.753   1.257   2.907  0.00  0.00    +0.003 C 
BRANCH   3   4
ATOM      4  C   UNL     1      -2.853   0.316   2.489  0.00  0.00    +0.138 A 
ATOM      5  N   UNL     1      -4.122   0.610   2.344  0.00  0.00    -0.115 NA
ATOM      6  N   UNL     1      -4.739  -0.459   1.975  0.00  0.00    -0.023 NA
ATOM      7  N   UNL     1      -3.898  -1.429   1.888  0.00  0.00    -0.044 NA
ATOM      8  N   UNL     1      -2.725  -0.992   2.197  0.00  0.00    -0.228 N 
BRANCH   8   9
ATOM      9  C   UNL     1      -1.485  -1.772   2.225  0.00  0.00    +0.111 C 
ATOM     10  C   UNL     1      -1.314  -2.506   0.893  0.00  0.00    +0.027 C 
ATOM     11  C   UNL     1      -0.019  -3.321   0.922  0.00  0.00    +0.002 C 
ATOM     12  C   UNL     1      -0.083  -4.339   2.062  0.00  0.00    +0.000 C 
ATOM     13  C   UNL     1      -0.254  -3.605   3.394  0.00  0.00    +0.002 C 
ATOM     14  C   UNL     1      -1.548  -2.791   3.365  0.00  0.00    +0.027 C 
ENDBRANCH   8   9
ENDBRANCH   3   4
BRANCH   3  16
ATOM     15  C   UNL     1      -0.606   2.304   4.864  0.00  0.00    +0.002 C 
ATOM     16  C   UNL     1      -1.803   1.458   4.423  0.00  0.00    -0.011 C 
ENDBRANCH   3  16
ENDBRANCH   1   3
BRANCH   1  17
ATOM     17  C   UNL     1      -1.626   2.447   0.802  0.00  0.00    -0.042 C 
BRANCH  17  18
ATOM     18  C   UNL     1      -0.137   2.314   0.616  0.00  0.00    -0.064 A 
ATOM     19  C   UNL     1       0.648   3.446   0.496  0.00  0.00    +0.005 A 
ATOM     20  C   UNL     1       2.013   3.327   0.320  0.00  0.00    +0.046 A 
ATOM     21  C   UNL     1       2.596   2.069   0.263  0.00  0.00    +0.120 A 
ATOM     22  C   UNL     1       1.807   0.935   0.384  0.00  0.00    +0.046 A 
ATOM     23  C   UNL     1       0.442   1.060   0.560  0.00  0.00    +0.005 A 
BRANCH  21  24
ATOM     24  O   UNL     1       3.939   1.949   0.090  0.00  0.00    -0.495 OA
ATOM     25  C   UNL     1       4.689   3.160  -0.026  0.00  0.00    +0.277 C 
ENDBRANCH  21  24
ENDBRANCH  17  18
ENDBRANCH   1  17
BRANCH   1  26
ATOM     26  C   UNL     1      -3.292   3.068   2.446  0.00  0.00    -0.036 C 
BRANCH  26  27
ATOM     27  C   UNL     1      -3.306   4.556   2.204  0.00  0.00    +0.001 A 
ATOM     28  C   UNL     1      -3.659   5.039   0.988  0.00  0.00    +0.017 A 
ATOM     29  C   UNL     1      -3.662   6.489   0.785  0.00  0.00    -0.001 A 
ATOM     30  C   UNL     1      -4.017   7.047  -0.447  0.00  0.00    +0.010 A 
ATOM     31  C   UNL     1      -4.010   8.404  -0.604  0.00  0.00    +0.004 A 
ATOM     32  C   UNL     1      -3.654   9.235   0.450  0.00  0.00    -0.048 A 
ATOM     33  C   UNL     1      -3.301   8.707   1.673  0.00  0.00    +0.029 A 
ATOM     34  C   UNL     1      -3.300   7.328   1.856  0.00  0.00    +0.049 A 
ATOM     35  N   UNL     1      -2.952   6.773   3.069  0.00  0.00    -0.322 N 
ATOM     36  H   UNL     1      -2.703   7.353   3.806  0.00  0.00    +0.169 HD
ATOM     37  C   UNL     1      -2.957   5.441   3.247  0.00  0.00    +0.251 A 
ATOM     38  O   UNL     1      -2.648   4.985   4.334  0.00  0.00    -0.268 OA
ATOM     39  C   UNL     1      -3.654  10.729   0.255  0.00  0.00    +0.044 C 
ENDBRANCH  26  27
ENDBRANCH   1  26
TORSDOF 9
