REMARK  Name = ZINC14275978
REMARK  11 active torsions:
REMARK  status: ('A' for Active; 'I' for Inactive)
REMARK    1  A    between atoms: C_1  and  C_2
REMARK    2  A    between atoms: C_2  and  N_3
REMARK    3  A    between atoms: N_3  and  C_4
REMARK    4  A    between atoms: N_3  and  C_6
REMARK    5  A    between atoms: C_4  and  C_5
REMARK    6  A    between atoms: C_9  and  N_13
REMARK    7  A    between atoms: C_10  and  C_12
REMARK    8  A    between atoms: N_13  and  C_14
REMARK    9  A    between atoms: C_14  and  N_16
REMARK   10  A    between atoms: C_17  and  C_19
REMARK   11  A    between atoms: C_22  and  C_24
REMARK                            x       y       z     vdW  Elec       q    Type
REMARK                         _______ _______ _______ _____ _____    ______ ____
ROOT
ATOM      1  C   UNL     1      -1.986   4.670   0.933  0.00  0.00    +0.141 C 
ATOM      2  S   UNL     1      -3.251   4.411   2.057  0.00  0.00    -0.018 S 
ENDROOT
BRANCH   1   3
ATOM      3  N   UNL     1      -0.904   3.866   0.938  0.00  0.00    -0.261 N 
ATOM      4  C   UNL     1      -0.819   2.857   1.828  0.00  0.00    +0.285 C 
ATOM      5  O   UNL     1      -1.718   2.673   2.627  0.00  0.00    -0.266 OA
ATOM      6  H   UNL     1      -0.187   4.013   0.302  0.00  0.00    +0.157 HD
BRANCH   4   7
ATOM      7  C   UNL     1       0.356   1.984   1.834  0.00  0.00    +0.190 A 
ATOM      8  C   UNL     1       0.570   0.921   2.686  0.00  0.00    +0.055 A 
ATOM      9  C   UNL     1       1.806   0.368   2.337  0.00  0.00    +0.050 A 
ATOM     10  C   UNL     1       2.297   1.105   1.297  0.00  0.00    +0.136 A 
ATOM     11  O   UNL     1       1.416   2.075   1.003  0.00  0.00    -0.450 OA
BRANCH  10  12
ATOM     12  C   UNL     1       3.584   0.874   0.611  0.00  0.00    +0.017 A 
ATOM     13  C   UNL     1       4.418  -0.170   1.017  0.00  0.00    +0.012 A 
ATOM     14  C   UNL     1       5.617  -0.383   0.369  0.00  0.00    +0.016 A 
ATOM     15  C   UNL     1       5.998   0.441  -0.677  0.00  0.00    +0.018 A 
ATOM     16  C   UNL     1       5.178   1.480  -1.081  0.00  0.00    +0.016 A 
ATOM     17  C   UNL     1       3.974   1.701  -0.444  0.00  0.00    +0.012 A 
ATOM     18 BR   UNL     1       7.646   0.145  -1.556  0.00  0.00    -0.050 Br
ENDBRANCH  10  12
ENDBRANCH   4   7
ENDBRANCH   1   3
BRANCH   1  19
ATOM     19  N   UNL     1      -2.071   5.679   0.043  0.00  0.00    -0.296 N 
ATOM     20  H   UNL     1      -1.321   5.876  -0.540  0.00  0.00    +0.154 HD
BRANCH  19  24
ATOM     21  C   UNL     1      -5.559   7.953  -0.202  0.00  0.00    +0.030 A 
ATOM     22  C   UNL     1      -5.637   6.569  -0.110  0.00  0.00    +0.025 A 
ATOM     23  C   UNL     1      -4.482   5.816  -0.029  0.00  0.00    +0.025 A 
ATOM     24  C   UNL     1      -3.243   6.443  -0.040  0.00  0.00    +0.036 A 
ATOM     25  C   UNL     1      -3.165   7.826  -0.126  0.00  0.00    -0.028 A 
ATOM     26  C   UNL     1      -4.319   8.579  -0.213  0.00  0.00    +0.028 A 
ATOM     27  C   UNL     1      -1.820   8.506  -0.132  0.00  0.00    +0.046 C 
BRANCH  21  28
ATOM     28  N   UNL     1      -6.729   8.716  -0.283  0.00  0.00    -0.330 N 
BRANCH  28  30
ATOM     29  C   UNL     1      -8.527   7.923   1.172  0.00  0.00    +0.024 C 
ATOM     30  C   UNL     1      -8.036   8.055  -0.271  0.00  0.00    +0.102 C 
ENDBRANCH  28  30
BRANCH  28  31
ATOM     31  C   UNL     1      -6.646  10.175  -0.380  0.00  0.00    +0.102 C 
ATOM     32  C   UNL     1      -6.581  10.585  -1.853  0.00  0.00    +0.024 C 
ENDBRANCH  28  31
ENDBRANCH  21  28
ENDBRANCH  19  24
ENDBRANCH   1  19
TORSDOF 8
