REMARK  Name = ZINC16502886
REMARK  8 active torsions:
REMARK  status: ('A' for Active; 'I' for Inactive)
REMARK    1  A    between atoms: C_1  and  C_2
REMARK    2  A    between atoms: C_5  and  N_9
REMARK    3  A    between atoms: C_10  and  C_32
REMARK    4  A    between atoms: C_11  and  C_27
REMARK    5  A    between atoms: C_12  and  C_17
REMARK    6  A    between atoms: C_21  and  N_23
REMARK    7  A    between atoms: N_29  and  C_30
REMARK    8  A    between atoms: N_29  and  C_31
REMARK                            x       y       z     vdW  Elec       q    Type
REMARK                         _______ _______ _______ _____ _____    ______ ____
ROOT
ATOM      1  N   UNL     1      -1.303   2.042  -0.087  0.00  0.00    -0.255 N 
ATOM      2  C   UNL     1      -1.243   3.398   0.076  0.00  0.00    +0.025 C 
ATOM      3  C   UNL     1      -2.363   4.127   0.263  0.00  0.00    +0.056 C 
ATOM      4  C   UNL     1      -3.688   3.392   0.287  0.00  0.00    +0.139 C 
ATOM      5  N   UNL     1      -3.644   1.932   0.102  0.00  0.00    -0.315 N 
ATOM      6  C   UNL     1      -2.446   1.344  -0.080  0.00  0.00    +0.142 C 
ATOM      7  S   UNL     1      -2.381  -0.353  -0.303  0.00  0.00    -0.018 S 
ATOM      8  C   UNL     1       0.096   4.090   0.046  0.00  0.00    +0.062 C 
ATOM      9  H   UNL     1      -4.460   1.406   0.108  0.00  0.00    +0.149 HD
ENDROOT
BRANCH   1  14
ATOM     10  C   UNL     1       3.550  -0.795  -0.869  0.00  0.00    +0.047 C 
ATOM     11  C   UNL     1       2.262  -0.041  -0.660  0.00  0.00    -0.015 A 
ATOM     12  C   UNL     1       1.600   0.506  -1.744  0.00  0.00    +0.008 A 
ATOM     13  C   UNL     1       0.420   1.198  -1.557  0.00  0.00    +0.024 A 
ATOM     14  C   UNL     1      -0.103   1.345  -0.278  0.00  0.00    +0.043 A 
ATOM     15  C   UNL     1       0.562   0.795   0.809  0.00  0.00    +0.062 A 
ATOM     16  C   UNL     1       1.744   0.102   0.616  0.00  0.00    +0.128 A 
ATOM     17  F   UNL     1       2.393  -0.433   1.673  0.00  0.00    -0.205 F 
ENDBRANCH   1  14
BRANCH   4  18
ATOM     18  C   UNL     1      -4.351   3.674   1.610  0.00  0.00    -0.020 A 
ATOM     19  C   UNL     1      -3.884   3.066   2.761  0.00  0.00    +0.007 A 
ATOM     20  C   UNL     1      -4.492   3.324   3.974  0.00  0.00    +0.022 A 
ATOM     21  C   UNL     1      -5.569   4.190   4.038  0.00  0.00    +0.071 A 
ATOM     22  C   UNL     1      -6.037   4.797   2.886  0.00  0.00    +0.145 A 
ATOM     23  C   UNL     1      -5.424   4.543   1.674  0.00  0.00    +0.040 A 
ATOM     24 CL   UNL     1      -6.335   4.513   5.562  0.00  0.00    -0.081 Cl
BRANCH  22  25
ATOM     25  N   UNL     1      -7.189   5.723   2.954  0.00  0.00    +0.058 N 
ATOM     26  O   UNL     1      -7.601   6.258   1.940  0.00  0.00    -0.126 OA
ATOM     27  O   UNL     1      -7.726   5.951   4.023  0.00  0.00    -0.126 OA
ENDBRANCH  22  25
ENDBRANCH   4  18
BRANCH   3  28
ATOM     28  C   UNL     1      -2.302   5.533   0.431  0.00  0.00    +0.246 C 
ATOM     29  O   UNL     1      -2.357   6.015   1.548  0.00  0.00    -0.270 OA
ATOM     30  N   UNL     1      -2.184   6.336  -0.644  0.00  0.00    -0.304 N 
ATOM     31  C   UNL     1      -2.232   7.791  -0.481  0.00  0.00    +0.132 C 
ATOM     32  C   UNL     1      -2.008   5.754  -1.977  0.00  0.00    +0.132 C 
ENDBRANCH   3  28
TORSDOF 4
