REMARK  Name = ZINC23076276
REMARK  4 active torsions:
REMARK  status: ('A' for Active; 'I' for Inactive)
REMARK    1  A    between atoms: C_1  and  C_2
REMARK    2  A    between atoms: C_8  and  C_12
REMARK    3  A    between atoms: C_20  and  O_24
REMARK    4  A    between atoms: O_24  and  C_25
REMARK                            x       y       z     vdW  Elec       q    Type
REMARK                         _______ _______ _______ _____ _____    ______ ____
ROOT
ATOM      1  C   UNL     1       0.193   0.165   3.409  0.00  0.00    +0.240 C 
ATOM      2  O   UNL     1       1.077   0.974   3.218  0.00  0.00    -0.273 OA
ATOM      3  N   UNL     1      -0.468   0.154   4.583  0.00  0.00    -0.263 N 
ATOM      4  C   UNL     1      -0.137   1.066   5.573  0.00  0.00    +0.165 A 
ATOM      5  N   UNL     1       0.774   2.010   5.552  0.00  0.00    -0.225 NA
ATOM      6  C   UNL     1       0.990   2.835   6.600  0.00  0.00    +0.081 A 
ATOM      7  C   UNL     1       1.933   3.884   6.704  0.00  0.00    +0.032 A 
ATOM      8  C   UNL     1       2.025   4.633   7.847  0.00  0.00    +0.048 A 
ATOM      9  C   UNL     1       1.200   4.393   8.942  0.00  0.00    +0.121 A 
ATOM     10  C   UNL     1       0.264   3.372   8.872  0.00  0.00    +0.063 A 
ATOM     11  C   UNL     1       0.168   2.618   7.729  0.00  0.00    +0.044 A 
ATOM     12  S   UNL     1      -0.850   1.261   7.201  0.00  0.00    -0.052 S 
ATOM     13  H   UNL     1      -1.174  -0.493   4.736  0.00  0.00    +0.157 HD
ENDROOT
BRANCH   1  21
ATOM     14  C   UNL     1      -0.019   1.526   0.010  0.00  0.00    +0.044 C 
ATOM     15  C   UNL     1       0.002  -0.004   0.002  0.00  0.00    +0.082 C 
ATOM     16  C   UNL     1       0.727  -0.586  -1.221  0.00  0.00    +0.046 C 
ATOM     17  C   UNL     1       2.173  -0.676  -0.673  0.00  0.00    +0.099 C 
ATOM     18  C   UNL     1       1.998  -0.817   0.822  0.00  0.00    +0.217 C 
ATOM     19  O   UNL     1       2.886  -1.093   1.599  0.00  0.00    -0.276 OA
ATOM     20  N   UNL     1       0.703  -0.589   1.174  0.00  0.00    -0.275 N 
ATOM     21  C   UNL     1      -0.166  -0.826   2.332  0.00  0.00    +0.173 C 
ATOM     22  C   UNL     1      -1.681  -0.702   2.044  0.00  0.00    +0.103 C 
ATOM     23  S   UNL     1      -1.671  -0.749   0.195  0.00  0.00    -0.133 S 
ENDBRANCH   1  21
BRANCH   9  24
ATOM     24  O   UNL     1       1.310   5.149  10.066  0.00  0.00    -0.495 OA
ATOM     25  C   UNL     1       2.299   6.181  10.060  0.00  0.00    +0.277 C 
ENDBRANCH   9  24
TORSDOF 2
