REMARK  Name = ZINC08654182
REMARK  6 active torsions:
REMARK  status: ('A' for Active; 'I' for Inactive)
REMARK    1  A    between atoms: C_1  and  C_2
REMARK    2  A    between atoms: C_2  and  N_3
REMARK    3  A    between atoms: C_12  and  C_13
REMARK    4  A    between atoms: C_13  and  C_15
REMARK    5  A    between atoms: C_16  and  C_17
REMARK    6  A    between atoms: C_20  and  N_23
REMARK                            x       y       z     vdW  Elec       q    Type
REMARK                         _______ _______ _______ _____ _____    ______ ____
ROOT
ATOM      1  C   UNL     1       3.953   5.967  -0.003  0.00  0.00    +0.181 C 
ATOM      2  O   UNL     1       2.769   6.270   0.010  0.00  0.00    -0.288 OA
ENDROOT
BRANCH   1  12
ATOM      3  N   UNL     1       3.524   2.270  -0.019  0.00  0.00    -0.294 N 
ATOM      4  C   UNL     1       2.419   1.439  -0.013  0.00  0.00    +0.048 A 
ATOM      5  C   UNL     1       2.406   0.033  -0.021  0.00  0.00    +0.024 A 
ATOM      6  C   UNL     1       1.221  -0.662  -0.013  0.00  0.00    +0.002 A 
ATOM      7  C   UNL     1       0.002  -0.004   0.002  0.00  0.00    +0.001 A 
ATOM      8  C   UNL     1      -0.017   1.379   0.010  0.00  0.00    +0.017 A 
ATOM      9  C   UNL     1       1.169   2.076   0.002  0.00  0.00    +0.035 A 
ATOM     10  S   UNL     1       1.585   3.803   0.008  0.00  0.00    -0.072 S 
ATOM     11  C   UNL     1       3.362   3.629  -0.010  0.00  0.00    +0.076 C 
ATOM     12  C   UNL     1       4.330   4.618  -0.014  0.00  0.00    +0.081 C 
BRANCH   3  14
ATOM     13  C   UNL     1       5.327   1.502  -1.482  0.00  0.00    +0.025 C 
ATOM     14  C   UNL     1       4.871   1.695  -0.034  0.00  0.00    +0.108 C 
ENDBRANCH   3  14
ENDBRANCH   1  12
BRANCH   1  15
ATOM     15  C   UNL     1       4.980   7.017  -0.007  0.00  0.00    +0.051 C 
ATOM     16  C   UNL     1       4.618   8.313   0.003  0.00  0.00    +0.011 C 
BRANCH  16  17
ATOM     17  C   UNL     1       5.648   9.365  -0.001  0.00  0.00    -0.025 A 
ATOM     18  C   UNL     1       7.003   9.022  -0.010  0.00  0.00    +0.010 A 
ATOM     19  C   UNL     1       7.962  10.013  -0.018  0.00  0.00    +0.033 A 
ATOM     20  C   UNL     1       7.585  11.345  -0.008  0.00  0.00    +0.126 A 
ATOM     21  C   UNL     1       6.246  11.693   0.006  0.00  0.00    +0.033 A 
ATOM     22  C   UNL     1       5.276  10.713   0.010  0.00  0.00    +0.010 A 
BRANCH  20  23
ATOM     23  N   UNL     1       8.621  12.403  -0.012  0.00  0.00    +0.056 N 
ATOM     24  O   UNL     1       8.293  13.576  -0.003  0.00  0.00    -0.126 OA
ATOM     25  O   UNL     1       9.800  12.100  -0.024  0.00  0.00    -0.126 OA
ENDBRANCH  20  23
ENDBRANCH  16  17
ENDBRANCH   1  15
TORSDOF 5
