REMARK  Name = ZINC63996592
REMARK  7 active torsions:
REMARK  status: ('A' for Active; 'I' for Inactive)
REMARK    1  A    between atoms: C_7  and  C_10
REMARK    2  A    between atoms: C_10  and  C_11
REMARK    3  A    between atoms: N_15  and  C_19
REMARK    4  A    between atoms: C_19  and  C_20
REMARK    5  A    between atoms: N_22  and  C_23
REMARK    6  A    between atoms: N_22  and  C_30
REMARK    7  A    between atoms: C_23  and  C_24
REMARK                            x       y       z     vdW  Elec       q    Type
REMARK                         _______ _______ _______ _____ _____    ______ ____
ROOT
ATOM      1  C   UNL     1       0.462  -3.706  -1.498  0.00  0.00    +0.165 C 
ATOM      2  C   UNL     1      -0.467  -4.903  -1.548  0.00  0.00    +0.244 C 
ATOM      3  O   UNL     1      -0.270  -6.002  -1.075  0.00  0.00    -0.273 OA
ATOM      4  N   UNL     1      -1.556  -4.492  -2.227  0.00  0.00    -0.216 N 
ATOM      5  C   UNL     1      -1.446  -3.214  -2.608  0.00  0.00    +0.310 C 
ATOM      6  O   UNL     1      -2.301  -2.620  -3.234  0.00  0.00    -0.252 OA
ATOM      7  N   UNL     1      -0.279  -2.659  -2.223  0.00  0.00    -0.287 N 
ATOM      8  H   UNL     1       0.016  -1.750  -2.389  0.00  0.00    +0.151 HD
ENDROOT
BRANCH   1   9
ATOM      9  C   UNL     1       0.715  -3.281  -0.050  0.00  0.00    +0.065 C 
BRANCH   9  16
ATOM     10  C   UNL     1       0.158   1.271   0.096  0.00  0.00    +0.001 A 
ATOM     11  C   UNL     1       1.364   1.985   0.103  0.00  0.00    +0.002 A 
ATOM     12  C   UNL     1       2.570   1.379   0.070  0.00  0.00    +0.026 A 
ATOM     13  C   UNL     1       2.661  -0.039   0.026  0.00  0.00    +0.043 A 
ATOM     14  N   UNL     1       3.693  -0.847  -0.011  0.00  0.00    -0.380 N 
ATOM     15  C   UNL     1       3.203  -2.230  -0.048  0.00  0.00    +0.144 C 
ATOM     16  C   UNL     1       1.694  -2.136  -0.026  0.00  0.00    -0.039 C 
ATOM     17  C   UNL     1       1.401  -0.816   0.018  0.00  0.00    -0.001 A 
ATOM     18  C   UNL     1       0.132  -0.080   0.055  0.00  0.00    +0.010 A 
ATOM     19  H   UNL     1       4.624  -0.576  -0.015  0.00  0.00    +0.160 HD
ENDBRANCH   9  16
ENDBRANCH   1   9
BRANCH   4  20
ATOM     20  C   UNL     1      -2.716  -5.339  -2.512  0.00  0.00    +0.213 C 
BRANCH  20  21
ATOM     21  C   UNL     1      -3.717  -5.215  -1.392  0.00  0.00    +0.234 C 
ATOM     22  O   UNL     1      -3.506  -4.452  -0.473  0.00  0.00    -0.274 OA
ATOM     23  N   UNL     1      -4.845  -5.951  -1.411  0.00  0.00    -0.293 N 
BRANCH  23  24
ATOM     24  C   UNL     1      -5.869  -5.750  -0.382  0.00  0.00    +0.099 C 
ATOM     25  C   UNL     1      -6.343  -4.288  -0.400  0.00  0.00    +0.046 C 
ATOM     26  C   UNL     1      -7.173  -3.987   0.871  0.00  0.00    +0.168 C 
ATOM     27  S   UNL     1      -6.475  -5.165   2.098  0.00  0.00    -0.029 S 
ATOM     28  O   UNL     1      -5.763  -4.435   3.087  0.00  0.00    -0.174 OA
ATOM     29  O   UNL     1      -7.492  -6.074   2.497  0.00  0.00    -0.174 OA
ATOM     30  C   UNL     1      -5.268  -6.048   1.021  0.00  0.00    +0.188 C 
ENDBRANCH  23  24
BRANCH  23  31
ATOM     31  C   UNL     1      -5.048  -6.953  -2.461  0.00  0.00    +0.139 C 
BRANCH  31  32
ATOM     32  C   UNL     1      -4.483  -8.297  -1.999  0.00  0.00    +0.136 C 
ATOM     33  C   UNL     1      -4.583  -9.329  -3.144  0.00  0.00    +0.035 C 
ATOM     34  C   UNL     1      -4.983 -10.624  -2.386  0.00  0.00    +0.031 C 
ATOM     35  C   UNL     1      -5.871 -10.042  -1.257  0.00  0.00    +0.160 C 
ATOM     36  O   UNL     1      -5.251  -8.795  -0.897  0.00  0.00    -0.375 OA
ENDBRANCH  31  32
ENDBRANCH  23  31
ENDBRANCH  20  21
ENDBRANCH   4  20
TORSDOF 7
