REMARK  Name = ZINC03350213
REMARK  8 active torsions:
REMARK  status: ('A' for Active; 'I' for Inactive)
REMARK    1  A    between atoms: C_1  and  O_2
REMARK    2  A    between atoms: O_2  and  C_3
REMARK    3  A    between atoms: C_5  and  C_14
REMARK    4  A    between atoms: C_8  and  O_9
REMARK    5  A    between atoms: O_9  and  C_10
REMARK    6  A    between atoms: C_10  and  C_11
REMARK    7  A    between atoms: N_26  and  C_27
REMARK    8  A    between atoms: C_27  and  C_28
REMARK                            x       y       z     vdW  Elec       q    Type
REMARK                         _______ _______ _______ _____ _____    ______ ____
ROOT
ATOM      1  C   UNL     1      -0.018   1.503   0.010  0.00  0.00    +0.194 C 
ATOM      2  N   UNL     1      -0.731   1.990  -1.168  0.00  0.00    -0.322 N 
ATOM      3  C   UNL     1      -2.105   1.850  -1.344  0.00  0.00    +0.055 A 
ATOM      4  C   UNL     1      -2.628   1.911  -2.635  0.00  0.00    +0.025 A 
ATOM      5  C   UNL     1      -3.986   1.794  -2.840  0.00  0.00    +0.002 A 
ATOM      6  C   UNL     1      -4.841   1.615  -1.767  0.00  0.00    +0.002 A 
ATOM      7  C   UNL     1      -4.329   1.546  -0.484  0.00  0.00    +0.030 A 
ATOM      8  C   UNL     1      -2.970   1.655  -0.276  0.00  0.00    +0.126 A 
ATOM      9  S   UNL     1      -2.318   1.527   1.362  0.00  0.00    +0.065 S 
ATOM     10  O   UNL     1      -2.963   2.522   2.145  0.00  0.00    -0.153 OA
ATOM     11  O   UNL     1      -2.330   0.149   1.707  0.00  0.00    -0.153 OA
ATOM     12  N   UNL     1      -0.716   1.982   1.221  0.00  0.00    -0.148 NA
ATOM     13  H   UNL     1      -0.221   2.433  -1.864  0.00  0.00    +0.148 HD
ENDROOT
BRANCH   1  16
ATOM     14  C   UNL     1       0.019  -2.073  -1.210  0.00  0.00    +0.163 A 
ATOM     15  C   UNL     1       0.000  -0.687  -1.200  0.00  0.00    +0.056 A 
ATOM     16  C   UNL     1       0.002  -0.004   0.002  0.00  0.00    -0.006 A 
ATOM     17  C   UNL     1       0.029  -0.700   1.196  0.00  0.00    +0.026 A 
ATOM     18  C   UNL     1       0.042  -2.083   1.194  0.00  0.00    +0.063 A 
ATOM     19  C   UNL     1       0.040  -2.774  -0.008  0.00  0.00    +0.176 A 
ATOM     20 BR   UNL     1       0.070  -3.031   2.830  0.00  0.00    -0.046 Br
BRANCH  14  22
ATOM     21  C   UNL     1      -0.004  -1.961  -3.585  0.00  0.00    +0.277 C 
ATOM     22  O   UNL     1       0.017  -2.746  -2.391  0.00  0.00    -0.491 OA
ENDBRANCH  14  22
BRANCH  19  23
ATOM     23  O   UNL     1       0.058  -4.134  -0.013  0.00  0.00    -0.483 OA
BRANCH  23  24
ATOM     24  C   UNL     1       1.339  -4.766  -0.027  0.00  0.00    +0.256 C 
BRANCH  24  25
ATOM     25  C   UNL     1       1.162  -6.262  -0.030  0.00  0.00    +0.006 C 
ATOM     26  C   UNL     1       1.873  -7.005  -0.842  0.00  0.00    +0.007 C 
ENDBRANCH  24  25
ENDBRANCH  23  24
ENDBRANCH  19  23
ENDBRANCH   1  16
BRANCH  12  27
ATOM     27  C   UNL     1      -0.045   2.806   2.229  0.00  0.00    +0.147 C 
BRANCH  27  28
ATOM     28  C   UNL     1      -0.108   4.254   1.817  0.00  0.00    -0.032 A 
ATOM     29  C   UNL     1       0.902   4.797   1.045  0.00  0.00    +0.005 A 
ATOM     30  C   UNL     1       0.843   6.125   0.663  0.00  0.00    +0.000 A 
ATOM     31  C   UNL     1      -0.222   6.911   1.062  0.00  0.00    +0.000 A 
ATOM     32  C   UNL     1      -1.229   6.370   1.838  0.00  0.00    +0.000 A 
ATOM     33  C   UNL     1      -1.172   5.042   2.216  0.00  0.00    +0.005 A 
ENDBRANCH  27  28
ENDBRANCH  12  27
TORSDOF 7
