REMARK  Name = ZINC08942272
REMARK  6 active torsions:
REMARK  status: ('A' for Active; 'I' for Inactive)
REMARK    1  A    between atoms: C_5  and  C_7
REMARK    2  A    between atoms: C_10  and  C_12
REMARK    3  A    between atoms: C_12  and  C_13
REMARK    4  A    between atoms: C_13  and  C_14
REMARK    5  A    between atoms: N_16  and  C_17
REMARK    6  A    between atoms: C_21  and  C_23
REMARK                            x       y       z     vdW  Elec       q    Type
REMARK                         _______ _______ _______ _____ _____    ______ ____
ROOT
ATOM      1  C   UNL     1      -1.206   1.589   0.017  0.00  0.00    +0.218 C 
ATOM      2  O   UNL     1      -1.260   2.798  -0.067  0.00  0.00    -0.275 OA
ATOM      3  N   UNL     1      -0.011   0.966   0.007  0.00  0.00    -0.285 N 
ATOM      4  H   UNL     1       0.030  -0.003   0.007  0.00  0.00    +0.155 HD
ENDROOT
BRANCH   3   5
ATOM      5  C   UNL     1       1.170   1.717  -0.008  0.00  0.00    +0.034 A 
ATOM      6  C   UNL     1       1.222   2.915  -0.710  0.00  0.00    +0.023 A 
ATOM      7  C   UNL     1       2.385   3.663  -0.724  0.00  0.00    +0.003 A 
ATOM      8  C   UNL     1       3.505   3.219  -0.050  0.00  0.00    +0.013 A 
ATOM      9  C   UNL     1       3.464   2.014   0.653  0.00  0.00    +0.038 A 
ATOM     10  C   UNL     1       2.289   1.262   0.672  0.00  0.00    +0.036 A 
BRANCH   9  11
ATOM     11  C   UNL     1       4.662   1.536   1.376  0.00  0.00    +0.242 C 
ATOM     12  O   UNL     1       4.624   0.486   1.987  0.00  0.00    -0.270 OA
ATOM     13  N   UNL     1       5.796   2.264   1.356  0.00  0.00    -0.325 N 
ATOM     14  H   UNL     1       5.826   3.102   0.868  0.00  0.00    +0.145 HD
ATOM     15  H   UNL     1       6.582   1.951   1.830  0.00  0.00    +0.145 HD
ENDBRANCH   9  11
ENDBRANCH   3   5
BRANCH   1  16
ATOM     16  C   UNL     1      -2.475   0.784   0.133  0.00  0.00    +0.104 C 
BRANCH  16  17
ATOM     17  C   UNL     1      -3.680   1.727   0.120  0.00  0.00    +0.083 C 
BRANCH  17  21
ATOM     18  C   UNL     1      -6.729  -0.237  -0.317  0.00  0.00    +0.138 A 
ATOM     19  C   UNL     1      -6.705  -0.164   1.040  0.00  0.00    +0.050 A 
ATOM     20  C   UNL     1      -5.557   0.577   1.387  0.00  0.00    +0.045 A 
ATOM     21  C   UNL     1      -4.949   0.923   0.236  0.00  0.00    +0.106 A 
ATOM     22  O   UNL     1      -5.657   0.426  -0.792  0.00  0.00    -0.460 OA
BRANCH  18  27
ATOM     23  C   UNL     1      -9.318  -0.911  -2.953  0.00  0.00    +0.001 A 
ATOM     24  C   UNL     1      -9.672  -2.215  -2.657  0.00  0.00    +0.003 A 
ATOM     25  C   UNL     1      -9.073  -2.879  -1.602  0.00  0.00    +0.039 A 
ATOM     26  C   UNL     1      -8.112  -2.244  -0.839  0.00  0.00    +0.134 A 
ATOM     27  C   UNL     1      -7.753  -0.925  -1.131  0.00  0.00    +0.052 A 
ATOM     28  C   UNL     1      -8.363  -0.263  -2.197  0.00  0.00    +0.014 A 
ATOM     29  F   UNL     1      -7.523  -2.895   0.188  0.00  0.00    -0.205 F 
ENDBRANCH  18  27
ENDBRANCH  17  21
ENDBRANCH  16  17
ENDBRANCH   1  16
TORSDOF 6
