REMARK  Name = ZINC14988719
REMARK  8 active torsions:
REMARK  status: ('A' for Active; 'I' for Inactive)
REMARK    1  A    between atoms: C_1  and  O_2
REMARK    2  A    between atoms: O_2  and  C_3
REMARK    3  A    between atoms: C_3  and  C_4
REMARK    4  A    between atoms: C_7  and  C_9
REMARK    5  A    between atoms: N_11  and  C_12
REMARK    6  A    between atoms: C_12  and  C_13
REMARK    7  A    between atoms: C_22  and  C_23
REMARK    8  A    between atoms: C_22  and  N_65
REMARK                            x       y       z     vdW  Elec       q    Type
REMARK                         _______ _______ _______ _____ _____    ______ ____
ROOT
ATOM      1  C   UNL     1      -5.053  -1.563  -4.373  0.00  0.00    +0.151 A 
ATOM      2  N   UNL     1      -5.692  -0.435  -4.541  0.00  0.00    -0.133 NA
ATOM      3  N   UNL     1      -5.240   0.448  -3.719  0.00  0.00    -0.134 NA
ATOM      4  C   UNL     1      -4.301  -0.080  -2.989  0.00  0.00    +0.132 A 
ATOM      5  N   UNL     1      -4.146  -1.364  -3.394  0.00  0.00    -0.315 N 
ATOM      6  C   UNL     1      -3.173  -2.321  -2.867  0.00  0.00    +0.106 C 
ATOM      7  C   UNL     1      -2.849  -1.961  -1.414  0.00  0.00    -0.056 C 
ATOM      8  C   UNL     1      -2.035   0.241  -2.055  0.00  0.00    -0.071 C 
ATOM      9  C   UNL     1      -3.520   0.574  -1.878  0.00  0.00    +0.058 C 
ATOM     10  N   UNL     1      -1.695  -1.033  -1.385  0.00  0.00    +0.384 N 
ATOM     11  H   UNL     1      -0.909  -1.469  -1.882  0.00  0.00    -0.081 HD
ENDROOT
BRANCH   1  12
ATOM     12  C   UNL     1      -5.286  -2.845  -5.131  0.00  0.00    +0.181 C 
BRANCH  12  15
ATOM     13  C   UNL     1      -6.664  -4.844  -4.931  0.00  0.00    +0.280 C 
ATOM     14  O   UNL     1      -6.163  -5.257  -5.960  0.00  0.00    -0.267 OA
ATOM     15  N   UNL     1      -6.293  -3.648  -4.433  0.00  0.00    -0.302 N 
ATOM     16  H   UNL     1      -6.693  -3.319  -3.613  0.00  0.00    +0.150 HD
BRANCH  13  20
ATOM     17  C   UNL     1      -9.155  -6.285  -2.747  0.00  0.00    +0.131 A 
ATOM     18  C   UNL     1      -9.084  -7.269  -3.670  0.00  0.00    +0.048 A 
ATOM     19  C   UNL     1      -8.137  -6.871  -4.626  0.00  0.00    +0.055 A 
ATOM     20  C   UNL     1      -7.673  -5.648  -4.233  0.00  0.00    +0.190 A 
ATOM     21  O   UNL     1      -8.300  -5.313  -3.087  0.00  0.00    -0.453 OA
BRANCH  17  22
ATOM     22  C   UNL     1     -10.047  -6.285  -1.532  0.00  0.00    +0.233 C 
BRANCH  22  24
ATOM     23  C   UNL     1     -10.119  -6.933   0.774  0.00  0.00    +0.194 C 
ATOM     24  O   UNL     1      -9.357  -6.884  -0.434  0.00  0.00    -0.375 OA
ENDBRANCH  22  24
ENDBRANCH  17  22
ENDBRANCH  13  20
ENDBRANCH  12  15
ENDBRANCH   1  12
BRANCH  10  25
ATOM     25  C   UNL     1      -1.293  -0.774   0.010  0.00  0.00    -0.043 C 
BRANCH  25  26
ATOM     26  C   UNL     1       0.002  -0.004   0.002  0.00  0.00    -0.064 A 
ATOM     27  C   UNL     1       1.208  -0.681  -0.013  0.00  0.00    +0.002 A 
ATOM     28  C   UNL     1       2.398   0.017  -0.021  0.00  0.00    +0.009 A 
ATOM     29  C   UNL     1       2.386   1.413  -0.013  0.00  0.00    -0.014 A 
ATOM     30  C   UNL     1       1.167   2.086   0.002  0.00  0.00    -0.035 A 
ATOM     31  C   UNL     1      -0.017   1.379   0.010  0.00  0.00    +0.006 A 
ATOM     32  C   UNL     1       1.464   3.565   0.008  0.00  0.00    +0.071 C 
ATOM     33  C   UNL     1       2.969   3.689  -0.006  0.00  0.00    -0.035 A 
ATOM     34  C   UNL     1       3.495   2.400  -0.018  0.00  0.00    -0.014 A 
ATOM     35  C   UNL     1       4.880   2.227  -0.032  0.00  0.00    +0.009 A 
ATOM     36  C   UNL     1       5.712   3.327  -0.033  0.00  0.00    +0.001 A 
ATOM     37  C   UNL     1       5.179   4.603  -0.022  0.00  0.00    +0.000 A 
ATOM     38  C   UNL     1       3.808   4.783  -0.008  0.00  0.00    +0.004 A 
ENDBRANCH  25  26
ENDBRANCH  10  25
TORSDOF 7
