REMARK  Name = ZINC66135847
REMARK  9 active torsions:
REMARK  status: ('A' for Active; 'I' for Inactive)
REMARK    1  A    between atoms: C_1  and  C_2
REMARK    2  A    between atoms: C_2  and  C_3
REMARK    3  A    between atoms: C_3  and  C_5
REMARK    4  A    between atoms: C_3  and  C_6
REMARK    5  A    between atoms: C_9  and  O_13
REMARK    6  A    between atoms: O_13  and  C_14
REMARK    7  A    between atoms: C_14  and  C_15
REMARK    8  A    between atoms: C_16  and  C_23
REMARK    9  A    between atoms: C_17  and  C_22
REMARK                            x       y       z     vdW  Elec       q    Type
REMARK                         _______ _______ _______ _____ _____    ______ ____
ROOT
ATOM      1  C   UNL     1       0.804  -8.333   0.580  0.00  0.00    +0.096 A 
ATOM      2  C   UNL     1       1.782  -9.069   1.261  0.00  0.00    +0.082 A 
ATOM      3  C   UNL     1       1.569 -10.441   1.448  0.00  0.00    +0.056 A 
ATOM      4  N   UNL     1       0.463 -10.987   0.979  0.00  0.00    -0.219 NA
ATOM      5  C   UNL     1      -0.439 -10.255   0.339  0.00  0.00    +0.213 A 
ATOM      6  N   UNL     1      -0.277  -8.952   0.146  0.00  0.00    -0.215 NA
ATOM      7  N   UNL     1      -1.582 -10.864  -0.135  0.00  0.00    -0.327 N 
ATOM      8  C   UNL     1       2.588 -11.281   2.174  0.00  0.00    +0.066 C 
ATOM      9  H   UNL     1      -1.717 -11.815   0.001  0.00  0.00    +0.145 HD
ATOM     10  H   UNL     1      -2.251 -10.342  -0.605  0.00  0.00    +0.145 HD
ENDROOT
BRANCH   2  11
ATOM     11  C   UNL     1       3.005  -8.417   1.768  0.00  0.00    +0.245 C 
ATOM     12  O   UNL     1       3.024  -7.948   2.890  0.00  0.00    -0.270 OA
ATOM     13  N   UNL     1       4.101  -8.341   0.988  0.00  0.00    -0.325 N 
ATOM     14  H   UNL     1       4.087  -8.715   0.093  0.00  0.00    +0.145 HD
ATOM     15  H   UNL     1       4.905  -7.912   1.321  0.00  0.00    +0.145 HD
ENDBRANCH   2  11
BRANCH   1  16
ATOM     16  C   UNL     1       0.982  -6.854   0.351  0.00  0.00    +0.285 C 
BRANCH  16  17
ATOM     17  O   UNL     1       0.423  -6.131   1.450  0.00  0.00    -0.485 OA
BRANCH  17  21
ATOM     18  C   UNL     1       0.657  -2.014   1.298  0.00  0.00    -0.043 A 
ATOM     19  C   UNL     1       1.179  -2.774   0.268  0.00  0.00    +0.007 A 
ATOM     20  C   UNL     1       1.102  -4.153   0.316  0.00  0.00    +0.047 A 
ATOM     21  C   UNL     1       0.500  -4.775   1.400  0.00  0.00    +0.135 A 
ATOM     22  C   UNL     1      -0.023  -4.011   2.433  0.00  0.00    +0.060 A 
ATOM     23  C   UNL     1       0.061  -2.632   2.382  0.00  0.00    +0.022 A 
ATOM     24 BR   UNL     1      -0.846  -4.854   3.912  0.00  0.00    -0.047 Br
BRANCH  18  25
ATOM     25  C   UNL     1       0.742  -0.511   1.242  0.00  0.00    +0.016 C 
ATOM     26  C   UNL     1       2.210  -0.086   1.169  0.00  0.00    +0.012 C 
BRANCH  25  28
ATOM     27  C   UNL     1      -0.019   1.526   0.010  0.00  0.00    +0.004 C 
ATOM     28  C   UNL     1       0.002  -0.004   0.002  0.00  0.00    +0.004 C 
ENDBRANCH  25  28
ENDBRANCH  18  25
ENDBRANCH  17  21
ENDBRANCH  16  17
ENDBRANCH   1  16
TORSDOF 6
