REMARK  Name = ZINC20618373
REMARK  7 active torsions:
REMARK  status: ('A' for Active; 'I' for Inactive)
REMARK    1  A    between atoms: C_1  and  C_2
REMARK    2  A    between atoms: C_2  and  C_3
REMARK    3  A    between atoms: C_2  and  C_4
REMARK    4  A    between atoms: C_2  and  C_17
REMARK    5  A    between atoms: C_17  and  C_18
REMARK    6  A    between atoms: N_23  and  C_26
REMARK    7  A    between atoms: C_29  and  N_32
REMARK                            x       y       z     vdW  Elec       q    Type
REMARK                         _______ _______ _______ _____ _____    ______ ____
ROOT
ATOM      1  C   UNL     1      -0.242   1.404  -0.464  0.00  0.00    +0.016 C 
ATOM      2  C   UNL     1      -0.116  -0.069  -0.070  0.00  0.00    -0.005 C 
ATOM      3  C   UNL     1       0.657  -0.182   1.245  0.00  0.00    +0.016 C 
ENDROOT
BRANCH   2   4
ATOM      4  C   UNL     1      -1.491  -0.662   0.103  0.00  0.00    +0.020 C 
ATOM      5  C   UNL     1      -2.251  -0.291   1.130  0.00  0.00    +0.104 C 
ATOM      6  N   UNL     1      -1.812   0.655   2.051  0.00  0.00    -0.300 N 
ATOM      7  C   UNL     1      -2.008   0.506   3.424  0.00  0.00    +0.059 A 
ATOM      8  C   UNL     1      -1.284   1.313   4.300  0.00  0.00    +0.025 A 
ATOM      9  C   UNL     1      -1.469   1.199   5.662  0.00  0.00    +0.002 A 
ATOM     10  C   UNL     1      -2.376   0.285   6.168  0.00  0.00    +0.002 A 
ATOM     11  C   UNL     1      -3.093  -0.524   5.305  0.00  0.00    +0.031 A 
ATOM     12  C   UNL     1      -2.904  -0.420   3.943  0.00  0.00    +0.130 A 
ATOM     13  S   UNL     1      -3.792  -1.484   2.847  0.00  0.00    +0.075 S 
ATOM     14  O   UNL     1      -3.143  -2.748   2.877  0.00  0.00    -0.150 OA
ATOM     15  O   UNL     1      -5.173  -1.322   3.138  0.00  0.00    -0.150 OA
ATOM     16  N   UNL     1      -3.535  -0.835   1.326  0.00  0.00    -0.203 N 
ATOM     17  H   UNL     1      -4.214  -0.833   0.633  0.00  0.00    +0.175 HD
ATOM     18  H   UNL     1      -1.353   1.446   1.727  0.00  0.00    +0.153 HD
ENDBRANCH   2   4
BRANCH   2  19
ATOM     19  C   UNL     1       0.632  -0.828  -1.169  0.00  0.00    +0.106 C 
BRANCH  19  20
ATOM     20  C   UNL     1       2.006  -0.235  -1.342  0.00  0.00    +0.216 C 
ATOM     21  O   UNL     1       2.354   0.702  -0.655  0.00  0.00    -0.276 OA
ATOM     22  N   UNL     1       2.850  -0.746  -2.260  0.00  0.00    -0.298 N 
ATOM     23  C   UNL     1       2.441  -1.878  -3.104  0.00  0.00    +0.126 C 
ATOM     24  C   UNL     1       2.617  -1.481  -4.575  0.00  0.00    +0.124 C 
ATOM     25  N   UNL     1       3.963  -0.917  -4.751  0.00  0.00    -0.327 N 
ATOM     26  C   UNL     1       4.372   0.215  -3.907  0.00  0.00    +0.124 C 
ATOM     27  C   UNL     1       4.193  -0.178  -2.440  0.00  0.00    +0.126 C 
BRANCH  25  28
ATOM     28  C   UNL     1       4.837  -1.446  -5.703  0.00  0.00    +0.030 A 
ATOM     29  C   UNL     1       4.486  -2.589  -6.411  0.00  0.00    +0.025 A 
ATOM     30  C   UNL     1       5.352  -3.110  -7.352  0.00  0.00    +0.034 A 
ATOM     31  C   UNL     1       6.568  -2.495  -7.589  0.00  0.00    +0.126 A 
ATOM     32  C   UNL     1       6.921  -1.358  -6.886  0.00  0.00    +0.034 A 
ATOM     33  C   UNL     1       6.057  -0.829  -5.948  0.00  0.00    +0.025 A 
BRANCH  31  34
ATOM     34  N   UNL     1       7.495  -3.057  -8.598  0.00  0.00    +0.056 N 
ATOM     35  O   UNL     1       7.188  -4.051  -9.213  0.00  0.00    -0.126 OA
ATOM     36  O   UNL     1       8.558  -2.521  -8.807  0.00  0.00    -0.126 OA
ENDBRANCH  31  34
ENDBRANCH  25  28
ENDBRANCH  19  20
ENDBRANCH   2  19
TORSDOF 5
