REMARK  Name = ZINC09292729
REMARK  2 active torsions:
REMARK  status: ('A' for Active; 'I' for Inactive)
REMARK    1  A    between atoms: C_10  and  C_23
REMARK    2  A    between atoms: C_13  and  C_16
REMARK                            x       y       z     vdW  Elec       q    Type
REMARK                         _______ _______ _______ _____ _____    ______ ____
ROOT
ATOM      1  C   UNL     1      -0.017   1.373   0.010  0.00  0.00    +0.002 A 
ATOM      2  C   UNL     1       1.169   2.091   0.002  0.00  0.00    +0.002 A 
ATOM      3  C   UNL     1       2.384   1.437  -0.013  0.00  0.00    +0.028 A 
ATOM      4  C   UNL     1       2.423   0.051  -0.021  0.00  0.00    +0.069 A 
ATOM      5  C   UNL     1       1.223  -0.682  -0.013  0.00  0.00    +0.065 A 
ATOM      6  C   UNL     1       0.002  -0.004   0.002  0.00  0.00    +0.028 A 
ATOM      7  N   UNL     1       1.556  -2.002  -0.024  0.00  0.00    -0.327 N 
ATOM      8  C   UNL     1       2.853  -2.124  -0.036  0.00  0.00    +0.175 A 
ATOM      9  N   UNL     1       3.438  -0.883  -0.036  0.00  0.00    -0.306 N 
ATOM     10  C   UNL     1       4.885  -0.658  -0.051  0.00  0.00    +0.122 C 
ATOM     11  C   UNL     1       5.579  -1.937  -0.537  0.00  0.00    +0.057 C 
ATOM     12  C   UNL     1       5.043  -3.143   0.242  0.00  0.00    +0.106 C 
ATOM     13  N   UNL     1       3.605  -3.291  -0.046  0.00  0.00    -0.309 N 
ATOM     14  H   UNL     1       3.206  -4.155  -0.232  0.00  0.00    +0.149 HD
ATOM     15  H   UNL     1       0.924  -2.739  -0.022  0.00  0.00    +0.169 HD
ENDROOT
BRANCH  12  16
ATOM     16  C   UNL     1       5.778  -4.388  -0.187  0.00  0.00    -0.027 A 
ATOM     17  C   UNL     1       5.427  -5.028  -1.360  0.00  0.00    +0.006 A 
ATOM     18  C   UNL     1       6.101  -6.169  -1.754  0.00  0.00    +0.015 A 
ATOM     19  C   UNL     1       7.126  -6.670  -0.973  0.00  0.00    +0.018 A 
ATOM     20  C   UNL     1       7.478  -6.029   0.202  0.00  0.00    +0.015 A 
ATOM     21  C   UNL     1       6.807  -4.885   0.592  0.00  0.00    +0.006 A 
ATOM     22 BR   UNL     1       8.048  -8.231  -1.510  0.00  0.00    -0.050 Br
ENDBRANCH  12  16
BRANCH  10  23
ATOM     23  C   UNL     1       5.210   0.481  -0.983  0.00  0.00    -0.024 A 
ATOM     24  C   UNL     1       4.867   0.399  -2.319  0.00  0.00    +0.007 A 
ATOM     25  C   UNL     1       5.164   1.444  -3.174  0.00  0.00    +0.020 A 
ATOM     26  C   UNL     1       5.805   2.571  -2.692  0.00  0.00    +0.041 A 
ATOM     27  C   UNL     1       6.148   2.652  -1.354  0.00  0.00    +0.020 A 
ATOM     28  C   UNL     1       5.845   1.609  -0.499  0.00  0.00    +0.007 A 
ATOM     29 CL   UNL     1       6.179   3.883  -3.765  0.00  0.00    -0.084 Cl
ENDBRANCH  10  23
TORSDOF 2
