REMARK  Name = ZINC09360493
REMARK  5 active torsions:
REMARK  status: ('A' for Active; 'I' for Inactive)
REMARK    1  A    between atoms: C_1  and  C_2
REMARK    2  A    between atoms: C_2  and  C_29
REMARK    3  A    between atoms: C_4  and  N_9
REMARK    4  A    between atoms: C_12  and  O_14
REMARK    5  A    between atoms: C_15  and  C_22
REMARK                            x       y       z     vdW  Elec       q    Type
REMARK                         _______ _______ _______ _____ _____    ______ ____
ROOT
ATOM      1  N   UNL     1      -2.774  -2.579   0.152  0.00  0.00    -0.243 N 
ATOM      2  C   UNL     1      -3.376  -3.421  -0.752  0.00  0.00    +0.132 A 
ATOM      3  C   UNL     1      -4.630  -3.651  -0.307  0.00  0.00    +0.072 A 
ATOM      4  C   UNL     1      -4.798  -2.932   0.900  0.00  0.00    +0.238 A 
ATOM      5  N   UNL     1      -3.687  -2.302   1.169  0.00  0.00    -0.131 NA
ATOM      6  C   UNL     1      -5.725  -4.486  -0.892  0.00  0.00    +0.115 C 
ATOM      7  S   UNL     1      -5.731  -4.494  -2.687  0.00  0.00    -0.138 S 
ATOM      8  C   UNL     1      -4.239  -5.366  -3.184  0.00  0.00    +0.166 C 
ATOM      9  C   UNL     1      -3.003  -4.612  -2.883  0.00  0.00    +0.228 C 
ATOM     10  O   UNL     1      -2.135  -4.699  -3.726  0.00  0.00    -0.275 OA
ATOM     11  N   UNL     1      -2.699  -3.872  -1.860  0.00  0.00    -0.270 N 
ATOM     12  H   UNL     1      -1.779  -3.566  -1.884  0.00  0.00    +0.156 HD
ENDROOT
BRANCH   1  16
ATOM     13  C   UNL     1      -0.019   1.526   0.010  0.00  0.00    +0.041 C 
ATOM     14  C   UNL     1       0.002  -0.004   0.002  0.00  0.00    +0.066 C 
ATOM     15  C   UNL     1      -1.434  -0.534   0.014  0.00  0.00    +0.061 C 
ATOM     16  C   UNL     1      -1.405  -2.065   0.067  0.00  0.00    +0.114 C 
ATOM     17  C   UNL     1      -0.611  -2.507   1.300  0.00  0.00    +0.055 C 
ATOM     18  C   UNL     1       0.793  -1.901   1.238  0.00  0.00    +0.162 C 
ATOM     19  O   UNL     1       0.693  -0.478   1.160  0.00  0.00    -0.374 OA
ATOM     20  C   UNL     1       0.718  -0.498  -1.257  0.00  0.00    +0.041 C 
ENDBRANCH   1  16
BRANCH   6  21
ATOM     21  C   UNL     1      -7.050  -3.954  -0.410  0.00  0.00    -0.030 A 
ATOM     22  C   UNL     1      -7.420  -2.654  -0.702  0.00  0.00    +0.008 A 
ATOM     23  C   UNL     1      -8.634  -2.164  -0.260  0.00  0.00    +0.038 A 
ATOM     24  C   UNL     1      -9.481  -2.977   0.475  0.00  0.00    +0.123 A 
ATOM     25  C   UNL     1      -9.110  -4.278   0.767  0.00  0.00    +0.038 A 
ATOM     26  C   UNL     1      -7.897  -4.767   0.320  0.00  0.00    +0.008 A 
ATOM     27  F   UNL     1     -10.669  -2.499   0.908  0.00  0.00    -0.205 F 
ENDBRANCH   6  21
BRANCH   4  28
ATOM     28  O   UNL     1      -5.927  -2.907   1.657  0.00  0.00    -0.491 OA
ATOM     29  H   UNL     1      -5.963  -3.599   2.332  0.00  0.00    +0.294 HD
ENDBRANCH   4  28
TORSDOF 3
