REMARK  Name = ZINC00560913
REMARK  6 active torsions:
REMARK  status: ('A' for Active; 'I' for Inactive)
REMARK    1  A    between atoms: C_1  and  O_2
REMARK    2  A    between atoms: O_2  and  C_3
REMARK    3  A    between atoms: C_6  and  C_11
REMARK    4  A    between atoms: C_7  and  O_9
REMARK    5  A    between atoms: O_9  and  C_10
REMARK    6  A    between atoms: C_16  and  C_22
REMARK                            x       y       z     vdW  Elec       q    Type
REMARK                         _______ _______ _______ _____ _____    ______ ____
ROOT
ATOM      1  C   UNL     1      -4.957  -2.586   0.035  0.00  0.00    +0.025 C 
ATOM      2  C   UNL     1      -6.113  -1.847   0.149  0.00  0.00    +0.047 C 
ATOM      3  C   UNL     1      -7.497  -2.355   0.284  0.00  0.00    +0.008 A 
ATOM      4  C   UNL     1      -8.043  -3.633   0.336  0.00  0.00    +0.011 A 
ATOM      5  C   UNL     1      -9.408  -3.789   0.469  0.00  0.00    +0.013 A 
ATOM      6  C   UNL     1     -10.230  -2.677   0.549  0.00  0.00    +0.057 A 
ATOM      7  C   UNL     1      -9.698  -1.405   0.499  0.00  0.00    +0.036 A 
ATOM      8  C   UNL     1      -8.325  -1.227   0.366  0.00  0.00    +0.042 A 
ATOM      9  N   UNL     1      -7.544  -0.080   0.290  0.00  0.00    -0.281 N 
ATOM     10  C   UNL     1      -6.240  -0.382   0.169  0.00  0.00    +0.249 C 
ATOM     11  O   UNL     1      -5.325   0.417   0.087  0.00  0.00    -0.270 OA
ATOM     12  H   UNL     1      -7.895   0.824   0.325  0.00  0.00    +0.155 HD
ENDROOT
BRANCH   1  16
ATOM     13  C   UNL     1      -1.191  -0.656   0.180  0.00  0.00    +0.124 A 
ATOM     14  C   UNL     1      -2.209  -0.271   1.049  0.00  0.00    +0.046 A 
ATOM     15  C   UNL     1      -3.425  -0.890   1.006  0.00  0.00    +0.015 A 
ATOM     16  C   UNL     1      -3.656  -1.920   0.083  0.00  0.00    +0.018 A 
ATOM     17  C   UNL     1      -2.628  -2.311  -0.796  0.00  0.00    +0.131 A 
ATOM     18  C   UNL     1      -1.403  -1.670  -0.744  0.00  0.00    +0.091 A 
BRANCH  13  20
ATOM     19  C   UNL     1       0.165   1.003   1.206  0.00  0.00    +0.277 C 
ATOM     20  O   UNL     1       0.013  -0.032   0.233  0.00  0.00    -0.495 OA
ENDBRANCH  13  20
BRANCH  17  21
ATOM     21  O   UNL     1      -2.840  -3.307  -1.693  0.00  0.00    -0.494 OA
ATOM     22  C   UNL     1      -1.750  -3.647  -2.552  0.00  0.00    +0.277 C 
ENDBRANCH  17  21
ENDBRANCH   1  16
BRANCH   6  23
ATOM     23  C   UNL     1     -11.719  -2.858   0.693  0.00  0.00    +0.417 C 
ATOM     24  F   UNL     1     -12.022  -4.224   0.721  0.00  0.00    -0.166 F 
ATOM     25  F   UNL     1     -12.149  -2.261   1.883  0.00  0.00    -0.166 F 
ATOM     26  F   UNL     1     -12.369  -2.258  -0.391  0.00  0.00    -0.166 F 
ENDBRANCH   6  23
TORSDOF 4
