REMARK  Name = ZINC29056459
REMARK  4 active torsions:
REMARK  status: ('A' for Active; 'I' for Inactive)
REMARK    1  A    between atoms: C_5  and  C_6
REMARK    2  A    between atoms: N_8  and  C_9
REMARK    3  A    between atoms: C_9  and  C_10
REMARK    4  A    between atoms: C_16  and  C_19
REMARK                            x       y       z     vdW  Elec       q    Type
REMARK                         _______ _______ _______ _____ _____    ______ ____
ROOT
ATOM      1  C   UNL     1       5.197   5.696  -0.018  0.00  0.00    +0.233 C 
ATOM      2  O   UNL     1       5.459   4.512  -0.026  0.00  0.00    -0.274 OA
ATOM      3  N   UNL     1       6.191   6.606  -0.023  0.00  0.00    -0.300 N 
ATOM      4  C   UNL     1       5.889   8.044  -0.013  0.00  0.00    +0.108 C 
ATOM      5  C   UNL     1       6.640   8.698   1.152  0.00  0.00    +0.020 C 
ATOM      6  C   UNL     1       8.131   8.369   1.040  0.00  0.00    +0.014 C 
ATOM      7  C   UNL     1       8.329   6.854   1.127  0.00  0.00    +0.074 C 
ATOM      8  C   UNL     1       7.596   6.180  -0.032  0.00  0.00    +0.119 C 
ENDROOT
BRANCH   7   9
ATOM      9  C   UNL     1       9.799   6.534   1.049  0.00  0.00    +0.138 A 
ATOM     10  N   UNL     1      10.605   6.822   0.061  0.00  0.00    -0.134 NA
ATOM     11  N   UNL     1      11.793   6.407   0.335  0.00  0.00    -0.134 NA
ATOM     12  C   UNL     1      11.797   5.841   1.508  0.00  0.00    +0.133 A 
ATOM     13  N   UNL     1      10.533   5.900   1.990  0.00  0.00    -0.314 N 
ATOM     14  C   UNL     1      10.060   5.354   3.262  0.00  0.00    +0.125 C 
ATOM     15  C   UNL     1      11.213   5.346   4.269  0.00  0.00    +0.022 C 
ATOM     16  C   UNL     1      11.978   4.027   4.168  0.00  0.00    +0.002 C 
ATOM     17  C   UNL     1      12.578   3.863   2.775  0.00  0.00    +0.008 C 
ATOM     18  C   UNL     1      12.977   5.236   2.223  0.00  0.00    +0.076 C 
ENDBRANCH   7   9
BRANCH   1  19
ATOM     19  C   UNL     1       3.760   6.149  -0.002  0.00  0.00    +0.200 C 
BRANCH  19  22
ATOM     20  C   UNL     1       1.541   5.143   0.015  0.00  0.00    +0.280 C 
ATOM     21  O   UNL     1       1.065   6.263   0.025  0.00  0.00    -0.267 OA
ATOM     22  N   UNL     1       2.878   4.979   0.001  0.00  0.00    -0.300 N 
ATOM     23  H   UNL     1       3.308   3.967  -0.008  0.00  0.00    +0.150 HD
BRANCH  20  28
ATOM     24  C   UNL     1      -0.707   3.996   0.030  0.00  0.00    +0.056 A 
ATOM     25  C   UNL     1      -1.134   2.660   0.021  0.00  0.00    +0.058 A 
ATOM     26  C   UNL     1      -0.024   1.887   0.012  0.00  0.00    +0.171 A 
ATOM     27  O   UNL     1       1.054   2.682   0.006  0.00  0.00    -0.444 OA
ATOM     28  C   UNL     1       0.659   3.972   0.017  0.00  0.00    +0.191 A 
ATOM     29 BR   UNL     1       0.002  -0.004   0.002  0.00  0.00    -0.008 Br
ENDBRANCH  20  28
ENDBRANCH  19  22
ENDBRANCH   1  19
TORSDOF 4
