REMARK  Name = ZINC23995445
REMARK  8 active torsions:
REMARK  status: ('A' for Active; 'I' for Inactive)
REMARK    1  A    between atoms: C_1  and  C_2
REMARK    2  A    between atoms: C_2  and  C_3
REMARK    3  A    between atoms: C_7  and  C_27
REMARK    4  A    between atoms: C_8  and  N_9
REMARK    5  A    between atoms: C_10  and  C_12
REMARK    6  A    between atoms: C_12  and  N_13
REMARK    7  A    between atoms: C_21  and  C_23
REMARK    8  A    between atoms: C_27  and  C_28
REMARK                            x       y       z     vdW  Elec       q    Type
REMARK                         _______ _______ _______ _____ _____    ______ ____
ROOT
ATOM      1  N   UNL     1       1.856   1.950   3.375  0.00  0.00    -0.284 N 
ATOM      2  C   UNL     1       2.784   2.323   4.277  0.00  0.00    +0.235 C 
ATOM      3  O   UNL     1       2.749   1.875   5.404  0.00  0.00    -0.274 OA
ATOM      4  H   UNL     1       1.948   2.270   2.326  0.00  0.00    +0.155 HD
ENDROOT
BRANCH   1  10
ATOM      5  C   UNL     1       0.793  -0.212   3.539  0.00  0.00    -0.026 A 
ATOM      6  C   UNL     1      -0.275  -0.994   3.937  0.00  0.00    +0.007 A 
ATOM      7  C   UNL     1      -1.364  -0.414   4.560  0.00  0.00    +0.020 A 
ATOM      8  C   UNL     1      -1.389   0.951   4.787  0.00  0.00    +0.046 A 
ATOM      9  C   UNL     1      -0.325   1.738   4.392  0.00  0.00    -0.008 A 
ATOM     10  C   UNL     1       0.773   1.157   3.771  0.00  0.00    +0.041 A 
ATOM     11 CL   UNL     1      -2.759   1.674   5.570  0.00  0.00    -0.083 Cl
BRANCH   5  13
ATOM     12  C   UNL     1       3.060  -1.148   3.900  0.00  0.00    +0.009 C 
ATOM     13  C   UNL     1       1.980  -0.845   2.860  0.00  0.00    +0.033 C 
ENDBRANCH   5  13
BRANCH   9  14
ATOM     14  C   UNL     1      -0.352   3.224   4.640  0.00  0.00    +0.035 C 
ATOM     15  C   UNL     1       0.381   3.537   5.946  0.00  0.00    +0.009 C 
ENDBRANCH   9  14
ENDBRANCH   1  10
BRANCH   2  16
ATOM     16  C   UNL     1       3.866   3.297   3.887  0.00  0.00    +0.214 C 
BRANCH  16  17
ATOM     17  N   UNL     1       4.744   3.538   5.035  0.00  0.00    -0.215 N 
ATOM     18  C   UNL     1       4.551   4.516   5.944  0.00  0.00    +0.247 C 
ATOM     19  O   UNL     1       3.653   5.331   5.967  0.00  0.00    -0.273 OA
ATOM     20  C   UNL     1       5.687   4.380   6.931  0.00  0.00    +0.115 C 
ATOM     21  C   UNL     1       5.154   4.076   8.326  0.00  0.00    +0.035 C 
ATOM     22  C   UNL     1       4.316   5.257   8.824  0.00  0.00    +0.003 C 
ATOM     23  C   UNL     1       5.182   6.518   8.855  0.00  0.00    +0.000 C 
ATOM     24  C   UNL     1       5.690   6.824   7.444  0.00  0.00    +0.006 C 
ATOM     25  C   UNL     1       6.533   5.649   6.941  0.00  0.00    +0.018 C 
ATOM     26  C   UNL     1       7.024   5.945   5.522  0.00  0.00    +0.010 C 
ATOM     27  N   UNL     1       6.468   3.246   6.421  0.00  0.00    -0.285 N 
ATOM     28  C   UNL     1       5.839   2.819   5.310  0.00  0.00    +0.310 C 
ATOM     29  O   UNL     1       6.222   1.886   4.632  0.00  0.00    -0.252 OA
ATOM     30  H   UNL     1       7.375   2.919   6.952  0.00  0.00    +0.151 HD
ENDBRANCH  16  17
ENDBRANCH   2  16
TORSDOF 5
