REMARK  Name = ZINC35744558
REMARK  13 active torsions:
REMARK  status: ('A' for Active; 'I' for Inactive)
REMARK    1  A    between atoms: C_1  and  C_2
REMARK    2  A    between atoms: C_5  and  C_9
REMARK    3  A    between atoms: C_11  and  C_14
REMARK    4  A    between atoms: C_14  and  C_16
REMARK    5  A    between atoms: C_14  and  N_19
REMARK    6  A    between atoms: C_16  and  C_17
REMARK    7  A    between atoms: C_16  and  C_18
REMARK    8  A    between atoms: N_19  and  C_20
REMARK    9  A    between atoms: C_20  and  C_21
REMARK   10  A    between atoms: C_21  and  C_23
REMARK   11  A    between atoms: C_21  and  O_31
REMARK   12  A    between atoms: C_23  and  O_24
REMARK   13  A    between atoms: O_24  and  C_25
REMARK                            x       y       z     vdW  Elec       q    Type
REMARK                         _______ _______ _______ _____ _____    ______ ____
ROOT
ATOM      1  C   UNL     1       0.154  -7.376   1.693  0.00  0.00    +0.022 C 
ENDROOT
BRANCH   1   4
ATOM      2  C   UNL     1       0.439  -4.328  -0.256  0.00  0.00    +0.202 A 
ATOM      3  N   UNL     1       0.326  -5.010   0.898  0.00  0.00    -0.193 NA
ATOM      4  C   UNL     1       0.279  -6.289   0.657  0.00  0.00    +0.214 A 
ATOM      5  O   UNL     1       0.359  -6.475  -0.667  0.00  0.00    -0.339 OA
ATOM      6  N   UNL     1       0.458  -5.183  -1.248  0.00  0.00    -0.056 NA
BRANCH   2  11
ATOM      7  C   UNL     1       0.756   1.402  -0.756  0.00  0.00    +0.045 C 
ATOM      8  C   UNL     1       0.673  -0.097  -0.625  0.00  0.00    -0.032 A 
ATOM      9  C   UNL     1       0.705  -0.891  -1.757  0.00  0.00    +0.005 A 
ATOM     10  C   UNL     1       0.630  -2.264  -1.643  0.00  0.00    +0.012 A 
ATOM     11  C   UNL     1       0.521  -2.851  -0.384  0.00  0.00    +0.024 A 
ATOM     12  C   UNL     1       0.489  -2.048   0.754  0.00  0.00    +0.032 A 
ATOM     13  C   UNL     1       0.571  -0.674   0.629  0.00  0.00    +0.045 A 
ATOM     14 CL   UNL     1       0.538   0.328   2.045  0.00  0.00    -0.083 Cl
ENDBRANCH   2  11
ENDBRANCH   1   4
BRANCH   1  15
ATOM     15  C   UNL     1       1.506  -8.071   1.868  0.00  0.00    -0.022 C 
ATOM     16  C   UNL     1       2.562  -7.039   2.267  0.00  0.00    +0.006 C 
ATOM     17  C   UNL     1       1.394  -9.136   2.960  0.00  0.00    +0.006 C 
ENDBRANCH   1  15
BRANCH   1  18
ATOM     18  N   UNL     1      -0.848  -8.357   1.256  0.00  0.00    +0.389 N 
ATOM     19  H   UNL     1      -0.610  -8.693   0.335  0.00  0.00    -0.085 HD
ATOM     20  H   UNL     1      -0.865  -9.132   1.902  0.00  0.00    -0.085 HD
BRANCH  18  21
ATOM     21  C   UNL     1      -2.172  -7.721   1.219  0.00  0.00    -0.046 C 
BRANCH  21  22
ATOM     22  C   UNL     1      -3.200  -8.716   0.676  0.00  0.00    +0.135 C 
BRANCH  22  23
ATOM     23  O   UNL     1      -3.332  -9.810   1.586  0.00  0.00    -0.390 OA
ATOM     24  H   UNL     1      -3.623  -9.552   2.471  0.00  0.00    +0.210 HD
ENDBRANCH  22  23
BRANCH  22  25
ATOM     25  C   UNL     1      -4.552  -8.017   0.520  0.00  0.00    +0.258 C 
BRANCH  25  26
ATOM     26  O   UNL     1      -5.482  -8.911  -0.095  0.00  0.00    -0.489 OA
BRANCH  26  27
ATOM     27  C   UNL     1      -6.740  -8.442  -0.307  0.00  0.00    +0.121 A 
ATOM     28  C   UNL     1      -7.071  -7.147   0.063  0.00  0.00    +0.045 A 
ATOM     29  C   UNL     1      -8.350  -6.673  -0.154  0.00  0.00    +0.004 A 
ATOM     30  C   UNL     1      -9.301  -7.489  -0.740  0.00  0.00    +0.000 A 
ATOM     31  C   UNL     1      -8.974  -8.780  -1.110  0.00  0.00    +0.004 A 
ATOM     32  C   UNL     1      -7.694  -9.257  -0.900  0.00  0.00    +0.045 A 
ENDBRANCH  26  27
ENDBRANCH  25  26
ENDBRANCH  22  25
ENDBRANCH  21  22
ENDBRANCH  18  21
ENDBRANCH   1  18
TORSDOF 10
