REMARK  Name = ZINC62850111
REMARK  8 active torsions:
REMARK  status: ('A' for Active; 'I' for Inactive)
REMARK    1  A    between atoms: C_1  and  C_2
REMARK    2  A    between atoms: C_2  and  C_3
REMARK    3  A    between atoms: C_3  and  C_9
REMARK    4  A    between atoms: N_11  and  C_12
REMARK    5  A    between atoms: C_12  and  C_14
REMARK    6  A    between atoms: C_12  and  C_15
REMARK    7  A    between atoms: C_17  and  C_21
REMARK    8  A    between atoms: C_19  and  C_20
REMARK                            x       y       z     vdW  Elec       q    Type
REMARK                         _______ _______ _______ _____ _____    ______ ____
ROOT
ATOM      1  C   UNL     1       2.077  -0.094   1.358  0.00  0.00    +0.220 C 
ATOM      2  O   UNL     1       3.014  -0.857   1.255  0.00  0.00    -0.275 OA
ATOM      3  N   UNL     1       2.297   1.216   1.588  0.00  0.00    -0.308 N 
ATOM      4  H   UNL     1       1.552   1.837   1.603  0.00  0.00    +0.149 HD
ENDROOT
BRANCH   1   5
ATOM      5  C   UNL     1       0.667  -0.611   1.230  0.00  0.00    +0.043 C 
ATOM      6  C   UNL     1      -0.150  -0.180   2.451  0.00  0.00    -0.003 C 
ATOM      7  C   UNL     1       0.448  -0.815   3.709  0.00  0.00    -0.082 C 
ATOM      8  N   UNL     1       0.414  -2.277   3.586  0.00  0.00    +0.379 N 
ATOM      9  C   UNL     1       1.254  -2.702   2.460  0.00  0.00    -0.082 C 
ATOM     10  C   UNL     1       0.687  -2.140   1.155  0.00  0.00    -0.003 C 
ATOM     11  H   UNL     1       0.760  -2.694   4.438  0.00  0.00    -0.086 HD
ATOM     12  H   UNL     1      -0.536  -2.579   3.428  0.00  0.00    -0.086 HD
BRANCH   5  14
ATOM     13  C   UNL     1       0.800  -0.540  -1.264  0.00  0.00    +0.005 C 
ATOM     14  C   UNL     1       0.028  -0.044  -0.039  0.00  0.00    +0.012 C 
ENDBRANCH   5  14
ENDBRANCH   1   5
BRANCH   3  15
ATOM     15  C   UNL     1       3.661   1.701   1.813  0.00  0.00    +0.103 C 
ATOM     16  C   UNL     1       4.025   1.532   3.289  0.00  0.00    +0.033 C 
BRANCH  15  17
ATOM     17  C   UNL     1       3.743   3.159   1.439  0.00  0.00    +0.013 A 
ATOM     18  C   UNL     1       2.677   4.087   1.427  0.00  0.00    +0.050 A 
ATOM     19  C   UNL     1       3.191   5.267   1.035  0.00  0.00    +0.103 A 
ATOM     20  O   UNL     1       4.505   5.103   0.810  0.00  0.00    -0.465 OA
ATOM     21  C   UNL     1       4.846   3.828   1.059  0.00  0.00    +0.107 A 
ATOM     22  C   UNL     1       6.230   3.244   0.930  0.00  0.00    +0.086 C 
ATOM     23  C   UNL     1       2.423   6.553   0.875  0.00  0.00    +0.086 C 
ENDBRANCH  15  17
ENDBRANCH   3  15
TORSDOF 4
