REMARK  Name = ZINC39864939
REMARK  6 active torsions:
REMARK  status: ('A' for Active; 'I' for Inactive)
REMARK    1  A    between atoms: C_1  and  C_2
REMARK    2  A    between atoms: C_2  and  C_18
REMARK    3  A    between atoms: N_6  and  C_15
REMARK    4  A    between atoms: N_8  and  C_9
REMARK    5  A    between atoms: C_15  and  C_16
REMARK    6  A    between atoms: C_21  and  N_24
REMARK                            x       y       z     vdW  Elec       q    Type
REMARK                         _______ _______ _______ _____ _____    ______ ____
ROOT
ATOM      1  C   UNL     1       0.864   0.206   0.078  0.00  0.00    +0.045 C 
ATOM      2  C   UNL     1       0.989  -1.282   0.275  0.00  0.00    -0.024 C 
ATOM      3  C   UNL     1       0.741  -1.829   1.493  0.00  0.00    +0.081 C 
ATOM      4  C   UNL     1       0.336  -1.172   2.749  0.00  0.00    +0.260 C 
ATOM      5  O   UNL     1       0.171   0.033   2.812  0.00  0.00    -0.269 OA
ATOM      6  N   UNL     1       0.158  -1.950   3.803  0.00  0.00    -0.242 N 
ATOM      7  C   UNL     1       0.349  -3.310   3.712  0.00  0.00    +0.171 C 
ATOM      8  N   UNL     1       0.216  -4.221   4.655  0.00  0.00    -0.199 NA
ATOM      9  S   UNL     1       0.811  -3.541   2.003  0.00  0.00    -0.048 S 
ENDROOT
BRANCH   2  10
ATOM     10  C   UNL     1       1.378  -2.141  -0.850  0.00  0.00    -0.021 A 
ATOM     11  C   UNL     1       2.590  -2.844  -0.811  0.00  0.00    +0.010 A 
ATOM     12  C   UNL     1       2.949  -3.645  -1.864  0.00  0.00    +0.023 A 
ATOM     13  C   UNL     1       2.113  -3.761  -2.971  0.00  0.00    +0.025 A 
ATOM     14  C   UNL     1       0.908  -3.064  -3.014  0.00  0.00    +0.023 A 
ATOM     15  C   UNL     1       0.537  -2.266  -1.963  0.00  0.00    +0.010 A 
BRANCH  13  16
ATOM     16  N   UNL     1       2.482  -4.575  -4.038  0.00  0.00    -0.358 N 
ATOM     17  H   UNL     1       3.321  -5.061  -4.009  0.00  0.00    +0.142 HD
ATOM     18  H   UNL     1       1.901  -4.657  -4.810  0.00  0.00    +0.142 HD
ENDBRANCH  13  16
ENDBRANCH   2  10
BRANCH   8  19
ATOM     19  C   UNL     1      -0.277  -3.872   5.871  0.00  0.00    +0.195 A 
ATOM     20  N   UNL     1       0.370  -3.451   6.954  0.00  0.00    -0.230 NA
ATOM     21  C   UNL     1      -0.280  -3.154   8.060  0.00  0.00    +0.121 A 
ATOM     22  C   UNL     1      -1.630  -3.276   8.106  0.00  0.00    +0.068 A 
ATOM     23  S   UNL     1      -1.970  -3.848   6.446  0.00  0.00    -0.056 S 
ENDBRANCH   8  19
BRANCH   6  24
ATOM     24  C   UNL     1      -0.244  -1.358   5.082  0.00  0.00    +0.142 C 
BRANCH  24  25
ATOM     25  C   UNL     1       0.977  -1.121   5.932  0.00  0.00    -0.015 C 
ATOM     26  C   UNL     1       1.210   0.069   6.426  0.00  0.00    +0.005 C 
ENDBRANCH  24  25
ENDBRANCH   6  24
TORSDOF 5
