REMARK  Name = ZINC45547306
REMARK  7 active torsions:
REMARK  status: ('A' for Active; 'I' for Inactive)
REMARK    1  A    between atoms: C_1  and  C_2
REMARK    2  A    between atoms: C_2  and  C_3
REMARK    3  A    between atoms: C_2  and  C_4
REMARK    4  A    between atoms: C_7  and  C_10
REMARK    5  A    between atoms: C_10  and  C_34
REMARK    6  A    between atoms: N_13  and  C_17
REMARK    7  A    between atoms: C_17  and  C_18
REMARK                            x       y       z     vdW  Elec       q    Type
REMARK                         _______ _______ _______ _____ _____    ______ ____
ROOT
ATOM      1  C   UNL     1      -5.520  -1.986   0.451  0.00  0.00    +0.135 C 
ATOM      2  C   UNL     1      -5.525  -3.304  -0.297  0.00  0.00    +0.251 C 
ATOM      3  O   UNL     1      -5.188  -3.495  -1.446  0.00  0.00    -0.272 OA
ATOM      4  N   UNL     1      -5.980  -4.220   0.581  0.00  0.00    -0.215 N 
ATOM      5  C   UNL     1      -6.261  -3.669   1.767  0.00  0.00    +0.310 C 
ATOM      6  O   UNL     1      -6.686  -4.294   2.719  0.00  0.00    -0.252 OA
ATOM      7  N   UNL     1      -6.020  -2.345   1.789  0.00  0.00    -0.281 N 
ATOM      8  C   UNL     1      -6.456  -0.979  -0.221  0.00  0.00    +0.047 C 
ATOM      9  H   UNL     1      -6.151  -1.745   2.539  0.00  0.00    +0.152 HD
ENDROOT
BRANCH   1  13
ATOM     10  C   UNL     1      -1.556  -0.415   0.701  0.00  0.00    -0.045 A 
ATOM     11  C   UNL     1      -2.444  -0.217   1.741  0.00  0.00    +0.004 A 
ATOM     12  C   UNL     1      -3.727  -0.726   1.660  0.00  0.00    +0.006 A 
ATOM     13  C   UNL     1      -4.122  -1.431   0.539  0.00  0.00    -0.015 A 
ATOM     14  C   UNL     1      -3.233  -1.628  -0.502  0.00  0.00    +0.006 A 
ATOM     15  C   UNL     1      -1.952  -1.116  -0.422  0.00  0.00    +0.004 A 
BRANCH  10  17
ATOM     16  C   UNL     1      -0.220   1.660   0.945  0.00  0.00    +0.012 C 
ATOM     17  C   UNL     1      -0.157   0.139   0.790  0.00  0.00    +0.013 C 
ATOM     18  C   UNL     1       0.557  -0.469   1.999  0.00  0.00    +0.012 C 
ENDBRANCH  10  17
ENDBRANCH   1  13
BRANCH   4  19
ATOM     19  C   UNL     1      -6.147  -5.642   0.274  0.00  0.00    +0.214 C 
BRANCH  19  20
ATOM     20  C   UNL     1      -4.874  -6.380   0.598  0.00  0.00    +0.242 C 
ATOM     21  O   UNL     1      -3.859  -5.760   0.839  0.00  0.00    -0.273 OA
ATOM     22  N   UNL     1      -4.862  -7.727   0.621  0.00  0.00    -0.237 N 
ATOM     23  C   UNL     1      -3.710  -8.391   1.060  0.00  0.00    +0.055 A 
ATOM     24  C   UNL     1      -2.454  -7.897   0.743  0.00  0.00    +0.025 A 
ATOM     25  C   UNL     1      -1.321  -8.559   1.178  0.00  0.00    +0.002 A 
ATOM     26  C   UNL     1      -1.429  -9.713   1.931  0.00  0.00    +0.001 A 
ATOM     27  C   UNL     1      -2.678 -10.216   2.254  0.00  0.00    +0.017 A 
ATOM     28  C   UNL     1      -3.814  -9.558   1.821  0.00  0.00    +0.035 A 
ATOM     29  S   UNL     1      -5.421 -10.174   2.217  0.00  0.00    -0.086 S 
ATOM     30  C   UNL     1      -6.392  -9.597   0.860  0.00  0.00    +0.035 A 
ATOM     31  C   UNL     1      -6.005  -8.425   0.211  0.00  0.00    +0.055 A 
ATOM     32  C   UNL     1      -6.765  -7.960  -0.852  0.00  0.00    +0.025 A 
ATOM     33  C   UNL     1      -7.891  -8.656  -1.253  0.00  0.00    +0.002 A 
ATOM     34  C   UNL     1      -8.268  -9.815  -0.601  0.00  0.00    +0.001 A 
ATOM     35  C   UNL     1      -7.516 -10.289   0.450  0.00  0.00    +0.017 A 
ENDBRANCH  19  20
ENDBRANCH   4  19
TORSDOF 4
