REMARK  Name = ZINC31294197
REMARK  6 active torsions:
REMARK  status: ('A' for Active; 'I' for Inactive)
REMARK    1  A    between atoms: C_3  and  C_8
REMARK    2  A    between atoms: C_10  and  C_13
REMARK    3  A    between atoms: N_15  and  C_16
REMARK    4  A    between atoms: C_16  and  C_17
REMARK    5  A    between atoms: C_17  and  C_19
REMARK    6  A    between atoms: C_17  and  O_27
REMARK                            x       y       z     vdW  Elec       q    Type
REMARK                         _______ _______ _______ _____ _____    ______ ____
ROOT
ATOM      1  C   UNL     1       7.312   2.553  -0.064  0.00  0.00    +0.266 C 
ATOM      2  O   UNL     1       7.822   1.450  -0.079  0.00  0.00    -0.268 OA
ATOM      3  N   UNL     1       8.089   3.655  -0.064  0.00  0.00    -0.307 N 
ATOM      4  H   UNL     1       7.682   4.535  -0.051  0.00  0.00    +0.149 HD
ENDROOT
BRANCH   1   7
ATOM      5  C   UNL     1       3.657   2.162  -0.022  0.00  0.00    +0.168 A 
ATOM      6  C   UNL     1       4.905   1.625  -0.042  0.00  0.00    +0.086 A 
ATOM      7  C   UNL     1       5.835   2.687  -0.044  0.00  0.00    +0.168 A 
ATOM      8  N   UNL     1       5.163   3.814  -0.026  0.00  0.00    -0.073 NA
ATOM      9  O   UNL     1       3.782   3.502  -0.017  0.00  0.00    -0.354 OA
BRANCH   5  12
ATOM     10  C   UNL     1      -0.017   1.379   0.010  0.00  0.00    +0.002 A 
ATOM     11  C   UNL     1       1.167   2.088   0.002  0.00  0.00    +0.012 A 
ATOM     12  C   UNL     1       2.385   1.408  -0.013  0.00  0.00    +0.021 A 
ATOM     13  C   UNL     1       2.398   0.012  -0.021  0.00  0.00    +0.031 A 
ATOM     14  C   UNL     1       1.207  -0.686  -0.013  0.00  0.00    +0.042 A 
ATOM     15  C   UNL     1       0.002  -0.004   0.002  0.00  0.00    +0.020 A 
ATOM     16 CL   UNL     1       1.221  -2.422  -0.023  0.00  0.00    -0.084 Cl
ENDBRANCH   5  12
ENDBRANCH   1   7
BRANCH   3  17
ATOM     17  C   UNL     1       9.548   3.522  -0.083  0.00  0.00    +0.140 C 
BRANCH  17  18
ATOM     18  C   UNL     1      10.186   4.912  -0.079  0.00  0.00    +0.162 C 
BRANCH  18  19
ATOM     19  C   UNL     1      11.681   4.779  -0.222  0.00  0.00    -0.015 A 
ATOM     20  C   UNL     1      12.453   4.453   0.877  0.00  0.00    +0.009 A 
ATOM     21  C   UNL     1      13.824   4.330   0.748  0.00  0.00    +0.041 A 
ATOM     22  C   UNL     1      14.424   4.534  -0.483  0.00  0.00    +0.158 A 
ATOM     23  C   UNL     1      13.649   4.861  -1.585  0.00  0.00    +0.159 A 
ATOM     24  C   UNL     1      12.277   4.978  -1.453  0.00  0.00    +0.047 A 
ATOM     25  F   UNL     1      14.233   5.061  -2.787  0.00  0.00    -0.202 F 
ATOM     26  F   UNL     1      15.764   4.415  -0.609  0.00  0.00    -0.202 F 
ENDBRANCH  18  19
BRANCH  18  27
ATOM     27  O   UNL     1       9.883   5.572   1.152  0.00  0.00    -0.386 OA
ATOM     28  H   UNL     1      10.204   5.108   1.937  0.00  0.00    +0.210 HD
ENDBRANCH  18  27
ENDBRANCH  17  18
ENDBRANCH   3  17
TORSDOF 6
