REMARK  Name = ZINC13568617
REMARK  8 active torsions:
REMARK  status: ('A' for Active; 'I' for Inactive)
REMARK    1  A    between atoms: C_1  and  C_2
REMARK    2  A    between atoms: C_2  and  C_3
REMARK    3  A    between atoms: C_2  and  O_4
REMARK    4  A    between atoms: O_4  and  C_5
REMARK    5  A    between atoms: C_8  and  C_13
REMARK    6  A    between atoms: C_10  and  O_11
REMARK    7  A    between atoms: O_11  and  C_12
REMARK    8  A    between atoms: C_18  and  C_24
REMARK                            x       y       z     vdW  Elec       q    Type
REMARK                         _______ _______ _______ _____ _____    ______ ____
ROOT
ATOM      1  C   UNL     1      -0.525   0.805  -0.073  0.00  0.00    +0.032 C 
ATOM      2  C   UNL     1       0.981   1.071  -0.010  0.00  0.00    +0.059 C 
ATOM      3  C   UNL     1       1.577   0.333   1.163  0.00  0.00    +0.018 C 
ATOM      4  C   UNL     1       1.046  -0.832   1.589  0.00  0.00    +0.020 C 
ATOM      5  C   UNL     1       1.668  -1.560   2.758  0.00  0.00    +0.063 C 
ATOM      6  C   UNL     1       3.184  -1.361   2.731  0.00  0.00    +0.109 C 
ATOM      7  C   UNL     1       3.486   0.103   2.540  0.00  0.00    +0.218 C 
ATOM      8  O   UNL     1       4.464   0.593   3.065  0.00  0.00    -0.275 OA
ATOM      9  N   UNL     1       2.674   0.867   1.789  0.00  0.00    -0.289 N 
ATOM     10  C   UNL     1      -0.081  -1.393   0.967  0.00  0.00    +0.162 C 
ATOM     11  O   UNL     1      -0.524  -2.450   1.372  0.00  0.00    -0.292 OA
ATOM     12  C   UNL     1      -0.750  -0.706  -0.193  0.00  0.00    +0.088 C 
ATOM     13  H   UNL     1       2.867   1.813   1.689  0.00  0.00    +0.155 HD
ENDROOT
BRANCH   5  14
ATOM     14  C   UNL     1       1.111  -1.010   4.046  0.00  0.00    -0.036 A 
ATOM     15  C   UNL     1       1.280   0.326   4.356  0.00  0.00    +0.008 A 
ATOM     16  C   UNL     1       0.771   0.835   5.536  0.00  0.00    +0.050 A 
ATOM     17  C   UNL     1       0.090   0.005   6.412  0.00  0.00    +0.166 A 
ATOM     18  C   UNL     1      -0.081  -1.341   6.099  0.00  0.00    +0.167 A 
ATOM     19  C   UNL     1       0.428  -1.843   4.912  0.00  0.00    +0.053 A 
ATOM     20  O   UNL     1      -0.776  -1.939   7.111  0.00  0.00    -0.453 OA
ATOM     21  C   UNL     1      -0.675  -1.040   8.231  0.00  0.00    +0.466 C 
ATOM     22  O   UNL     1      -0.499   0.251   7.618  0.00  0.00    -0.453 OA
ENDBRANCH   5  14
BRANCH   1  26
ATOM     23  C   UNL     1      -2.188   2.777  -3.484  0.00  0.00    +0.162 A 
ATOM     24  C   UNL     1      -1.188   1.832  -3.646  0.00  0.00    +0.050 A 
ATOM     25  C   UNL     1      -0.652   1.196  -2.541  0.00  0.00    +0.008 A 
ATOM     26  C   UNL     1      -1.112   1.501  -1.274  0.00  0.00    -0.040 A 
ATOM     27  C   UNL     1      -2.114   2.439  -1.106  0.00  0.00    +0.053 A 
ATOM     28  C   UNL     1      -2.651   3.084  -2.208  0.00  0.00    +0.162 A 
BRANCH  28  29
ATOM     29  O   UNL     1      -3.633   4.011  -2.044  0.00  0.00    -0.491 OA
ATOM     30  C   UNL     1      -4.058   4.275  -0.706  0.00  0.00    +0.277 C 
ENDBRANCH  28  29
BRANCH  23  31
ATOM     31  O   UNL     1      -2.717   3.402  -4.570  0.00  0.00    -0.486 OA
BRANCH  31  33
ATOM     32  C   UNL     1      -2.720   1.849  -6.422  0.00  0.00    +0.051 C 
ATOM     33  C   UNL     1      -2.113   3.126  -5.835  0.00  0.00    +0.167 C 
ATOM     34  C   UNL     1      -2.368   4.295  -6.788  0.00  0.00    +0.051 C 
ENDBRANCH  31  33
ENDBRANCH  23  31
ENDBRANCH   1  26
TORSDOF 5
