REMARK  Name = ZINC21302362
REMARK  10 active torsions:
REMARK  status: ('A' for Active; 'I' for Inactive)
REMARK    1  A    between atoms: C_13  and  C_14
REMARK    2  A    between atoms: C_14  and  O_15
REMARK    3  A    between atoms: O_15  and  C_16
REMARK    4  A    between atoms: C_16  and  C_18
REMARK    5  A    between atoms: C_18  and  C_20
REMARK    6  A    between atoms: C_18  and  C_30
REMARK    7  A    between atoms: C_23  and  C_26
REMARK    8  A    between atoms: C_30  and  C_32
REMARK    9  A    between atoms: C_30  and  N_36
REMARK   10  A    between atoms: C_32  and  C_33
REMARK                            x       y       z     vdW  Elec       q    Type
REMARK                         _______ _______ _______ _____ _____    ______ ____
ROOT
ATOM      1  C   UNL     1      -0.498   9.650  -2.154  0.00  0.00    +0.114 C 
ENDROOT
BRANCH   1   2
ATOM      2  C   UNL     1      -1.106  10.227  -3.406  0.00  0.00    -0.035 A 
ATOM      3  C   UNL     1      -2.446  10.027  -3.679  0.00  0.00    +0.005 A 
ATOM      4  C   UNL     1      -3.005  10.561  -4.826  0.00  0.00    +0.012 A 
ATOM      5  C   UNL     1      -2.221  11.285  -5.704  0.00  0.00    +0.055 A 
ATOM      6  C   UNL     1      -0.879  11.479  -5.434  0.00  0.00    +0.012 A 
ATOM      7  C   UNL     1      -0.322  10.950  -4.285  0.00  0.00    +0.005 A 
BRANCH   5   8
ATOM      8  C   UNL     1      -2.829  11.861  -6.957  0.00  0.00    +0.417 C 
ATOM      9  F   UNL     1      -2.725  10.931  -7.997  0.00  0.00    -0.166 F 
ATOM     10  F   UNL     1      -4.177  12.156  -6.728  0.00  0.00    -0.166 F 
ATOM     11  F   UNL     1      -2.148  13.032  -7.309  0.00  0.00    -0.166 F 
ENDBRANCH   5   8
ENDBRANCH   1   2
BRANCH   1  12
ATOM     12  C   UNL     1      -0.654   8.151  -2.164  0.00  0.00    +0.313 C 
ATOM     13  O   UNL     1      -1.202   7.607  -3.093  0.00  0.00    -0.250 OA
BRANCH  12  14
ATOM     14  O   UNL     1      -0.183   7.420  -1.141  0.00  0.00    -0.463 OA
BRANCH  14  15
ATOM     15  C   UNL     1      -0.369   5.982  -1.218  0.00  0.00    +0.245 C 
BRANCH  15  28
ATOM     16  C   UNL     1      -0.013   1.076   0.008  0.00  0.00    +0.001 A 
ATOM     17  C   UNL     1      -1.221   1.748   0.017  0.00  0.00    +0.000 A 
ATOM     18  C   UNL     1      -1.246   3.132   0.029  0.00  0.00    +0.005 A 
ATOM     19  C   UNL     1      -0.064   3.843   0.022  0.00  0.00    -0.029 A 
ATOM     20  C   UNL     1       1.157   3.175   0.008  0.00  0.00    -0.014 A 
ATOM     21  C   UNL     1       1.174   1.779   0.000  0.00  0.00    +0.009 A 
ATOM     22  C   UNL     1       2.262   4.166   0.003  0.00  0.00    -0.014 A 
ATOM     23  C   UNL     1       3.648   3.998  -0.011  0.00  0.00    +0.009 A 
ATOM     24  C   UNL     1       4.476   5.101  -0.013  0.00  0.00    +0.001 A 
ATOM     25  C   UNL     1       3.938   6.375  -0.001  0.00  0.00    +0.000 A 
ATOM     26  C   UNL     1       2.566   6.550   0.012  0.00  0.00    +0.005 A 
ATOM     27  C   UNL     1       1.731   5.452   0.014  0.00  0.00    -0.029 A 
ATOM     28  C   UNL     1       0.227   5.323   0.027  0.00  0.00    +0.088 C 
ENDBRANCH  15  28
ENDBRANCH  14  15
ENDBRANCH  12  14
ENDBRANCH   1  12
BRANCH   1  29
ATOM     29  C   UNL     1      -1.209  10.228  -0.929  0.00  0.00    -0.046 C 
BRANCH  29  30
ATOM     30  N   UNL     1      -0.617   9.665   0.292  0.00  0.00    +0.381 N 
ATOM     31  H   UNL     1      -1.128  10.081   1.173  0.00  0.00    -0.090 HD
ATOM     32  H   UNL     1       0.452   9.923   0.333  0.00  0.00    -0.090 HD
ATOM     33  H   UNL     1      -0.731   8.571   0.285  0.00  0.00    -0.090 HD
ENDBRANCH  29  30
BRANCH  29  34
ATOM     34  C   UNL     1      -1.051  11.750  -0.918  0.00  0.00    +0.110 C 
BRANCH  34  35
ATOM     35  C   UNL     1      -1.853  12.330   0.218  0.00  0.00    +0.354 C 
ATOM     36  O   UNL     1      -2.486  11.601   0.945  0.00  0.00    -0.246 OA
ATOM     37  O   UNL     1      -1.864  13.657   0.423  0.00  0.00    -0.246 OA
ENDBRANCH  34  35
ENDBRANCH  29  34
ENDBRANCH   1  29
TORSDOF 10
