REMARK  Name = ZINC32856115
REMARK  11 active torsions:
REMARK  status: ('A' for Active; 'I' for Inactive)
REMARK    1  A    between atoms: C_1  and  C_2
REMARK    2  A    between atoms: C_4  and  C_33
REMARK    3  A    between atoms: C_5  and  N_9
REMARK    4  A    between atoms: C_6  and  C_8
REMARK    5  A    between atoms: C_10  and  C_12
REMARK    6  A    between atoms: C_12  and  N_13
REMARK    7  A    between atoms: N_13  and  C_14
REMARK    8  A    between atoms: N_13  and  C_15
REMARK    9  A    between atoms: C_15  and  C_16
REMARK   10  A    between atoms: N_18  and  C_19
REMARK   11  A    between atoms: C_24  and  N_25
REMARK                            x       y       z     vdW  Elec       q    Type
REMARK                         _______ _______ _______ _____ _____    ______ ____
ROOT
ATOM      1  C   UNL     1      -7.036   4.812  -1.050  0.00  0.00    +0.019 C 
ENDROOT
BRANCH   1   2
ATOM      2  C   UNL     1      -8.275   3.975  -1.240  0.00  0.00    +0.201 C 
ATOM      3  O   UNL     1      -8.179   2.775  -1.385  0.00  0.00    -0.278 OA
ATOM      4  N   UNL     1      -9.489   4.560  -1.247  0.00  0.00    -0.285 N 
ATOM      5  H   UNL     1      -9.582   5.636  -1.041  0.00  0.00    +0.155 HD
BRANCH   4   6
ATOM      6  C   UNL     1     -10.633   3.797  -1.518  0.00  0.00    +0.068 A 
ATOM      7  C   UNL     1     -10.720   2.489  -1.058  0.00  0.00    +0.075 A 
ATOM      8  C   UNL     1     -11.854   1.743  -1.325  0.00  0.00    +0.164 A 
ATOM      9  C   UNL     1     -12.894   2.295  -2.059  0.00  0.00    +0.164 A 
ATOM     10  C   UNL     1     -12.805   3.597  -2.522  0.00  0.00    +0.084 A 
ATOM     11  C   UNL     1     -11.675   4.347  -2.252  0.00  0.00    +0.151 A 
ATOM     12  O   UNL     1     -14.006   1.546  -2.322  0.00  0.00    -0.488 OA
ATOM     13  C   UNL     1     -14.827   1.231  -1.196  0.00  0.00    +0.232 C 
ATOM     14  C   UNL     1     -14.304  -0.001  -0.475  0.00  0.00    +0.082 C 
ATOM     15  C   UNL     1     -12.933   0.227   0.141  0.00  0.00    +0.232 C 
ATOM     16  O   UNL     1     -11.954   0.459  -0.875  0.00  0.00    -0.488 OA
BRANCH  11  17
ATOM     17  N   UNL     1     -11.577   5.739  -2.745  0.00  0.00    +0.058 N 
ATOM     18  O   UNL     1     -12.530   6.257  -3.300  0.00  0.00    -0.126 OA
ATOM     19  O   UNL     1     -10.544   6.367  -2.596  0.00  0.00    -0.126 OA
ENDBRANCH  11  17
ENDBRANCH   4   6
ENDBRANCH   1   2
BRANCH   1  20
ATOM     20  N   UNL     1      -5.851   3.946  -1.080  0.00  0.00    +0.389 N 
ATOM     21  C   UNL     1      -5.668   3.348  -2.409  0.00  0.00    -0.095 C 
ATOM     22  H   UNL     1      -6.011   3.129  -0.361  0.00  0.00    -0.081 HD
BRANCH  20  23
ATOM     23  C   UNL     1      -4.649   4.683  -0.665  0.00  0.00    +0.019 C 
BRANCH  23  25
ATOM     24  N   UNL     1      -2.300   4.170  -0.087  0.00  0.00    -0.287 N 
ATOM     25  C   UNL     1      -3.509   3.717  -0.471  0.00  0.00    +0.201 C 
ATOM     26  O   UNL     1      -3.680   2.531  -0.659  0.00  0.00    -0.278 OA
ATOM     27  H   UNL     1      -2.162   5.236   0.150  0.00  0.00    +0.155 HD
BRANCH  24  32
ATOM     28  C   UNL     1       2.082   0.587   0.300  0.00  0.00    +0.044 C 
ATOM     29  C   UNL     1       0.918   1.539   0.197  0.00  0.00    -0.050 A 
ATOM     30  C   UNL     1       0.188   1.613  -0.975  0.00  0.00    +0.008 A 
ATOM     31  C   UNL     1      -0.876   2.488  -1.075  0.00  0.00    -0.029 A 
ATOM     32  C   UNL     1      -1.219   3.287   0.008  0.00  0.00    +0.039 A 
ATOM     33  C   UNL     1      -0.485   3.210   1.184  0.00  0.00    -0.029 A 
ATOM     34  C   UNL     1       0.581   2.336   1.276  0.00  0.00    +0.008 A 
ATOM     35  C   UNL     1      -0.850   4.080   2.360  0.00  0.00    +0.045 C 
ATOM     36  C   UNL     1      -1.666   2.572  -2.355  0.00  0.00    +0.045 C 
ENDBRANCH  24  32
ENDBRANCH  23  25
ENDBRANCH  20  23
ENDBRANCH   1  20
TORSDOF 7
