REMARK  Name = ZINC63362624
REMARK  6 active torsions:
REMARK  status: ('A' for Active; 'I' for Inactive)
REMARK    1  A    between atoms: C_1  and  C_2
REMARK    2  A    between atoms: C_9  and  N_17
REMARK    3  A    between atoms: N_17  and  C_18
REMARK    4  A    between atoms: C_18  and  C_19
REMARK    5  A    between atoms: C_25  and  C_38
REMARK    6  A    between atoms: C_30  and  C_37
REMARK                            x       y       z     vdW  Elec       q    Type
REMARK                         _______ _______ _______ _____ _____    ______ ____
ROOT
ATOM      1  N   UNL     1      -2.655  -6.306   4.433  0.00  0.00    -0.310 NA
ATOM      2  H   UNL     1      -2.998  -5.452   4.848  0.00  0.00    +0.122 HD
ENDROOT
BRANCH   1  10
ATOM      3  C   UNL     1       1.458  -0.894   4.487  0.00  0.00    +0.044 C 
ATOM      4  C   UNL     1       1.117  -2.360   4.414  0.00  0.00    -0.050 A 
ATOM      5  C   UNL     1       1.527  -3.100   3.296  0.00  0.00    +0.005 A 
ATOM      6  C   UNL     1       1.263  -4.417   3.159  0.00  0.00    +0.026 A 
ATOM      7  C   UNL     1       0.543  -5.117   4.165  0.00  0.00    +0.043 A 
ATOM      8  N   UNL     1       0.152  -6.368   4.249  0.00  0.00    -0.376 N 
ATOM      9  C   UNL     1      -0.486  -6.568   5.547  0.00  0.00    +0.123 C 
ATOM     10  C   UNL     1      -1.913  -7.107   5.415  0.00  0.00    +0.080 C 
ATOM     11  C   UNL     1      -2.597  -7.014   6.783  0.00  0.00    +0.021 C 
ATOM     12  C   UNL     1      -2.767  -5.559   7.216  0.00  0.00    +0.006 C 
ATOM     13  C   UNL     1      -1.389  -4.904   7.412  0.00  0.00    +0.033 C 
ATOM     14  C   UNL     1      -0.574  -5.185   6.171  0.00  0.00    -0.037 C 
ATOM     15  C   UNL     1       0.090  -4.354   5.356  0.00  0.00    -0.001 A 
ATOM     16  C   UNL     1       0.428  -2.927   5.429  0.00  0.00    +0.013 A 
ATOM     17  H   UNL     1       0.267  -7.045   3.564  0.00  0.00    +0.160 HD
ENDBRANCH   1  10
BRANCH   1  18
ATOM     18  C   UNL     1      -3.752  -7.082   3.841  0.00  0.00    +0.096 C 
BRANCH  18  19
ATOM     19  C   UNL     1      -4.500  -6.216   2.826  0.00  0.00    +0.122 C 
ATOM     20  C   UNL     1      -5.700  -6.982   2.237  0.00  0.00    +0.067 C 
ATOM     21  C   UNL     1      -6.987  -6.622   2.881  0.00  0.00    -0.019 C 
ATOM     22  C   UNL     1      -7.798  -5.702   2.446  0.00  0.00    -0.064 C 
ATOM     23  C   UNL     1      -9.134  -5.521   3.127  0.00  0.00    +0.012 C 
ATOM     24  C   UNL     1     -10.258  -5.404   2.118  0.00  0.00    +0.007 C 
ATOM     25  C   UNL     1      -9.926  -4.565   0.903  0.00  0.00    +0.001 C 
ATOM     26  C   UNL     1      -8.618  -4.989   0.239  0.00  0.00    +0.011 C 
ATOM     27  C   UNL     1      -7.487  -4.850   1.255  0.00  0.00    -0.007 C 
ATOM     28  C   UNL     1      -6.129  -5.082   0.654  0.00  0.00    +0.056 C 
ATOM     29  C   UNL     1      -5.637  -6.544   0.754  0.00  0.00    +0.185 C 
ATOM     30  O   UNL     1      -4.200  -6.522   0.530  0.00  0.00    -0.460 OA
ATOM     31  C   UNL     1      -3.628  -5.940   1.611  0.00  0.00    +0.312 C 
ATOM     32  O   UNL     1      -2.598  -5.308   1.612  0.00  0.00    -0.250 OA
ATOM     33  C   UNL     1      -7.504  -3.398   1.736  0.00  0.00    +0.016 C 
ATOM     34  C   UNL     1      -9.094  -4.251   3.979  0.00  0.00    +0.012 C 
ENDBRANCH  18  19
ENDBRANCH   1  18
TORSDOF 3
