REMARK  Name = ZINC40980641
REMARK  11 active torsions:
REMARK  status: ('A' for Active; 'I' for Inactive)
REMARK    1  A    between atoms: C_1  and  C_2
REMARK    2  A    between atoms: C_2  and  C_3
REMARK    3  A    between atoms: C_3  and  S_4
REMARK    4  A    between atoms: S_4  and  C_5
REMARK    5  A    between atoms: C_10  and  C_20
REMARK    6  A    between atoms: C_22  and  O_30
REMARK    7  A    between atoms: C_23  and  O_27
REMARK    8  A    between atoms: O_27  and  C_28
REMARK    9  A    between atoms: C_28  and  C_29
REMARK   10  A    between atoms: O_30  and  C_31
REMARK   11  A    between atoms: C_31  and  C_32
REMARK                            x       y       z     vdW  Elec       q    Type
REMARK                         _______ _______ _______ _____ _____    ______ ____
ROOT
ATOM      1  C   UNL     1      -3.112  -2.797   0.017  0.00  0.00    +0.210 A 
ATOM      2  N   UNL     1      -4.144  -1.940   0.025  0.00  0.00    -0.187 NA
ATOM      3  C   UNL     1      -5.265  -2.608   0.032  0.00  0.00    +0.219 A 
ATOM      4  N   UNL     1      -4.969  -3.930   0.032  0.00  0.00    -0.220 N 
ATOM      5  N   UNL     1      -3.578  -4.028   0.015  0.00  0.00    -0.141 NA
ATOM      6  C   UNL     1      -5.981  -4.979   0.048  0.00  0.00    +0.176 C 
ATOM      7  C   UNL     1      -7.337  -4.395  -0.280  0.00  0.00    +0.041 C 
ATOM      8  C   UNL     1      -7.568  -3.064  -0.264  0.00  0.00    +0.020 C 
ATOM      9  N   UNL     1      -6.576  -2.161   0.035  0.00  0.00    -0.287 N 
ATOM     10  C   UNL     1      -8.939  -2.512  -0.572  0.00  0.00    +0.052 C 
ATOM     11  C   UNL     1      -9.648  -3.425  -1.575  0.00  0.00    +0.014 C 
ATOM     12  C   UNL     1      -9.743  -4.828  -0.966  0.00  0.00    +0.080 C 
ATOM     13  C   UNL     1      -8.361  -5.301  -0.609  0.00  0.00    +0.163 C 
ATOM     14  O   UNL     1      -8.124  -6.492  -0.606  0.00  0.00    -0.292 OA
ATOM     15  H   UNL     1      -6.788  -1.237   0.242  0.00  0.00    +0.155 HD
ENDROOT
BRANCH   6  16
ATOM     16  C   UNL     1      -6.027  -5.608   1.417  0.00  0.00    -0.014 A 
ATOM     17  C   UNL     1      -5.764  -6.958   1.565  0.00  0.00    +0.055 A 
ATOM     18  C   UNL     1      -5.806  -7.538   2.823  0.00  0.00    +0.163 A 
ATOM     19  C   UNL     1      -6.114  -6.760   3.935  0.00  0.00    +0.176 A 
ATOM     20  C   UNL     1      -6.377  -5.408   3.780  0.00  0.00    +0.063 A 
ATOM     21  C   UNL     1      -6.328  -4.834   2.522  0.00  0.00    +0.025 A 
ATOM     22 BR   UNL     1      -6.796  -4.347   5.288  0.00  0.00    -0.046 Br
BRANCH  19  23
ATOM     23  O   UNL     1      -6.157  -7.325   5.171  0.00  0.00    -0.487 OA
BRANCH  23  24
ATOM     24  C   UNL     1      -4.942  -7.337   5.922  0.00  0.00    +0.226 C 
ATOM     25  C   UNL     1      -5.185  -8.008   7.276  0.00  0.00    +0.048 C 
ENDBRANCH  23  24
ENDBRANCH  19  23
BRANCH  18  26
ATOM     26  O   UNL     1      -5.548  -8.865   2.970  0.00  0.00    -0.489 OA
BRANCH  26  27
ATOM     27  C   UNL     1      -5.239  -9.601   1.784  0.00  0.00    +0.226 C 
ATOM     28  C   UNL     1      -4.981 -11.065   2.146  0.00  0.00    +0.048 C 
ENDBRANCH  26  27
ENDBRANCH  18  26
ENDBRANCH   6  16
BRANCH   1  29
ATOM     29  S   UNL     1      -1.409  -2.348   0.003  0.00  0.00    -0.084 S 
BRANCH  29  30
ATOM     30  C   UNL     1      -1.433  -0.534   0.013  0.00  0.00    +0.077 C 
BRANCH  30  32
ATOM     31  C   UNL     1      -0.019   1.526   0.010  0.00  0.00    +0.004 C 
ATOM     32  C   UNL     1       0.002  -0.004   0.002  0.00  0.00    +0.008 C 
ENDBRANCH  30  32
ENDBRANCH  29  30
ENDBRANCH   1  29
TORSDOF 8
