REMARK  Name = ZINC37312483
REMARK  13 active torsions:
REMARK  status: ('A' for Active; 'I' for Inactive)
REMARK    1  A    between atoms: C_1  and  C_2
REMARK    2  A    between atoms: C_2  and  C_4
REMARK    3  A    between atoms: C_2  and  N_14
REMARK    4  A    between atoms: C_8  and  S_10
REMARK    5  A    between atoms: S_10  and  N_13
REMARK    6  A    between atoms: N_14  and  C_15
REMARK    7  A    between atoms: C_15  and  C_16
REMARK    8  A    between atoms: C_15  and  C_17
REMARK    9  A    between atoms: C_15  and  C_18
REMARK   10  A    between atoms: C_18  and  C_19
REMARK   11  A    between atoms: C_19  and  C_20
REMARK   12  A    between atoms: C_19  and  C_21
REMARK   13  A    between atoms: C_19  and  C_22
REMARK                            x       y       z     vdW  Elec       q    Type
REMARK                         _______ _______ _______ _____ _____    ______ ____
ROOT
ATOM      1  C   UNL     1       1.290  -0.019  -0.423  0.00  0.00    -0.009 C 
ATOM      2  C   UNL     1       0.158   0.380   0.526  0.00  0.00    -0.043 C 
ENDROOT
BRANCH   2   3
ATOM      3  C   UNL     1      -1.143  -0.191   0.024  0.00  0.00    -0.060 A 
ATOM      4  C   UNL     1      -1.457  -1.515   0.270  0.00  0.00    +0.002 A 
ATOM      5  C   UNL     1      -2.650  -2.039  -0.191  0.00  0.00    +0.002 A 
ATOM      6  C   UNL     1      -3.530  -1.239  -0.896  0.00  0.00    +0.028 A 
ATOM      7  C   UNL     1      -3.216   0.085  -1.141  0.00  0.00    +0.105 A 
ATOM      8  C   UNL     1      -2.025   0.610  -0.677  0.00  0.00    +0.030 A 
BRANCH   7   9
ATOM      9  S   UNL     1      -4.337   1.104  -2.041  0.00  0.00    +0.056 S 
ATOM     10  O   UNL     1      -3.566   2.155  -2.607  0.00  0.00    -0.153 OA
ATOM     11  O   UNL     1      -5.133   0.232  -2.832  0.00  0.00    -0.153 OA
BRANCH   9  12
ATOM     12  N   UNL     1      -5.355   1.804  -0.938  0.00  0.00    -0.204 NA
ATOM     13  H   UNL     1      -5.735   2.679  -1.116  0.00  0.00    +0.144 HD
ATOM     14  H   UNL     1      -5.571   1.340  -0.115  0.00  0.00    +0.144 HD
ENDBRANCH   9  12
ENDBRANCH   7   9
ENDBRANCH   2   3
BRANCH   2  15
ATOM     15  N   UNL     1       0.438  -0.145   1.870  0.00  0.00    +0.387 N 
ATOM     16  H   UNL     1       0.356  -1.151   1.861  0.00  0.00    -0.084 HD
ATOM     17  H   UNL     1       1.373   0.114   2.144  0.00  0.00    -0.084 HD
BRANCH  15  18
ATOM     18  C   UNL     1      -0.526   0.417   2.825  0.00  0.00    -0.073 C 
ATOM     19  C   UNL     1      -0.542   1.942   2.697  0.00  0.00    -0.010 C 
ATOM     20  C   UNL     1      -1.922  -0.135   2.526  0.00  0.00    -0.010 C 
BRANCH  18  21
ATOM     21  C   UNL     1      -0.119   0.029   4.248  0.00  0.00    -0.007 C 
BRANCH  21  22
ATOM     22  C   UNL     1       0.304  -1.441   4.275  0.00  0.00    -0.039 C 
ATOM     23  C   UNL     1       1.688  -1.585   3.640  0.00  0.00    +0.010 C 
ATOM     24  C   UNL     1       0.353  -1.931   5.723  0.00  0.00    +0.010 C 
ATOM     25  C   UNL     1      -0.708  -2.277   3.487  0.00  0.00    +0.010 C 
ENDBRANCH  21  22
ENDBRANCH  18  21
ENDBRANCH  15  18
ENDBRANCH   2  15
TORSDOF 7
