REMARK  Name = ZINC10281525
REMARK  8 active torsions:
REMARK  status: ('A' for Active; 'I' for Inactive)
REMARK    1  A    between atoms: C_1  and  C_2
REMARK    2  A    between atoms: C_2  and  C_4
REMARK    3  A    between atoms: C_2  and  N_12
REMARK    4  A    between atoms: N_15  and  C_16
REMARK    5  A    between atoms: C_16  and  C_18
REMARK    6  A    between atoms: C_16  and  C_28
REMARK    7  A    between atoms: C_28  and  C_29
REMARK    8  A    between atoms: C_28  and  C_30
REMARK                            x       y       z     vdW  Elec       q    Type
REMARK                         _______ _______ _______ _____ _____    ______ ____
ROOT
ATOM      1  N   UNL     1       0.711  -0.489   1.189  0.00  0.00    -0.293 N 
ATOM      2  C   UNL     1       2.054  -0.600   1.174  0.00  0.00    +0.301 C 
ATOM      3  O   UNL     1       2.677  -0.297   0.175  0.00  0.00    -0.253 OA
ATOM      4  N   UNL     1       2.706  -1.046   2.266  0.00  0.00    -0.292 N 
ATOM      5  H   UNL     1       0.213  -0.731   1.986  0.00  0.00    +0.151 HD
ATOM      6  H   UNL     1       2.208  -1.288   3.062  0.00  0.00    +0.151 HD
ENDROOT
BRANCH   1   8
ATOM      7  C   UNL     1      -0.019   1.526   0.010  0.00  0.00    +0.033 C 
ATOM      8  C   UNL     1       0.002  -0.004   0.002  0.00  0.00    +0.104 C 
BRANCH   8   9
ATOM      9  C   UNL     1      -1.412  -0.526   0.013  0.00  0.00    +0.008 A 
ATOM     10  C   UNL     1      -2.014  -0.864   1.210  0.00  0.00    +0.011 A 
ATOM     11  C   UNL     1      -3.311  -1.342   1.221  0.00  0.00    +0.039 A 
ATOM     12  C   UNL     1      -4.008  -1.483   0.033  0.00  0.00    +0.126 A 
ATOM     13  C   UNL     1      -3.405  -1.145  -1.166  0.00  0.00    +0.077 A 
ATOM     14  C   UNL     1      -2.108  -0.661  -1.176  0.00  0.00    +0.131 A 
ATOM     15  F   UNL     1      -1.521  -0.325  -2.345  0.00  0.00    -0.205 F 
ATOM     16  F   UNL     1      -5.275  -1.951   0.044  0.00  0.00    -0.205 F 
ENDBRANCH   8   9
ENDBRANCH   1   8
BRANCH   4  17
ATOM     17  C   UNL     1       4.166  -1.166   2.249  0.00  0.00    +0.107 C 
BRANCH  17  18
ATOM     18  C   UNL     1       4.693  -1.075   3.658  0.00  0.00    -0.023 A 
ATOM     19  C   UNL     1       4.019  -1.704   4.689  0.00  0.00    +0.009 A 
ATOM     20  C   UNL     1       4.499  -1.621   5.982  0.00  0.00    +0.050 A 
ATOM     21  C   UNL     1       5.659  -0.909   6.249  0.00  0.00    +0.162 A 
ATOM     22  C   UNL     1       6.337  -0.280   5.213  0.00  0.00    +0.162 A 
ATOM     23  C   UNL     1       5.853  -0.369   3.916  0.00  0.00    +0.055 A 
ATOM     24  O   UNL     1       7.481   0.418   5.451  0.00  0.00    -0.485 OA
ATOM     25  C   UNL     1       7.735   0.793   6.810  0.00  0.00    +0.270 C 
ATOM     26  C   UNL     1       7.479  -0.430   7.701  0.00  0.00    +0.270 C 
ATOM     27  O   UNL     1       6.117  -0.834   7.529  0.00  0.00    -0.485 OA
ENDBRANCH  17  18
BRANCH  17  28
ATOM     28  C   UNL     1       4.560  -2.515   1.643  0.00  0.00    +0.008 C 
ATOM     29  C   UNL     1       4.024  -2.607   0.213  0.00  0.00    +0.009 C 
ATOM     30  C   UNL     1       6.084  -2.640   1.626  0.00  0.00    +0.009 C 
ENDBRANCH  17  28
ENDBRANCH   4  17
TORSDOF 5
