REMARK  Name = ZINC19221963
REMARK  6 active torsions:
REMARK  status: ('A' for Active; 'I' for Inactive)
REMARK    1  A    between atoms: C_1  and  C_2
REMARK    2  A    between atoms: C_7  and  C_14
REMARK    3  A    between atoms: C_14  and  C_16
REMARK    4  A    between atoms: C_14  and  N_27
REMARK    5  A    between atoms: N_20  and  C_21
REMARK    6  A    between atoms: N_30  and  C_33
REMARK                            x       y       z     vdW  Elec       q    Type
REMARK                         _______ _______ _______ _____ _____    ______ ____
ROOT
ATOM      1  C   UNL     1      -2.490   0.996   0.018  0.00  0.00    +0.162 C 
ENDROOT
BRANCH   1   8
ATOM      2  C   UNL     1       4.845   4.127  -0.023  0.00  0.00    +0.044 C 
ATOM      3  C   UNL     1       3.567   3.329  -0.015  0.00  0.00    -0.048 A 
ATOM      4  C   UNL     1       3.624   1.941  -0.023  0.00  0.00    +0.004 A 
ATOM      5  C   UNL     1       2.478   1.199  -0.016  0.00  0.00    +0.010 A 
ATOM      6  C   UNL     1       1.236   1.841   0.000  0.00  0.00    -0.001 A 
ATOM      7  C   UNL     1      -0.013   1.076   0.008  0.00  0.00    +0.021 A 
ATOM      8  C   UNL     1      -1.187   1.753   0.017  0.00  0.00    +0.042 A 
ATOM      9  C   UNL     1      -1.194   3.164   0.029  0.00  0.00    +0.254 A 
ATOM     10  O   UNL     1      -2.261   3.753   0.042  0.00  0.00    -0.268 OA
ATOM     11  N   UNL     1      -0.053   3.875   0.023  0.00  0.00    -0.322 N 
ATOM     12  H   UNL     1      -0.090   4.975   0.030  0.00  0.00    +0.169 HD
ATOM     13  C   UNL     1       1.174   3.247   0.008  0.00  0.00    +0.049 A 
ATOM     14  C   UNL     1       2.355   3.983   0.000  0.00  0.00    +0.029 A 
ENDBRANCH   1   8
BRANCH   1  15
ATOM     15  N   UNL     1      -3.308   1.430   1.159  0.00  0.00    -0.292 NA
ATOM     16  C   UNL     1      -2.579   1.261   2.424  0.00  0.00    +0.067 C 
ATOM     17  C   UNL     1      -3.432   1.797   3.577  0.00  0.00    -0.063 C 
ATOM     18  N   UNL     1      -4.713   1.078   3.610  0.00  0.00    +0.383 N 
ATOM     19  C   UNL     1      -5.442   1.247   2.345  0.00  0.00    -0.063 C 
ATOM     20  C   UNL     1      -4.589   0.711   1.193  0.00  0.00    +0.067 C 
ATOM     21  H   UNL     1      -4.498   0.007   3.738  0.00  0.00    -0.081 HD
BRANCH  18  22
ATOM     22  C   UNL     1      -5.530   1.512   4.751  0.00  0.00    -0.068 C 
ATOM     23  C   UNL     1      -5.891   2.990   4.587  0.00  0.00    -0.015 C 
ATOM     24  C   UNL     1      -6.743   3.442   5.775  0.00  0.00    -0.002 C 
ATOM     25  C   UNL     1      -5.952   3.251   7.071  0.00  0.00    -0.000 C 
ATOM     26  C   UNL     1      -5.591   1.774   7.235  0.00  0.00    -0.002 C 
ATOM     27  C   UNL     1      -4.740   1.321   6.047  0.00  0.00    -0.015 C 
ENDBRANCH  18  22
ENDBRANCH   1  15
BRANCH   1  28
ATOM     28  C   UNL     1      -3.232   1.270  -1.264  0.00  0.00    +0.173 A 
ATOM     29  N   UNL     1      -3.881   2.366  -1.574  0.00  0.00    -0.111 NA
ATOM     30  N   UNL     1      -4.376   2.215  -2.754  0.00  0.00    -0.023 NA
ATOM     31  N   UNL     1      -4.067   1.048  -3.201  0.00  0.00    -0.044 NA
ATOM     32  N   UNL     1      -3.362   0.434  -2.312  0.00  0.00    -0.224 N 
BRANCH  32  33
ATOM     33  C   UNL     1      -2.807  -0.917  -2.421  0.00  0.00    +0.111 C 
ATOM     34  C   UNL     1      -1.860  -0.984  -3.621  0.00  0.00    +0.027 C 
ATOM     35  C   UNL     1      -1.280  -2.395  -3.735  0.00  0.00    +0.002 C 
ATOM     36  C   UNL     1      -2.418  -3.400  -3.927  0.00  0.00    +0.000 C 
ATOM     37  C   UNL     1      -3.365  -3.333  -2.728  0.00  0.00    +0.002 C 
ATOM     38  C   UNL     1      -3.945  -1.921  -2.613  0.00  0.00    +0.027 C 
ENDBRANCH  32  33
ENDBRANCH   1  28
TORSDOF 5
