REMARK  Name = ZINC42252710
REMARK  4 active torsions:
REMARK  status: ('A' for Active; 'I' for Inactive)
REMARK    1  A    between atoms: C_3  and  N_11
REMARK    2  A    between atoms: C_4  and  N_8
REMARK    3  A    between atoms: C_14  and  C_17
REMARK    4  A    between atoms: C_17  and  C_18
REMARK                            x       y       z     vdW  Elec       q    Type
REMARK                         _______ _______ _______ _____ _____    ______ ____
ROOT
ATOM      1  N   UNL     1       3.582   2.123  -0.021  0.00  0.00    -0.328 N 
ATOM      2  C   UNL     1       4.210   2.517  -1.290  0.00  0.00    +0.105 C 
ATOM      3  C   UNL     1       4.467   4.027  -1.265  0.00  0.00    +0.023 C 
ATOM      4  C   UNL     1       5.286   4.381  -0.021  0.00  0.00    +0.001 C 
ATOM      5  C   UNL     1       4.498   4.004   1.235  0.00  0.00    +0.023 C 
ATOM      6  C   UNL     1       4.238   2.499   1.239  0.00  0.00    +0.105 C 
ENDROOT
BRANCH   1   9
ATOM      7  C   UNL     1      -0.017   1.379   0.010  0.00  0.00    +0.017 A 
ATOM      8  C   UNL     1       1.169   2.087   0.002  0.00  0.00    +0.026 A 
ATOM      9  C   UNL     1       2.381   1.409  -0.013  0.00  0.00    +0.060 A 
ATOM     10  C   UNL     1       2.397   0.020  -0.021  0.00  0.00    +0.148 A 
ATOM     11  C   UNL     1       1.208  -0.682  -0.013  0.00  0.00    +0.050 A 
ATOM     12  C   UNL     1       0.002  -0.004   0.002  0.00  0.00    +0.020 A 
ATOM     13 BR   UNL     1      -1.624  -0.970   0.013  0.00  0.00    -0.050 Br
BRANCH  10  14
ATOM     14  N   UNL     1       3.687  -0.706  -0.037  0.00  0.00    +0.058 N 
ATOM     15  O   UNL     1       3.699  -1.915  -0.044  0.00  0.00    -0.126 OA
ATOM     16  O   UNL     1       4.727  -0.090  -0.044  0.00  0.00    -0.126 OA
ENDBRANCH  10  14
ENDBRANCH   1   9
BRANCH   4  17
ATOM     17  C   UNL     1       5.574   5.883  -0.011  0.00  0.00    +0.099 C 
BRANCH  17  18
ATOM     18  C   UNL     1       6.482   6.213   1.145  0.00  0.00    +0.211 C 
ATOM     19  O   UNL     1       6.862   5.333   1.888  0.00  0.00    -0.276 OA
ATOM     20  N   UNL     1       6.872   7.486   1.354  0.00  0.00    -0.329 N 
ATOM     21  H   UNL     1       6.569   8.190   0.760  0.00  0.00    +0.145 HD
ATOM     22  H   UNL     1       7.457   7.698   2.099  0.00  0.00    +0.145 HD
ENDBRANCH  17  18
ENDBRANCH   4  17
TORSDOF 4
