REMARK  Name = ZINC05662039
REMARK  6 active torsions:
REMARK  status: ('A' for Active; 'I' for Inactive)
REMARK    1  A    between atoms: C_1  and  O_2
REMARK    2  A    between atoms: O_2  and  C_3
REMARK    3  A    between atoms: C_7  and  C_10
REMARK    4  A    between atoms: C_8  and  O_9
REMARK    5  A    between atoms: N_11  and  N_12
REMARK    6  A    between atoms: N_23  and  C_24
REMARK                            x       y       z     vdW  Elec       q    Type
REMARK                         _______ _______ _______ _____ _____    ______ ____
ROOT
ATOM      1  N   UNL     1      -1.388  -6.373   1.016  0.00  0.00    -0.206 N 
ATOM      2  C   UNL     1      -0.308  -7.051   0.507  0.00  0.00    +0.223 A 
ATOM      3  N   UNL     1       0.842  -6.429   0.435  0.00  0.00    -0.214 NA
ATOM      4  C   UNL     1       1.944  -7.034  -0.054  0.00  0.00    +0.080 A 
ATOM      5  C   UNL     1       3.171  -6.370  -0.130  0.00  0.00    +0.028 A 
ATOM      6  C   UNL     1       4.263  -7.021  -0.632  0.00  0.00    +0.002 A 
ATOM      7  C   UNL     1       4.172  -8.336  -1.069  0.00  0.00    +0.001 A 
ATOM      8  C   UNL     1       2.985  -9.013  -1.008  0.00  0.00    +0.015 A 
ATOM      9  C   UNL     1       1.855  -8.373  -0.499  0.00  0.00    +0.065 A 
ATOM     10  C   UNL     1       0.555  -9.050  -0.409  0.00  0.00    +0.267 A 
ATOM     11  O   UNL     1       0.416 -10.202  -0.777  0.00  0.00    -0.267 OA
ATOM     12  N   UNL     1      -0.481  -8.347   0.104  0.00  0.00    -0.247 N 
ATOM     13  H   UNL     1      -2.266  -6.786   1.011  0.00  0.00    +0.177 HD
ENDROOT
BRANCH  12  14
ATOM     14  C   UNL     1      -1.742  -8.948   0.217  0.00  0.00    +0.053 A 
ATOM     15  C   UNL     1      -2.645  -8.873  -0.834  0.00  0.00    +0.026 A 
ATOM     16  C   UNL     1      -3.887  -9.467  -0.720  0.00  0.00    +0.002 A 
ATOM     17  C   UNL     1      -4.231 -10.135   0.441  0.00  0.00    +0.000 A 
ATOM     18  C   UNL     1      -3.333 -10.211   1.490  0.00  0.00    +0.002 A 
ATOM     19  C   UNL     1      -2.088  -9.624   1.380  0.00  0.00    +0.026 A 
ENDBRANCH  12  14
BRANCH   1  21
ATOM     20  C   UNL     1      -2.244  -4.445   2.023  0.00  0.00    +0.142 C 
ATOM     21  N   UNL     1      -1.222  -5.086   1.542  0.00  0.00    -0.187 NA
BRANCH  20  26
ATOM     22  C   UNL     1      -0.650  -1.214   3.112  0.00  0.00    +0.162 A 
ATOM     23  C   UNL     1      -1.748  -0.539   3.623  0.00  0.00    +0.049 A 
ATOM     24  C   UNL     1      -2.999  -1.130   3.614  0.00  0.00    +0.004 A 
ATOM     25  C   UNL     1      -3.166  -2.397   3.096  0.00  0.00    +0.013 A 
ATOM     26  C   UNL     1      -2.069  -3.090   2.577  0.00  0.00    +0.040 A 
ATOM     27  C   UNL     1      -0.805  -2.489   2.581  0.00  0.00    +0.167 A 
BRANCH  22  29
ATOM     28  C   UNL     1       0.662   0.685   3.685  0.00  0.00    +0.277 C 
ATOM     29  O   UNL     1       0.576  -0.627   3.124  0.00  0.00    -0.491 OA
ENDBRANCH  22  29
BRANCH  27  30
ATOM     30  O   UNL     1       0.268  -3.152   2.074  0.00  0.00    -0.503 OA
ATOM     31  H   UNL     1       0.738  -3.694   2.722  0.00  0.00    +0.292 HD
ENDBRANCH  27  30
ENDBRANCH  20  26
ENDBRANCH   1  21
TORSDOF 5
