REMARK  Name = ZINC59133959
REMARK  6 active torsions:
REMARK  status: ('A' for Active; 'I' for Inactive)
REMARK    1  A    between atoms: C_6  and  C_7
REMARK    2  A    between atoms: C_7  and  C_9
REMARK    3  A    between atoms: C_9  and  C_10
REMARK    4  A    between atoms: C_10  and  S_11
REMARK    5  A    between atoms: S_11  and  C_12
REMARK    6  A    between atoms: C_15  and  N_18
REMARK                            x       y       z     vdW  Elec       q    Type
REMARK                         _______ _______ _______ _____ _____    ______ ____
ROOT
ATOM      1  C   UNL     1      -2.669  -2.801   0.013  0.00  0.00    +0.082 C 
ENDROOT
BRANCH   1   2
ATOM      2  C   UNL     1      -1.235  -2.267   0.002  0.00  0.00    +0.090 C 
BRANCH   2   3
ATOM      3  C   UNL     1      -1.260  -0.760   0.011  0.00  0.00    +0.164 C 
ATOM      4  O   UNL     1      -2.320  -0.171   0.024  0.00  0.00    -0.292 OA
BRANCH   3  10
ATOM      5  C   UNL     1      -0.017   1.395   0.010  0.00  0.00    +0.012 A 
ATOM      6  C   UNL     1       1.169   2.097   0.002  0.00  0.00    +0.016 A 
ATOM      7  C   UNL     1       2.378   1.420  -0.013  0.00  0.00    +0.018 A 
ATOM      8  C   UNL     1       2.405   0.035  -0.021  0.00  0.00    +0.016 A 
ATOM      9  C   UNL     1       1.227  -0.680  -0.014  0.00  0.00    +0.012 A 
ATOM     10  C   UNL     1       0.002  -0.004   0.002  0.00  0.00    +0.017 A 
ATOM     11 BR   UNL     1       4.000   2.393  -0.025  0.00  0.00    -0.050 Br
ENDBRANCH   3  10
ENDBRANCH   2   3
ENDBRANCH   1   2
BRANCH   1  12
ATOM     12  S   UNL     1      -2.639  -4.614   0.004  0.00  0.00    -0.125 S 
BRANCH  12  13
ATOM     13  C   UNL     1      -4.342  -5.069   0.018  0.00  0.00    +0.008 A 
ATOM     14  C   UNL     1      -5.325  -4.086   0.027  0.00  0.00    +0.017 A 
ATOM     15  C   UNL     1      -6.658  -4.446   0.039  0.00  0.00    +0.034 A 
ATOM     16  C   UNL     1      -7.015  -5.782   0.041  0.00  0.00    +0.126 A 
ATOM     17  C   UNL     1      -6.040  -6.763   0.032  0.00  0.00    +0.034 A 
ATOM     18  C   UNL     1      -4.705  -6.410   0.014  0.00  0.00    +0.017 A 
BRANCH  16  19
ATOM     19  N   UNL     1      -8.445  -6.164   0.053  0.00  0.00    +0.056 N 
ATOM     20  O   UNL     1      -9.299  -5.308   0.061  0.00  0.00    -0.126 OA
ATOM     21  O   UNL     1      -8.759  -7.331   0.055  0.00  0.00    -0.126 OA
ENDBRANCH  16  19
ENDBRANCH  12  13
ENDBRANCH   1  12
TORSDOF 6
