REMARK  Name = ZINC31854562
REMARK  6 active torsions:
REMARK  status: ('A' for Active; 'I' for Inactive)
REMARK    1  A    between atoms: C_1  and  O_2
REMARK    2  A    between atoms: O_2  and  C_3
REMARK    3  A    between atoms: C_5  and  C_11
REMARK    4  A    between atoms: C_8  and  O_9
REMARK    5  A    between atoms: N_12  and  N_13
REMARK    6  A    between atoms: C_16  and  C_19
REMARK                            x       y       z     vdW  Elec       q    Type
REMARK                         _______ _______ _______ _____ _____    ______ ____
ROOT
ATOM      1  N   UNL     1      -6.054  -1.779  -0.054  0.00  0.00    -0.215 N 
ATOM      2  C   UNL     1      -7.262  -2.425  -0.254  0.00  0.00    +0.178 A 
ATOM      3  N   UNL     1      -7.522  -3.720  -0.286  0.00  0.00    -0.224 NA
ATOM      4  C   UNL     1      -8.752  -4.169  -0.491  0.00  0.00    +0.082 A 
ATOM      5  C   UNL     1      -9.770  -3.276  -0.673  0.00  0.00    +0.077 A 
ATOM      6  S   UNL     1      -8.885  -1.729  -0.530  0.00  0.00    -0.059 S 
ATOM      7  H   UNL     1      -5.245  -2.295   0.085  0.00  0.00    +0.176 HD
ENDROOT
BRANCH   4   8
ATOM      8  C   UNL     1      -9.020  -5.627  -0.523  0.00  0.00    +0.019 A 
ATOM      9  C   UNL     1     -10.314  -6.095  -0.746  0.00  0.00    +0.013 A 
ATOM     10  C   UNL     1     -10.559  -7.453  -0.775  0.00  0.00    +0.021 A 
ATOM     11  C   UNL     1      -9.522  -8.351  -0.584  0.00  0.00    +0.042 A 
ATOM     12  C   UNL     1      -8.235  -7.892  -0.362  0.00  0.00    +0.040 A 
ATOM     13  C   UNL     1      -7.978  -6.535  -0.336  0.00  0.00    +0.052 A 
ATOM     14 CL   UNL     1      -6.362  -5.961  -0.065  0.00  0.00    -0.083 Cl
ATOM     15 CL   UNL     1      -9.837 -10.057  -0.622  0.00  0.00    -0.083 Cl
ENDBRANCH   4   8
BRANCH   1  17
ATOM     16  C   UNL     1      -4.853   0.227   0.008  0.00  0.00    +0.138 C 
ATOM     17  N   UNL     1      -6.000  -0.379  -0.052  0.00  0.00    -0.188 NA
BRANCH  16  20
ATOM     18  C   UNL     1      -1.239  -0.585  -0.608  0.00  0.00    +0.163 A 
ATOM     19  C   UNL     1      -2.376   0.051  -0.146  0.00  0.00    +0.059 A 
ATOM     20  C   UNL     1      -3.637  -0.447  -0.482  0.00  0.00    -0.001 A 
ATOM     21  C   UNL     1      -3.743  -1.586  -1.285  0.00  0.00    +0.028 A 
ATOM     22  C   UNL     1      -2.604  -2.215  -1.743  0.00  0.00    +0.063 A 
ATOM     23  C   UNL     1      -1.351  -1.716  -1.413  0.00  0.00    +0.173 A 
ATOM     24 BR   UNL     1      -2.748  -3.756  -2.829  0.00  0.00    -0.046 Br
BRANCH  18  26
ATOM     25  C   UNL     1       0.031   1.062   0.546  0.00  0.00    +0.277 C 
ATOM     26  O   UNL     1      -0.010  -0.102  -0.282  0.00  0.00    -0.491 OA
ENDBRANCH  18  26
BRANCH  23  27
ATOM     27  O   UNL     1      -0.232  -2.336  -1.871  0.00  0.00    -0.503 OA
ATOM     28  H   UNL     1       0.103  -3.028  -1.284  0.00  0.00    +0.292 HD
ENDBRANCH  23  27
ENDBRANCH  16  20
ENDBRANCH   1  17
TORSDOF 5
