REMARK  Name = ZINC23624731
REMARK  5 active torsions:
REMARK  status: ('A' for Active; 'I' for Inactive)
REMARK    1  A    between atoms: C_1  and  C_2
REMARK    2  A    between atoms: N_11  and  C_15
REMARK    3  A    between atoms: C_15  and  C_16
REMARK    4  A    between atoms: N_21  and  C_24
REMARK    5  A    between atoms: C_24  and  C_25
REMARK                            x       y       z     vdW  Elec       q    Type
REMARK                         _______ _______ _______ _____ _____    ______ ____
ROOT
ATOM      1  C   UNL     1      -2.950   1.351   1.441  0.00  0.00    +0.234 C 
ATOM      2  O   UNL     1      -2.203   1.606   2.362  0.00  0.00    -0.274 OA
ATOM      3  N   UNL     1      -4.200   0.911   1.689  0.00  0.00    -0.298 N 
ATOM      4  C   UNL     1      -5.124   0.601   0.588  0.00  0.00    +0.123 C 
ATOM      5  C   UNL     1      -5.695  -0.807   0.819  0.00  0.00    +0.104 C 
ATOM      6  N   UNL     1      -6.285  -0.876   2.162  0.00  0.00    -0.294 NA
ATOM      7  C   UNL     1      -5.268  -0.674   3.203  0.00  0.00    +0.104 C 
ATOM      8  C   UNL     1      -4.678   0.733   3.069  0.00  0.00    +0.123 C 
ENDROOT
BRANCH   1   9
ATOM      9  C   UNL     1      -2.482   1.526   0.020  0.00  0.00    +0.213 C 
BRANCH   9  19
ATOM     10  C   UNL     1       1.115   2.130  -2.491  0.00  0.00    +0.010 C 
ATOM     11  C   UNL     1       2.005   1.934  -1.261  0.00  0.00    +0.018 C 
ATOM     12  C   UNL     1       2.582   0.517  -1.270  0.00  0.00    +0.006 C 
ATOM     13  C   UNL     1       3.455   0.315  -0.029  0.00  0.00    +0.000 C 
ATOM     14  C   UNL     1       2.606   0.503   1.230  0.00  0.00    +0.003 C 
ATOM     15  C   UNL     1       2.028   1.921   1.248  0.00  0.00    +0.035 C 
ATOM     16  C   UNL     1       1.176   2.139   0.002  0.00  0.00    +0.115 C 
ATOM     17  C   UNL     1      -0.014   1.208   0.009  0.00  0.00    +0.247 C 
ATOM     18  O   UNL     1       0.002  -0.004   0.002  0.00  0.00    -0.273 OA
ATOM     19  N   UNL     1      -1.099   2.010   0.017  0.00  0.00    -0.215 N 
ATOM     20  C   UNL     1      -0.755   3.304   0.027  0.00  0.00    +0.310 C 
ATOM     21  O   UNL     1      -1.558   4.216   0.039  0.00  0.00    -0.252 OA
ATOM     22  N   UNL     1       0.580   3.481   0.015  0.00  0.00    -0.285 N 
ATOM     23  H   UNL     1       1.226   4.371   0.014  0.00  0.00    +0.151 HD
ENDBRANCH   9  19
ENDBRANCH   1   9
BRANCH   6  24
ATOM     24  C   UNL     1      -6.996  -2.146   2.360  0.00  0.00    +0.140 C 
BRANCH  24  25
ATOM     25  C   UNL     1      -8.184  -2.206   1.435  0.00  0.00    +0.063 A 
ATOM     26  C   UNL     1      -8.240  -3.144   0.426  0.00  0.00    +0.095 A 
ATOM     27  C   UNL     1      -9.351  -3.188  -0.418  0.00  0.00    +0.259 A 
ATOM     28  O   UNL     1      -9.408  -4.019  -1.310  0.00  0.00    -0.267 OA
ATOM     29  N   UNL     1     -10.371  -2.295  -0.248  0.00  0.00    -0.262 N 
ATOM     30  C   UNL     1     -11.521  -2.208  -0.996  0.00  0.00    +0.104 A 
ATOM     31  C   UNL     1     -12.447  -1.288  -0.730  0.00  0.00    +0.067 A 
ATOM     32  S   UNL     1     -11.728  -0.438   0.666  0.00  0.00    -0.058 S 
ATOM     33  C   UNL     1     -10.232  -1.395   0.775  0.00  0.00    +0.180 A 
ATOM     34  N   UNL     1      -9.195  -1.352   1.574  0.00  0.00    -0.226 NA
ENDBRANCH  24  25
ENDBRANCH   6  24
TORSDOF 4
