REMARK  Name = ZINC63588796
REMARK  7 active torsions:
REMARK  status: ('A' for Active; 'I' for Inactive)
REMARK    1  A    between atoms: C_1  and  C_2
REMARK    2  A    between atoms: C_6  and  N_8
REMARK    3  A    between atoms: N_10  and  C_11
REMARK    4  A    between atoms: C_11  and  C_12
REMARK    5  A    between atoms: C_12  and  C_13
REMARK    6  A    between atoms: N_22  and  C_23
REMARK    7  A    between atoms: C_23  and  C_25
REMARK                            x       y       z     vdW  Elec       q    Type
REMARK                         _______ _______ _______ _____ _____    ______ ____
ROOT
ATOM      1  N   UNL     1       0.082  -3.154   2.021  0.00  0.00    -0.328 N 
ATOM      2  C   UNL     1       0.093  -4.480   2.348  0.00  0.00    +0.194 C 
ATOM      3  N   UNL     1       0.235  -4.860   3.650  0.00  0.00    -0.357 N 
ATOM      4  N   UNL     1      -0.035  -5.396   1.400  0.00  0.00    -0.143 NA
ATOM      5  H   UNL     1       0.573  -5.744   3.863  0.00  0.00    +0.162 HD
ATOM      6  H   UNL     1      -0.581  -2.813   1.401  0.00  0.00    +0.169 HD
ENDROOT
BRANCH   1  12
ATOM      7  C   UNL     1       1.334   1.369   3.485  0.00  0.00    +0.044 C 
ATOM      8  C   UNL     1       1.661  -0.091   3.303  0.00  0.00    -0.049 A 
ATOM      9  C   UNL     1       2.897  -0.576   3.689  0.00  0.00    +0.003 A 
ATOM     10  C   UNL     1       3.201  -1.915   3.523  0.00  0.00    +0.002 A 
ATOM     11  C   UNL     1       2.269  -2.772   2.970  0.00  0.00    +0.026 A 
ATOM     12  C   UNL     1       1.027  -2.288   2.581  0.00  0.00    +0.042 A 
ATOM     13  C   UNL     1       0.724  -0.944   2.754  0.00  0.00    +0.029 A 
ENDBRANCH   1  12
BRANCH   4  14
ATOM     14  C   UNL     1      -0.223  -5.022   0.127  0.00  0.00    +0.272 C 
ATOM     15  O   UNL     1      -0.184  -3.842  -0.173  0.00  0.00    -0.268 OA
BRANCH  14  16
ATOM     16  C   UNL     1      -0.476  -6.043  -0.914  0.00  0.00    +0.057 A 
ATOM     17  C   UNL     1      -0.635  -7.383  -0.559  0.00  0.00    +0.014 A 
ATOM     18  C   UNL     1      -0.871  -8.329  -1.534  0.00  0.00    +0.001 A 
ATOM     19  C   UNL     1      -0.952  -7.952  -2.864  0.00  0.00    +0.001 A 
ATOM     20  C   UNL     1      -0.796  -6.627  -3.224  0.00  0.00    +0.021 A 
ATOM     21  C   UNL     1      -0.564  -5.668  -2.256  0.00  0.00    +0.053 A 
ATOM     22 CL   UNL     1      -0.377  -4.003  -2.709  0.00  0.00    -0.083 Cl
ENDBRANCH  14  16
ENDBRANCH   4  14
BRANCH   3  23
ATOM     23  C   UNL     1      -0.123  -3.934   4.727  0.00  0.00    +0.120 C 
BRANCH  23  24
ATOM     24  C   UNL     1       0.236  -4.558   6.077  0.00  0.00    +0.054 C 
BRANCH  24  25
ATOM     25  C   UNL     1      -0.242  -3.661   7.189  0.00  0.00    -0.040 C 
ATOM     26  C   UNL     1      -1.433  -3.721   7.827  0.00  0.00    -0.001 A 
ATOM     27  C   UNL     1      -2.595  -4.606   7.681  0.00  0.00    +0.010 A 
ATOM     28  C   UNL     1      -3.669  -4.417   8.482  0.00  0.00    +0.001 A 
ATOM     29  C   UNL     1      -3.699  -3.398   9.445  0.00  0.00    +0.002 A 
ATOM     30  C   UNL     1      -2.670  -2.546   9.638  0.00  0.00    +0.026 A 
ATOM     31  C   UNL     1      -1.490  -2.654   8.851  0.00  0.00    +0.043 A 
ATOM     32  N   UNL     1      -0.378  -1.961   8.847  0.00  0.00    -0.380 N 
ATOM     33  C   UNL     1       0.514  -2.514   7.822  0.00  0.00    +0.144 C 
ATOM     34  H   UNL     1      -0.176  -1.210   9.426  0.00  0.00    +0.160 HD
ENDBRANCH  24  25
ENDBRANCH  23  24
ENDBRANCH   3  23
TORSDOF 6
