REMARK  Name = ZINC13591988
REMARK  5 active torsions:
REMARK  status: ('A' for Active; 'I' for Inactive)
REMARK    1  A    between atoms: C_1  and  N_2
REMARK    2  A    between atoms: C_4  and  C_27
REMARK    3  A    between atoms: C_6  and  C_18
REMARK    4  A    between atoms: C_18  and  C_20
REMARK    5  A    between atoms: C_31  and  N_33
REMARK                            x       y       z     vdW  Elec       q    Type
REMARK                         _______ _______ _______ _____ _____    ______ ____
ROOT
ATOM      1  C   UNL     1      -0.007   1.485   0.042  0.00  0.00    +0.106 C 
ATOM      2  N   UNL     1       0.023   0.016   0.021  0.00  0.00    -0.287 NA
ATOM      3  C   UNL     1      -1.348  -0.542  -0.008  0.00  0.00    +0.094 C 
ATOM      4  C   UNL     1      -1.258  -1.855   0.810  0.00  0.00    +0.046 C 
ATOM      5  C   UNL     1      -0.256  -1.462   1.929  0.00  0.00    +0.103 C 
ATOM      6  C   UNL     1       0.711  -0.513   1.204  0.00  0.00    +0.136 C 
ATOM      7  C   UNL     1       1.979  -1.230   0.826  0.00  0.00    +0.004 A 
ATOM      8  C   UNL     1       2.247  -2.316   0.023  0.00  0.00    +0.008 A 
ATOM      9  C   UNL     1       3.550  -2.755  -0.134  0.00  0.00    +0.000 A 
ATOM     10  C   UNL     1       4.580  -2.102   0.518  0.00  0.00    +0.002 A 
ATOM     11  C   UNL     1       4.316  -1.014   1.323  0.00  0.00    +0.023 A 
ATOM     12  C   UNL     1       3.007  -0.564   1.486  0.00  0.00    +0.039 A 
ATOM     13  N   UNL     1       2.493   0.498   2.233  0.00  0.00    -0.283 N 
ATOM     14  C   UNL     1       1.155   0.597   2.121  0.00  0.00    +0.243 C 
ATOM     15  O   UNL     1       0.444   1.421   2.655  0.00  0.00    -0.273 OA
ATOM     16  H   UNL     1       3.037   1.095   2.770  0.00  0.00    +0.155 HD
ENDROOT
BRANCH   4  17
ATOM     17  C   UNL     1      -2.600  -2.222   1.390  0.00  0.00    -0.040 A 
ATOM     18  C   UNL     1      -3.253  -1.341   2.231  0.00  0.00    +0.004 A 
ATOM     19  C   UNL     1      -4.484  -1.678   2.763  0.00  0.00    +0.002 A 
ATOM     20  C   UNL     1      -5.061  -2.896   2.454  0.00  0.00    +0.033 A 
ATOM     21  C   UNL     1      -4.408  -3.776   1.612  0.00  0.00    +0.126 A 
ATOM     22  C   UNL     1      -3.179  -3.438   1.077  0.00  0.00    +0.036 A 
BRANCH  21  23
ATOM     23  N   UNL     1      -5.025  -5.080   1.282  0.00  0.00    +0.056 N 
ATOM     24  O   UNL     1      -6.101  -5.375   1.748  0.00  0.00    -0.126 OA
ATOM     25  O   UNL     1      -4.454  -5.850   0.545  0.00  0.00    -0.126 OA
ENDBRANCH  21  23
ENDBRANCH   4  17
BRANCH   5  26
ATOM     26  C   UNL     1       0.470  -2.677   2.447  0.00  0.00    +0.169 C 
ATOM     27  O   UNL     1       0.578  -3.662   1.748  0.00  0.00    -0.292 OA
BRANCH  26  28
ATOM     28  C   UNL     1       1.047  -2.668   3.799  0.00  0.00    +0.018 A 
ATOM     29  C   UNL     1       0.919  -1.535   4.610  0.00  0.00    +0.014 A 
ATOM     30  C   UNL     1       1.462  -1.533   5.876  0.00  0.00    +0.039 A 
ATOM     31  C   UNL     1       2.135  -2.650   6.347  0.00  0.00    +0.123 A 
ATOM     32  C   UNL     1       2.265  -3.777   5.548  0.00  0.00    +0.039 A 
ATOM     33  C   UNL     1       1.722  -3.794   4.283  0.00  0.00    +0.014 A 
ATOM     34  F   UNL     1       2.666  -2.642   7.589  0.00  0.00    -0.205 F 
ENDBRANCH  26  28
ENDBRANCH   5  26
TORSDOF 4
