REMARK  Name = ZINC58549602
REMARK  7 active torsions:
REMARK  status: ('A' for Active; 'I' for Inactive)
REMARK    1  A    between atoms: C_1  and  C_2
REMARK    2  A    between atoms: N_16  and  C_17
REMARK    3  A    between atoms: C_17  and  C_18
REMARK    4  A    between atoms: N_20  and  C_21
REMARK    5  A    between atoms: N_20  and  C_26
REMARK    6  A    between atoms: C_21  and  C_22
REMARK    7  A    between atoms: C_22  and  C_23
REMARK                            x       y       z     vdW  Elec       q    Type
REMARK                         _______ _______ _______ _____ _____    ______ ____
ROOT
ATOM      1  C   UNL     1      -0.121   1.522  -0.019  0.00  0.00    -0.008 C 
ATOM      2  C   UNL     1       0.002  -0.003  -0.001  0.00  0.00    -0.040 C 
ATOM      3  C   UNL     1       0.605  -0.468  -1.300  0.00  0.00    -0.054 A 
ATOM      4  C   UNL     1       0.199   0.145  -2.476  0.00  0.00    +0.051 A 
ATOM      5  C   UNL     1       0.726  -0.254  -3.693  0.00  0.00    +0.162 A 
ATOM      6  C   UNL     1       1.668  -1.275  -3.734  0.00  0.00    +0.162 A 
ATOM      7  C   UNL     1       2.070  -1.885  -2.557  0.00  0.00    +0.053 A 
ATOM      8  C   UNL     1       1.540  -1.481  -1.342  0.00  0.00    -0.038 A 
ATOM      9  C   UNL     1       2.010  -2.160  -0.084  0.00  0.00    -0.019 C 
ATOM     10  C   UNL     1       2.087  -3.681  -0.313  0.00  0.00    +0.010 C 
ATOM     11  C   UNL     1       3.570  -3.935  -0.681  0.00  0.00    +0.001 C 
ATOM     12  C   UNL     1       4.326  -2.947   0.241  0.00  0.00    +0.001 C 
ATOM     13  C   UNL     1       3.430  -1.690   0.266  0.00  0.00    +0.010 C 
ATOM     14  C   UNL     1       1.061  -1.859   1.073  0.00  0.00    -0.066 C 
ATOM     15  N   UNL     1       0.840  -0.406   1.132  0.00  0.00    +0.390 N 
ATOM     16  O   UNL     1       2.203  -1.683  -4.918  0.00  0.00    -0.485 OA
ATOM     17  C   UNL     1       1.499  -1.303  -6.106  0.00  0.00    +0.270 C 
ATOM     18  C   UNL     1       1.136   0.184  -5.994  0.00  0.00    +0.270 C 
ATOM     19  O   UNL     1       0.313   0.359  -4.836  0.00  0.00    -0.485 OA
ATOM     20  H   UNL     1       1.726   0.073   1.084  0.00  0.00    -0.080 HD
ENDROOT
BRANCH  15  21
ATOM     21  C   UNL     1       0.163  -0.064   2.390  0.00  0.00    +0.020 C 
BRANCH  21  22
ATOM     22  C   UNL     1       1.089  -0.334   3.548  0.00  0.00    +0.203 C 
ATOM     23  O   UNL     1       2.241  -0.652   3.342  0.00  0.00    -0.277 OA
ATOM     24  N   UNL     1       0.636  -0.222   4.813  0.00  0.00    -0.272 N 
BRANCH  24  25
ATOM     25  C   UNL     1       1.465  -0.572   5.886  0.00  0.00    +0.036 A 
ATOM     26  C   UNL     1       1.754   0.361   6.874  0.00  0.00    +0.026 A 
ATOM     27  C   UNL     1       2.571   0.014   7.932  0.00  0.00    +0.040 A 
ATOM     28  C   UNL     1       3.103  -1.263   8.008  0.00  0.00    +0.124 A 
ATOM     29  C   UNL     1       2.815  -2.194   7.024  0.00  0.00    +0.040 A 
ATOM     30  C   UNL     1       1.993  -1.853   5.968  0.00  0.00    +0.026 A 
ATOM     31  F   UNL     1       3.903  -1.600   9.043  0.00  0.00    -0.205 F 
ENDBRANCH  24  25
BRANCH  24  32
ATOM     32  C   UNL     1      -0.722   0.265   5.065  0.00  0.00    +0.123 C 
BRANCH  32  33
ATOM     33  C   UNL     1      -1.691  -0.918   5.094  0.00  0.00    +0.115 C 
BRANCH  33  34
ATOM     34  C   UNL     1      -3.089  -0.417   5.353  0.00  0.00    +0.212 C 
ATOM     35  O   UNL     1      -3.290   0.770   5.500  0.00  0.00    -0.276 OA
ATOM     36  N   UNL     1      -4.115  -1.288   5.422  0.00  0.00    -0.329 N 
ATOM     37  H   UNL     1      -3.954  -2.237   5.305  0.00  0.00    +0.145 HD
ATOM     38  H   UNL     1      -5.015  -0.966   5.589  0.00  0.00    +0.145 HD
ENDBRANCH  33  34
ENDBRANCH  32  33
ENDBRANCH  24  32
ENDBRANCH  21  22
ENDBRANCH  15  21
TORSDOF 6
