REMARK  Name = ZINC65086473
REMARK  6 active torsions:
REMARK  status: ('A' for Active; 'I' for Inactive)
REMARK    1  A    between atoms: C_1  and  C_2
REMARK    2  A    between atoms: C_5  and  C_7
REMARK    3  A    between atoms: C_9  and  C_12
REMARK    4  A    between atoms: N_14  and  C_15
REMARK    5  A    between atoms: C_18  and  S_21
REMARK    6  A    between atoms: S_21  and  N_24
REMARK                            x       y       z     vdW  Elec       q    Type
REMARK                         _______ _______ _______ _____ _____    ______ ____
ROOT
ATOM      1  C   UNL     1       3.909  -6.258  -0.041  0.00  0.00    +0.267 C 
ATOM      2  O   UNL     1       4.114  -7.457  -0.041  0.00  0.00    -0.268 OA
ATOM      3  N   UNL     1       4.946  -5.397  -0.036  0.00  0.00    -0.280 N 
ATOM      4  H   UNL     1       4.785  -4.442  -0.103  0.00  0.00    +0.155 HD
ENDROOT
BRANCH   3   5
ATOM      5  C   UNL     1       6.255  -5.879   0.066  0.00  0.00    +0.034 A 
ATOM      6  C   UNL     1       7.209  -5.158   0.772  0.00  0.00    +0.025 A 
ATOM      7  C   UNL     1       8.501  -5.637   0.871  0.00  0.00    +0.030 A 
ATOM      8  C   UNL     1       8.844  -6.833   0.267  0.00  0.00    +0.105 A 
ATOM      9  C   UNL     1       7.897  -7.552  -0.438  0.00  0.00    +0.030 A 
ATOM     10  C   UNL     1       6.602  -7.082  -0.535  0.00  0.00    +0.025 A 
BRANCH   8  11
ATOM     11  S   UNL     1      10.493  -7.440   0.395  0.00  0.00    +0.056 S 
ATOM     12  O   UNL     1      10.695  -8.304  -0.715  0.00  0.00    -0.153 OA
ATOM     13  O   UNL     1      11.323  -6.314   0.644  0.00  0.00    -0.153 OA
BRANCH  11  14
ATOM     14  N   UNL     1      10.562  -8.388   1.751  0.00  0.00    -0.204 NA
ATOM     15  H   UNL     1       9.770  -8.511   2.297  0.00  0.00    +0.144 HD
ATOM     16  H   UNL     1      11.394  -8.820   1.999  0.00  0.00    +0.144 HD
ENDBRANCH  11  14
ENDBRANCH   8  11
ENDBRANCH   3   5
BRANCH   1  19
ATOM     17  C   UNL     1       1.037  -4.027  -0.049  0.00  0.00    +0.116 A 
ATOM     18  N   UNL     1       2.294  -4.441  -0.045  0.00  0.00    -0.234 NA
ATOM     19  C   UNL     1       2.528  -5.747  -0.045  0.00  0.00    +0.134 A 
ATOM     20  C   UNL     1       1.468  -6.613  -0.049  0.00  0.00    +0.080 A 
ATOM     21  S   UNL     1       0.145  -5.572  -0.046  0.00  0.00    -0.074 S 
BRANCH  17  26
ATOM     22  C   UNL     1      -0.017   1.504  -0.054  0.00  0.00    +0.051 C 
ATOM     23  C   UNL     1       0.003  -0.003  -0.052  0.00  0.00    -0.013 A 
ATOM     24  C   UNL     1      -1.043  -0.872  -0.050  0.00  0.00    +0.011 A 
ATOM     25  C   UNL     1      -0.791  -2.224  -0.050  0.00  0.00    +0.018 A 
ATOM     26  C   UNL     1       0.512  -2.652  -0.051  0.00  0.00    +0.045 A 
ATOM     27  S   UNL     1       1.406  -1.107  -0.059  0.00  0.00    -0.091 S 
ENDBRANCH  17  26
ENDBRANCH   1  19
TORSDOF 5
