REMARK  Name = ZINC08800747
REMARK  12 active torsions:
REMARK  status: ('A' for Active; 'I' for Inactive)
REMARK    1  A    between atoms: C_1  and  C_2
REMARK    2  A    between atoms: C_2  and  C_3
REMARK    3  A    between atoms: N_5  and  C_6
REMARK    4  A    between atoms: C_9  and  S_12
REMARK    5  A    between atoms: S_12  and  N_15
REMARK    6  A    between atoms: N_15  and  C_16
REMARK    7  A    between atoms: C_16  and  C_17
REMARK    8  A    between atoms: C_17  and  C_19
REMARK    9  A    between atoms: C_17  and  N_60
REMARK   10  A    between atoms: N_27  and  C_28
REMARK   11  A    between atoms: C_29  and  N_60
REMARK   12  A    between atoms: C_30  and  N_60
REMARK                            x       y       z     vdW  Elec       q    Type
REMARK                         _______ _______ _______ _____ _____    ______ ____
ROOT
ATOM      1  N   UNL     1      -4.234   6.005   1.737  0.00  0.00    -0.191 NA
ATOM      2  H   UNL     1      -4.719   6.768   2.089  0.00  0.00    +0.148 HD
ENDROOT
BRANCH   1   3
ATOM      3  S   UNL     1      -3.094   6.222   0.556  0.00  0.00    +0.058 S 
ATOM      4  O   UNL     1      -1.933   5.521   0.979  0.00  0.00    -0.153 OA
ATOM      5  O   UNL     1      -3.079   7.611   0.256  0.00  0.00    -0.153 OA
BRANCH   3   9
ATOM      6  C   UNL     1      -4.598   4.112  -3.158  0.00  0.00    +0.033 A 
ATOM      7  C   UNL     1      -3.818   3.426  -2.236  0.00  0.00    +0.025 A 
ATOM      8  C   UNL     1      -3.356   4.074  -1.107  0.00  0.00    +0.030 A 
ATOM      9  C   UNL     1      -3.679   5.401  -0.889  0.00  0.00    +0.105 A 
ATOM     10  C   UNL     1      -4.460   6.085  -1.803  0.00  0.00    +0.030 A 
ATOM     11  C   UNL     1      -4.920   5.444  -2.937  0.00  0.00    +0.025 A 
BRANCH   6  14
ATOM     12  C   UNL     1      -4.310   2.508  -4.892  0.00  0.00    +0.217 C 
ATOM     13  O   UNL     1      -3.192   2.280  -4.480  0.00  0.00    -0.275 OA
ATOM     14  N   UNL     1      -5.063   3.459  -4.306  0.00  0.00    -0.286 N 
ATOM     15  H   UNL     1      -5.925   3.695  -4.682  0.00  0.00    +0.155 HD
BRANCH  12  17
ATOM     16  C   UNL     1      -3.808   0.718  -6.533  0.00  0.00    +0.013 C 
ATOM     17  C   UNL     1      -4.856   1.727  -6.059  0.00  0.00    +0.093 C 
ENDBRANCH  12  17
ENDBRANCH   6  14
ENDBRANCH   3   9
ENDBRANCH   1   3
BRANCH   1  18
ATOM     18  C   UNL     1      -4.510   4.661   2.252  0.00  0.00    +0.095 C 
BRANCH  18  19
ATOM     19  C   UNL     1      -5.285   4.768   3.567  0.00  0.00    -0.023 C 
BRANCH  19  20
ATOM     20  C   UNL     1      -4.429   5.454   4.600  0.00  0.00    -0.059 A 
ATOM     21  C   UNL     1      -3.457   4.742   5.278  0.00  0.00    +0.004 A 
ATOM     22  C   UNL     1      -2.670   5.366   6.223  0.00  0.00    +0.023 A 
ATOM     23  C   UNL     1      -2.857   6.717   6.509  0.00  0.00    +0.033 A 
ATOM     24  C   UNL     1      -3.838   7.424   5.823  0.00  0.00    -0.025 A 
ATOM     25  C   UNL     1      -4.619   6.795   4.876  0.00  0.00    +0.007 A 
ATOM     26  C   UNL     1      -3.814   8.856   6.319  0.00  0.00    +0.056 C 
ATOM     27  C   UNL     1      -2.451   8.947   7.042  0.00  0.00    +0.109 C 
ATOM     28  N   UNL     1      -2.194   7.542   7.426  0.00  0.00    -0.332 N 
ATOM     29  C   UNL     1      -0.753   7.256   7.446  0.00  0.00    +0.129 C 
ENDBRANCH  19  20
BRANCH  19  32
ATOM     30  C   UNL     1      -6.437   3.487   5.268  0.00  0.00    -0.096 C 
ATOM     31  C   UNL     1      -6.339   2.665   2.993  0.00  0.00    -0.096 C 
ATOM     32  N   UNL     1      -5.612   3.407   4.044  0.00  0.00    +0.381 N 
ATOM     33  H   UNL     1      -4.740   2.911   4.261  0.00  0.00    -0.082 HD
ENDBRANCH  19  32
ENDBRANCH  18  19
ENDBRANCH   1  18
TORSDOF 8
