REMARK  Name = ZINC22337769
REMARK  10 active torsions:
REMARK  status: ('A' for Active; 'I' for Inactive)
REMARK    1  A    between atoms: C_1  and  C_2
REMARK    2  A    between atoms: C_9  and  C_30
REMARK    3  A    between atoms: C_9  and  C_31
REMARK    4  A    between atoms: C_11  and  N_13
REMARK    5  A    between atoms: C_14  and  C_16
REMARK    6  A    between atoms: C_16  and  N_17
REMARK    7  A    between atoms: N_17  and  C_18
REMARK    8  A    between atoms: N_17  and  S_26
REMARK    9  A    between atoms: C_21  and  C_25
REMARK   10  A    between atoms: S_26  and  C_29
REMARK                            x       y       z     vdW  Elec       q    Type
REMARK                         _______ _______ _______ _____ _____    ______ ____
ROOT
ATOM      1  N   UNL     1      -1.577  -1.782  -2.820  0.00  0.00    -0.307 N 
ATOM      2  C   UNL     1      -0.717  -1.094  -2.044  0.00  0.00    +0.233 C 
ATOM      3  O   UNL     1       0.360  -0.752  -2.486  0.00  0.00    -0.274 OA
ATOM      4  H   UNL     1      -2.553  -2.092  -2.419  0.00  0.00    +0.149 HD
ENDROOT
BRANCH   1  15
ATOM      5  C   UNL     1      -2.449   2.397  -7.597  0.00  0.00    +0.044 C 
ATOM      6  C   UNL     1      -2.132   1.215  -6.719  0.00  0.00    -0.047 A 
ATOM      7  C   UNL     1      -1.552   1.410  -5.479  0.00  0.00    +0.004 A 
ATOM      8  C   UNL     1      -1.261   0.326  -4.674  0.00  0.00    +0.009 A 
ATOM      9  C   UNL     1      -1.547  -0.960  -5.103  0.00  0.00    +0.015 A 
ATOM     10  C   UNL     1      -2.130  -1.158  -6.343  0.00  0.00    +0.126 A 
ATOM     11  C   UNL     1      -2.420  -0.063  -7.151  0.00  0.00    +0.049 A 
ATOM     12  O   UNL     1      -2.436  -2.400  -6.799  0.00  0.00    -0.486 OA
ATOM     13  C   UNL     1      -1.818  -3.518  -6.159  0.00  0.00    +0.107 C 
ATOM     14  C   UNL     1      -1.987  -3.361  -4.643  0.00  0.00    +0.074 C 
ATOM     15  C   UNL     1      -1.211  -2.118  -4.199  0.00  0.00    +0.110 C 
ATOM     16  C   UNL     1      -2.489  -4.812  -6.622  0.00  0.00    +0.055 C 
ATOM     17  C   UNL     1      -0.330  -3.555  -6.512  0.00  0.00    +0.055 C 
ENDBRANCH   1  15
BRANCH   2  18
ATOM     18  C   UNL     1      -1.093  -0.748  -0.626  0.00  0.00    +0.226 C 
BRANCH  18  19
ATOM     19  N   UNL     1       0.002  -0.004   0.002  0.00  0.00    -0.199 N 
BRANCH  19  20
ATOM     20  C   UNL     1       1.065  -0.691   0.593  0.00  0.00    +0.053 A 
ATOM     21  C   UNL     1       1.806  -0.091   1.603  0.00  0.00    +0.025 A 
ATOM     22  C   UNL     1       2.856  -0.773   2.186  0.00  0.00    +0.006 A 
ATOM     23  C   UNL     1       3.170  -2.053   1.766  0.00  0.00    -0.032 A 
ATOM     24  C   UNL     1       2.434  -2.654   0.760  0.00  0.00    +0.046 A 
ATOM     25  C   UNL     1       1.379  -1.978   0.176  0.00  0.00    +0.045 A 
ATOM     26 CL   UNL     1       2.831  -4.261   0.237  0.00  0.00    -0.083 Cl
ATOM     27  C   UNL     1       4.316  -2.794   2.405  0.00  0.00    +0.045 C 
ENDBRANCH  19  20
BRANCH  19  28
ATOM     28  S   UNL     1      -0.020   1.652   0.011  0.00  0.00    +0.043 S 
ATOM     29  O   UNL     1       1.349   2.033   0.000  0.00  0.00    -0.155 OA
ATOM     30  O   UNL     1      -0.880   2.009  -1.062  0.00  0.00    -0.155 OA
ATOM     31  C   UNL     1      -0.781   2.099   1.596  0.00  0.00    +0.218 C 
ENDBRANCH  19  28
ENDBRANCH  18  19
ENDBRANCH   2  18
TORSDOF 5
