REMARK  Name = ZINC35694526
REMARK  10 active torsions:
REMARK  status: ('A' for Active; 'I' for Inactive)
REMARK    1  A    between atoms: C_1  and  C_2
REMARK    2  A    between atoms: C_2  and  O_3
REMARK    3  A    between atoms: O_3  and  C_4
REMARK    4  A    between atoms: C_4  and  C_6
REMARK    5  A    between atoms: C_7  and  C_37
REMARK    6  A    between atoms: C_11  and  C_13
REMARK    7  A    between atoms: C_20  and  C_23
REMARK    8  A    between atoms: C_24  and  N_26
REMARK    9  A    between atoms: N_26  and  C_27
REMARK   10  A    between atoms: C_27  and  C_28
REMARK                            x       y       z     vdW  Elec       q    Type
REMARK                         _______ _______ _______ _____ _____    ______ ____
ROOT
ATOM      1  C   UNL     1       1.255  -2.263  -2.490  0.00  0.00    +0.082 C 
ATOM      2  C   UNL     1       1.671  -3.580  -2.493  0.00  0.00    +0.053 C 
ATOM      3  N   UNL     1       2.462  -4.032  -3.453  0.00  0.00    -0.230 NA
ATOM      4  C   UNL     1       2.912  -3.308  -4.458  0.00  0.00    +0.166 C 
ATOM      5  N   UNL     1       2.617  -1.986  -4.638  0.00  0.00    -0.267 N 
ATOM      6  C   UNL     1       1.728  -1.371  -3.617  0.00  0.00    +0.150 C 
ATOM      7  C   UNL     1       3.166  -1.366  -5.743  0.00  0.00    +0.048 C 
ATOM      8  C   UNL     1       3.949  -2.111  -6.555  0.00  0.00    +0.072 C 
ATOM      9  S   UNL     1       3.908  -3.700  -5.751  0.00  0.00    -0.060 S 
ATOM     10  C   UNL     1       1.223  -4.509  -1.394  0.00  0.00    +0.066 C 
ENDROOT
BRANCH   6  11
ATOM     11  C   UNL     1       0.510  -0.829  -4.321  0.00  0.00    -0.019 A 
ATOM     12  C   UNL     1      -0.237  -1.653  -5.142  0.00  0.00    +0.006 A 
ATOM     13  C   UNL     1      -1.354  -1.157  -5.788  0.00  0.00    +0.003 A 
ATOM     14  C   UNL     1      -1.724   0.163  -5.615  0.00  0.00    +0.038 A 
ATOM     15  C   UNL     1      -0.976   0.989  -4.793  0.00  0.00    +0.124 A 
ATOM     16  C   UNL     1       0.139   0.489  -4.141  0.00  0.00    +0.044 A 
ATOM     17  F   UNL     1      -1.337   2.280  -4.623  0.00  0.00    -0.205 F 
ENDBRANCH   6  11
BRANCH   7  18
ATOM     18  C   UNL     1       2.909   0.053  -6.025  0.00  0.00    +0.091 C 
ATOM     19  C   UNL     1       3.557   0.667  -7.034  0.00  0.00    +0.239 C 
ATOM     20  O   UNL     1       4.359  -0.049  -7.860  0.00  0.00    -0.271 OA
BRANCH  19  21
ATOM     21  N   UNL     1       3.403   2.030  -7.228  0.00  0.00    -0.308 N 
ATOM     22  H   UNL     1       2.889   2.555  -6.595  0.00  0.00    +0.149 HD
BRANCH  21  23
ATOM     23  C   UNL     1       4.017   2.678  -8.390  0.00  0.00    +0.140 C 
BRANCH  23  24
ATOM     24  C   UNL     1       3.805   4.167  -8.304  0.00  0.00    -0.027 A 
ATOM     25  C   UNL     1       2.677   4.737  -8.865  0.00  0.00    +0.009 A 
ATOM     26  C   UNL     1       2.478   6.103  -8.788  0.00  0.00    +0.050 A 
ATOM     27  C   UNL     1       3.410   6.905  -8.149  0.00  0.00    +0.166 A 
ATOM     28  C   UNL     1       4.546   6.331  -7.584  0.00  0.00    +0.167 A 
ATOM     29  C   UNL     1       4.736   4.960  -7.660  0.00  0.00    +0.054 A 
ATOM     30  O   UNL     1       5.300   7.319  -7.020  0.00  0.00    -0.453 OA
ATOM     31  C   UNL     1       4.819   8.547  -7.600  0.00  0.00    +0.466 C 
ATOM     32  O   UNL     1       3.451   8.253  -7.939  0.00  0.00    -0.453 OA
ENDBRANCH  23  24
ENDBRANCH  21  23
ENDBRANCH  19  21
ENDBRANCH   7  18
BRANCH   1  33
ATOM     33  C   UNL     1       0.419  -1.771  -1.480  0.00  0.00    +0.339 C 
ATOM     34  O   UNL     1      -0.057  -2.533  -0.658  0.00  0.00    -0.245 OA
BRANCH  33  35
ATOM     35  O   UNL     1       0.140  -0.450  -1.418  0.00  0.00    -0.462 OA
BRANCH  35  37
ATOM     36  C   UNL     1      -0.919   1.497  -0.454  0.00  0.00    +0.048 C 
ATOM     37  C   UNL     1      -0.720  -0.017  -0.362  0.00  0.00    +0.229 C 
ENDBRANCH  35  37
ENDBRANCH  33  35
ENDBRANCH   1  33
TORSDOF 8
