REMARK  Name = ZINC45380974
REMARK  9 active torsions:
REMARK  status: ('A' for Active; 'I' for Inactive)
REMARK    1  A    between atoms: C_1  and  C_2
REMARK    2  A    between atoms: C_2  and  C_4
REMARK    3  A    between atoms: C_2  and  N_13
REMARK    4  A    between atoms: C_4  and  C_5
REMARK    5  A    between atoms: C_5  and  C_6
REMARK    6  A    between atoms: C_9  and  O_12
REMARK    7  A    between atoms: N_16  and  C_17
REMARK    8  A    between atoms: N_16  and  C_23
REMARK    9  A    between atoms: C_17  and  C_18
REMARK                            x       y       z     vdW  Elec       q    Type
REMARK                         _______ _______ _______ _____ _____    ______ ____
ROOT
ATOM      1  N   UNL     1       0.776  -0.066  -1.382  0.00  0.00    -0.297 N 
ATOM      2  C   UNL     1       2.082  -0.389  -1.306  0.00  0.00    +0.303 C 
ATOM      3  O   UNL     1       2.744  -0.025  -0.353  0.00  0.00    -0.253 OA
ATOM      4  N   UNL     1       2.654  -1.116  -2.286  0.00  0.00    -0.278 N 
ATOM      5  H   UNL     1       0.267  -0.287  -2.178  0.00  0.00    +0.151 HD
ENDROOT
BRANCH   4   6
ATOM      6  C   UNL     1       1.884  -1.470  -3.481  0.00  0.00    +0.078 C 
ATOM      7  C   UNL     1       2.570  -2.348  -4.530  0.00  0.00    +0.024 C 
ATOM      8  C   UNL     1       2.329  -0.864  -4.814  0.00  0.00    +0.024 C 
ENDBRANCH   4   6
BRANCH   1  10
ATOM      9  C   UNL     1       0.353   2.126  -0.384  0.00  0.00    +0.028 C 
ATOM     10  C   UNL     1       0.124   0.618  -0.263  0.00  0.00    +0.072 C 
BRANCH  10  11
ATOM     11  C   UNL     1      -1.378   0.327  -0.291  0.00  0.00    +0.026 C 
BRANCH  11  12
ATOM     12  C   UNL     1      -1.613  -1.165  -0.046  0.00  0.00    +0.037 C 
BRANCH  12  13
ATOM     13  C   UNL     1      -3.092  -1.452  -0.074  0.00  0.00    -0.047 A 
ATOM     14  C   UNL     1      -3.832  -1.374   1.091  0.00  0.00    +0.007 A 
ATOM     15  C   UNL     1      -5.188  -1.637   1.068  0.00  0.00    +0.045 A 
ATOM     16  C   UNL     1      -5.807  -1.979  -0.125  0.00  0.00    +0.117 A 
ATOM     17  C   UNL     1      -5.062  -2.056  -1.293  0.00  0.00    +0.045 A 
ATOM     18  C   UNL     1      -3.707  -1.787  -1.266  0.00  0.00    +0.007 A 
BRANCH  16  19
ATOM     19  O   UNL     1      -7.141  -2.239  -0.151  0.00  0.00    -0.507 OA
ATOM     20  H   UNL     1      -7.690  -1.460  -0.318  0.00  0.00    +0.292 HD
ENDBRANCH  16  19
ENDBRANCH  12  13
ENDBRANCH  11  12
ENDBRANCH  10  11
ENDBRANCH   1  10
BRANCH   4  21
ATOM     21  C   UNL     1       4.047  -1.552  -2.157  0.00  0.00    +0.152 C 
BRANCH  21  22
ATOM     22  C   UNL     1       4.091  -2.897  -1.479  0.00  0.00    +0.007 A 
ATOM     23  C   UNL     1       4.060  -4.134  -2.033  0.00  0.00    +0.013 A 
ATOM     24  C   UNL     1       4.113  -5.241  -1.207  0.00  0.00    +0.008 A 
ATOM     25  C   UNL     1       4.195  -5.057   0.134  0.00  0.00    +0.045 A 
ATOM     26  S   UNL     1       4.205  -3.276   0.262  0.00  0.00    -0.100 S 
ENDBRANCH  21  22
ENDBRANCH   4  21
TORSDOF 8
