REMARK  Name = ZINC65608820
REMARK  6 active torsions:
REMARK  status: ('A' for Active; 'I' for Inactive)
REMARK    1  A    between atoms: C_1  and  C_2
REMARK    2  A    between atoms: C_6  and  C_8
REMARK    3  A    between atoms: C_6  and  C_9
REMARK    4  A    between atoms: C_10  and  C_12
REMARK    5  A    between atoms: C_12  and  C_13
REMARK    6  A    between atoms: C_13  and  C_14
REMARK                            x       y       z     vdW  Elec       q    Type
REMARK                         _______ _______ _______ _____ _____    ______ ____
ROOT
ATOM      1  C   UNL     1      -0.019   1.526   0.010  0.00  0.00    +0.039 C 
ATOM      2  C   UNL     1       0.002  -0.004   0.002  0.00  0.00    +0.133 C 
ATOM      3  C   UNL     1       0.725  -0.499  -1.256  0.00  0.00    +0.139 C 
ATOM      4  N   UNL     1       0.897  -1.957  -1.149  0.00  0.00    -0.296 N 
ATOM      5  C   UNL     1       1.483  -2.495   0.089  0.00  0.00    +0.142 C 
ATOM      6  C   UNL     1       0.723  -1.903   1.281  0.00  0.00    +0.080 C 
ATOM      7  O   UNL     1       0.693  -0.479   1.160  0.00  0.00    -0.368 OA
ATOM      8  C   UNL     1      -0.708  -2.444   1.296  0.00  0.00    +0.043 C 
ATOM      9  C   UNL     1       1.430  -2.290   2.582  0.00  0.00    +0.043 C 
ATOM     10  C   UNL     1       0.528  -2.775  -2.155  0.00  0.00    +0.216 C 
ATOM     11  O   UNL     1       0.678  -3.973  -2.048  0.00  0.00    -0.276 OA
ENDROOT
BRANCH  10  12
ATOM     12  C   UNL     1      -0.069  -2.199  -3.413  0.00  0.00    +0.100 C 
BRANCH  12  13
ATOM     13  C   UNL     1      -0.396  -3.333  -4.387  0.00  0.00    +0.045 C 
BRANCH  13  14
ATOM     14  C   UNL     1      -0.994  -2.758  -5.645  0.00  0.00    -0.040 A 
ATOM     15  C   UNL     1      -2.360  -2.579  -5.755  0.00  0.00    +0.011 A 
ATOM     16  C   UNL     1      -2.865  -2.059  -6.900  0.00  0.00    +0.045 A 
ATOM     17  S   UNL     1      -1.389  -1.805  -7.872  0.00  0.00    -0.105 S 
ATOM     18  C   UNL     1      -0.199  -2.403  -6.684  0.00  0.00    +0.048 A 
ENDBRANCH  13  14
ENDBRANCH  12  13
ENDBRANCH  10  12
TORSDOF 3
