REMARK  Name = ZINC27231841
REMARK  8 active torsions:
REMARK  status: ('A' for Active; 'I' for Inactive)
REMARK    1  A    between atoms: C_1  and  C_2
REMARK    2  A    between atoms: C_4  and  C_26
REMARK    3  A    between atoms: C_8  and  N_25
REMARK    4  A    between atoms: C_9  and  C_11
REMARK    5  A    between atoms: C_11  and  C_13
REMARK    6  A    between atoms: C_14  and  N_24
REMARK    7  A    between atoms: C_16  and  C_23
REMARK    8  A    between atoms: C_18  and  C_22
REMARK                            x       y       z     vdW  Elec       q    Type
REMARK                         _______ _______ _______ _____ _____    ______ ____
ROOT
ATOM      1  C   UNL     1       1.693   7.349   0.641  0.00  0.00    +0.210 C 
ATOM      2  O   UNL     1       0.865   8.243   0.702  0.00  0.00    -0.285 OA
ENDROOT
BRANCH   1  11
ATOM      3  C   UNL     1      -2.731   3.977   0.952  0.00  0.00    +0.044 C 
ATOM      4  C   UNL     1      -1.404   3.270   0.855  0.00  0.00    -0.037 A 
ATOM      5  C   UNL     1      -1.345   1.896   0.841  0.00  0.00    +0.025 A 
ATOM      6  C   UNL     1      -0.122   1.247   0.758  0.00  0.00    +0.014 A 
ATOM      7  N   UNL     1       0.998   1.940   0.678  0.00  0.00    -0.353 N 
ATOM      8  C   UNL     1       0.993   3.255   0.682  0.00  0.00    +0.088 A 
ATOM      9  C   UNL     1      -0.199   4.010   0.769  0.00  0.00    +0.030 A 
ATOM     10  C   UNL     1      -0.018   5.454   0.760  0.00  0.00    +0.052 A 
ATOM     11  C   UNL     1       1.264   5.951   0.669  0.00  0.00    +0.083 A 
ATOM     12  S   UNL     1       2.272   4.484   0.593  0.00  0.00    -0.065 S 
ATOM     13  C   UNL     1      -0.072  -0.259   0.751  0.00  0.00    +0.063 C 
ATOM     14  H   UNL     1       1.964   1.418   0.608  0.00  0.00    +0.166 HD
BRANCH  10  15
ATOM     15  N   UNL     1      -1.110   6.308   0.841  0.00  0.00    -0.356 N 
ATOM     16  H   UNL     1      -0.957   7.398   0.833  0.00  0.00    +0.142 HD
ATOM     17  H   UNL     1      -2.127   5.896   0.914  0.00  0.00    +0.142 HD
ENDBRANCH  10  15
ENDBRANCH   1  11
BRANCH   1  18
ATOM     18  C   UNL     1       3.116   7.675   0.540  0.00  0.00    +0.083 A 
ATOM     19  C   UNL     1       3.705   8.919   0.494  0.00  0.00    +0.052 A 
ATOM     20  C   UNL     1       5.155   8.993   0.396  0.00  0.00    +0.032 A 
ATOM     21  C   UNL     1       5.981  10.143   0.338  0.00  0.00    -0.037 A 
ATOM     22  C   UNL     1       7.343   9.981   0.240  0.00  0.00    +0.027 A 
ATOM     23  C   UNL     1       7.897   8.711   0.197  0.00  0.00    +0.040 A 
ATOM     24  N   UNL     1       7.125   7.643   0.252  0.00  0.00    -0.245 NA
ATOM     25  C   UNL     1       5.817   7.745   0.346  0.00  0.00    +0.111 A 
ATOM     26  S   UNL     1       4.500   6.558   0.438  0.00  0.00    -0.064 S 
ATOM     27  C   UNL     1       9.392   8.550   0.090  0.00  0.00    +0.065 C 
ATOM     28  C   UNL     1       5.375  11.522   0.384  0.00  0.00    +0.044 C 
BRANCH  19  29
ATOM     29  N   UNL     1       2.936  10.075   0.545  0.00  0.00    -0.356 N 
ATOM     30  H   UNL     1       3.421  11.061   0.508  0.00  0.00    +0.142 HD
ATOM     31  H   UNL     1       1.841  10.003   0.623  0.00  0.00    +0.142 HD
ENDBRANCH  19  29
ENDBRANCH   1  18
TORSDOF 4
