REMARK  Name = ZINC63647475
REMARK  3 active torsions:
REMARK  status: ('A' for Active; 'I' for Inactive)
REMARK    1  A    between atoms: C_4  and  C_7
REMARK    2  A    between atoms: C_10  and  C_13
REMARK    3  A    between atoms: C_16  and  C_19
REMARK                            x       y       z     vdW  Elec       q    Type
REMARK                         _______ _______ _______ _____ _____    ______ ____
ROOT
ATOM      1  C   UNL     1       5.646  -3.128  -1.330  0.00  0.00    +0.215 C 
ATOM      2  C   UNL     1       7.113  -3.516  -1.302  0.00  0.00    +0.037 C 
ATOM      3  C   UNL     1       7.091  -4.863  -1.329  0.00  0.00    +0.091 C 
ATOM      4  N   UNL     1       5.811  -5.316  -1.370  0.00  0.00    -0.154 NA
ATOM      5  N   UNL     1       4.952  -4.426  -1.375  0.00  0.00    -0.174 NA
ENDROOT
BRANCH   3   6
ATOM      6  C   UNL     1       8.295  -5.729  -1.318  0.00  0.00    +0.002 A 
ATOM      7  C   UNL     1       9.572  -5.146  -1.270  0.00  0.00    +0.011 A 
ATOM      8  C   UNL     1      10.690  -5.917  -1.259  0.00  0.00    +0.009 A 
ATOM      9  C   UNL     1      10.578  -7.319  -1.296  0.00  0.00    -0.018 A 
ATOM     10  C   UNL     1      11.719  -8.139  -1.284  0.00  0.00    +0.008 A 
ATOM     11  C   UNL     1      11.578  -9.492  -1.320  0.00  0.00    +0.001 A 
ATOM     12  C   UNL     1      10.316 -10.081  -1.368  0.00  0.00    +0.001 A 
ATOM     13  C   UNL     1       9.188  -9.320  -1.381  0.00  0.00    +0.008 A 
ATOM     14  C   UNL     1       9.294  -7.918  -1.344  0.00  0.00    -0.017 A 
ATOM     15  C   UNL     1       8.151  -7.104  -1.349  0.00  0.00    +0.018 A 
ENDBRANCH   3   6
BRANCH   1  19
ATOM     16  C   UNL     1       3.697  -0.686  -0.037  0.00  0.00    +0.168 C 
ATOM     17  N   UNL     1       4.853  -0.109  -0.040  0.00  0.00    -0.067 NA
ATOM     18  O   UNL     1       5.896  -1.066  -0.057  0.00  0.00    -0.367 OA
ATOM     19  C   UNL     1       5.266  -2.356  -0.065  0.00  0.00    +0.322 C 
ATOM     20  N   UNL     1       3.825  -2.063  -0.046  0.00  0.00    -0.287 N 
ATOM     21  H   UNL     1       3.103  -2.711  -0.043  0.00  0.00    +0.151 HD
BRANCH  16  25
ATOM     22  C   UNL     1      -0.017   1.379   0.010  0.00  0.00    +0.000 A 
ATOM     23  C   UNL     1       1.169   2.093   0.002  0.00  0.00    +0.001 A 
ATOM     24  C   UNL     1       2.377   1.428  -0.013  0.00  0.00    +0.011 A 
ATOM     25  C   UNL     1       2.403   0.033  -0.021  0.00  0.00    +0.018 A 
ATOM     26  C   UNL     1       1.205  -0.680  -0.013  0.00  0.00    +0.011 A 
ATOM     27  C   UNL     1       0.002  -0.004   0.002  0.00  0.00    +0.001 A 
ENDBRANCH  16  25
ENDBRANCH   1  19
TORSDOF 3
