REMARK  Name = ZINC50359146
REMARK  6 active torsions:
REMARK  status: ('A' for Active; 'I' for Inactive)
REMARK    1  A    between atoms: C_1  and  C_2
REMARK    2  A    between atoms: C_3  and  C_14
REMARK    3  A    between atoms: C_5  and  C_7
REMARK    4  A    between atoms: C_14  and  C_16
REMARK    5  A    between atoms: C_14  and  N_17
REMARK    6  A    between atoms: N_17  and  C_18
REMARK                            x       y       z     vdW  Elec       q    Type
REMARK                         _______ _______ _______ _____ _____    ______ ____
ROOT
ATOM      1  C   UNL     1      -0.018   1.503   0.010  0.00  0.00    +0.066 C 
ATOM      2  C   UNL     1       0.002  -0.004   0.002  0.00  0.00    +0.048 A 
ATOM      3  C   UNL     1       0.005  -0.678  -1.178  0.00  0.00    -0.001 A 
ATOM      4  S   UNL     1       0.032  -2.368  -0.595  0.00  0.00    -0.071 S 
ATOM      5  C   UNL     1       0.036  -1.995   1.154  0.00  0.00    +0.144 A 
ATOM      6  N   UNL     1       0.022  -0.667   1.135  0.00  0.00    -0.241 NA
ENDROOT
BRANCH   5   7
ATOM      7  C   UNL     1       0.054  -2.912   2.304  0.00  0.00    +0.162 A 
ATOM      8  C   UNL     1       0.051  -2.548   3.617  0.00  0.00    +0.068 A 
ATOM      9  C   UNL     1       0.072  -3.739   4.368  0.00  0.00    +0.071 A 
ATOM     10  C   UNL     1       0.088  -4.762   3.487  0.00  0.00    +0.185 A 
ATOM     11  O   UNL     1       0.072  -4.259   2.242  0.00  0.00    -0.445 OA
ATOM     12 BR   UNL     1       0.119  -6.600   3.933  0.00  0.00    -0.007 Br
ATOM     13 BR   UNL     1       0.079  -3.879   6.254  0.00  0.00    -0.046 Br
ENDBRANCH   5   7
BRANCH   3  14
ATOM     14  C   UNL     1      -0.010  -0.147  -2.589  0.00  0.00    -0.036 C 
ATOM     15  C   UNL     1      -1.404  -0.337  -3.190  0.00  0.00    -0.008 C 
BRANCH  14  16
ATOM     16  N   UNL     1       0.975  -0.877  -3.397  0.00  0.00    +0.382 N 
ATOM     17  C   UNL     1       1.046  -0.282  -4.738  0.00  0.00    -0.100 C 
ATOM     18  H   UNL     1       1.881  -0.821  -2.956  0.00  0.00    -0.085 HD
ATOM     19  H   UNL     1       0.698  -1.845  -3.473  0.00  0.00    -0.085 HD
ENDBRANCH  14  16
ENDBRANCH   3  14
TORSDOF 3
