REMARK  Name = ZINC16608038
REMARK  2 active torsions:
REMARK  status: ('A' for Active; 'I' for Inactive)
REMARK    1  A    between atoms: C_1  and  C_2
REMARK    2  A    between atoms: C_7  and  C_10
REMARK                            x       y       z     vdW  Elec       q    Type
REMARK                         _______ _______ _______ _____ _____    ______ ____
ROOT
ATOM      1  C   UNL     1      -4.140   3.270  -1.340  0.00  0.00    +0.029 C 
ATOM      2  C   UNL     1      -3.497   3.145   0.042  0.00  0.00    +0.132 C 
ATOM      3  C   UNL     1      -2.347   2.150   0.020  0.00  0.00    +0.235 C 
ATOM      4  O   UNL     1      -2.550   0.954   0.005  0.00  0.00    -0.274 OA
ATOM      5  N   UNL     1      -1.113   2.637   0.022  0.00  0.00    -0.233 N 
ATOM      6  C   UNL     1      -0.915   4.099   0.029  0.00  0.00    +0.172 C 
ATOM      7  S   UNL     1      -2.598   4.689   0.503  0.00  0.00    -0.121 S 
ATOM      8  C   UNL     1      -0.022   1.783   0.012  0.00  0.00    +0.169 A 
ATOM      9  N   UNL     1       1.256   2.080   0.001  0.00  0.00    -0.224 NA
ATOM     10  C   UNL     1       2.221   1.135  -0.013  0.00  0.00    +0.080 A 
ATOM     11  C   UNL     1       3.623   1.320  -0.025  0.00  0.00    +0.029 A 
ATOM     12  C   UNL     1       4.471   0.243  -0.039  0.00  0.00    +0.002 A 
ATOM     13  C   UNL     1       3.990  -1.059  -0.042  0.00  0.00    +0.001 A 
ATOM     14  C   UNL     1       2.624  -1.276  -0.030  0.00  0.00    +0.017 A 
ATOM     15  C   UNL     1       1.768  -0.203  -0.016  0.00  0.00    +0.041 A 
ATOM     16  S   UNL     1       0.002  -0.004   0.002  0.00  0.00    -0.052 S 
ENDROOT
BRANCH   6  17
ATOM     17  C   UNL     1       0.109   4.502   1.058  0.00  0.00    -0.016 A 
ATOM     18  C   UNL     1       0.890   5.625   0.853  0.00  0.00    +0.006 A 
ATOM     19  C   UNL     1       1.830   5.995   1.796  0.00  0.00    +0.001 A 
ATOM     20  C   UNL     1       1.990   5.243   2.945  0.00  0.00    +0.015 A 
ATOM     21  C   UNL     1       1.209   4.120   3.150  0.00  0.00    +0.018 A 
ATOM     22  C   UNL     1       0.265   3.753   2.208  0.00  0.00    +0.021 A 
ATOM     23 BR   UNL     1       1.428   3.091   4.722  0.00  0.00    -0.050 Br
ENDBRANCH   6  17
TORSDOF 1
