REMARK  Name = ZINC37006478
REMARK  10 active torsions:
REMARK  status: ('A' for Active; 'I' for Inactive)
REMARK    1  A    between atoms: C_1  and  C_2
REMARK    2  A    between atoms: N_8  and  C_9
REMARK    3  A    between atoms: C_9  and  C_10
REMARK    4  A    between atoms: C_10  and  C_11
REMARK    5  A    between atoms: C_11  and  N_12
REMARK    6  A    between atoms: C_20  and  O_36
REMARK    7  A    between atoms: C_25  and  C_26
REMARK    8  A    between atoms: C_25  and  C_27
REMARK    9  A    between atoms: N_29  and  C_30
REMARK   10  A    between atoms: O_36  and  C_37
REMARK                            x       y       z     vdW  Elec       q    Type
REMARK                         _______ _______ _______ _____ _____    ______ ____
ROOT
ATOM      1  N   UNL     1       4.842  -0.112   3.791  0.00  0.00    -0.281 N 
ATOM      2  C   UNL     1       4.716   0.682   4.880  0.00  0.00    +0.264 C 
ATOM      3  O   UNL     1       3.909   1.592   4.918  0.00  0.00    -0.268 OA
ATOM      4  C   UNL     1       5.605   0.386   6.016  0.00  0.00    +0.106 A 
ATOM      5  C   UNL     1       5.590   0.872   7.276  0.00  0.00    +0.041 A 
ATOM      6  C   UNL     1       6.642   0.256   7.976  0.00  0.00    +0.001 A 
ATOM      7  C   UNL     1       7.077   0.386   9.305  0.00  0.00    +0.013 A 
ATOM      8  C   UNL     1       8.152  -0.373   9.685  0.00  0.00    +0.046 A 
ATOM      9  C   UNL     1       8.795  -1.237   8.804  0.00  0.00    +0.122 A 
ATOM     10  C   UNL     1       8.388  -1.385   7.485  0.00  0.00    +0.072 A 
ATOM     11  C   UNL     1       7.296  -0.624   7.070  0.00  0.00    +0.053 A 
ATOM     12  N   UNL     1       6.658  -0.525   5.879  0.00  0.00    -0.334 N 
ATOM     13  C   UNL     1       6.931  -1.187   4.598  0.00  0.00    +0.157 C 
ATOM     14  C   UNL     1       5.620  -1.345   3.823  0.00  0.00    +0.128 C 
ATOM     15  C   UNL     1       5.942  -1.763   2.387  0.00  0.00    +0.043 C 
ENDROOT
BRANCH  14  16
ATOM     16  C   UNL     1       4.793  -2.426   4.469  0.00  0.00    +0.238 C 
ATOM     17  O   UNL     1       4.886  -3.572   4.084  0.00  0.00    -0.273 OA
ATOM     18  N   UNL     1       3.950  -2.119   5.475  0.00  0.00    -0.311 N 
ATOM     19  H   UNL     1       3.876  -1.203   5.783  0.00  0.00    +0.149 HD
BRANCH  18  20
ATOM     20  C   UNL     1       3.146  -3.171   6.103  0.00  0.00    +0.073 C 
ATOM     21  C   UNL     1       1.867  -3.387   5.293  0.00  0.00    +0.022 C 
ATOM     22  C   UNL     1       1.027  -4.485   5.949  0.00  0.00    +0.002 C 
ATOM     23  C   UNL     1       0.663  -4.066   7.374  0.00  0.00    +0.000 C 
ATOM     24  C   UNL     1       1.943  -3.850   8.185  0.00  0.00    +0.002 C 
ATOM     25  C   UNL     1       2.782  -2.752   7.529  0.00  0.00    +0.022 C 
ENDBRANCH  18  20
ENDBRANCH  14  16
BRANCH   9  26
ATOM     26  O   UNL     1       9.855  -1.960   9.248  0.00  0.00    -0.495 OA
ATOM     27  C   UNL     1      10.240  -1.776  10.613  0.00  0.00    +0.277 C 
ENDBRANCH   9  26
BRANCH   1  28
ATOM     28  C   UNL     1       4.173   0.276   2.547  0.00  0.00    +0.107 C 
BRANCH  28  29
ATOM     29  C   UNL     1       2.764  -0.321   2.518  0.00  0.00    +0.000 C 
BRANCH  29  30
ATOM     30  C   UNL     1       2.066   0.083   1.218  0.00  0.00    -0.077 C 
BRANCH  30  37
ATOM     31  C   UNL     1      -0.019   1.526   0.010  0.00  0.00    -0.013 C 
ATOM     32  C   UNL     1       0.002  -0.004   0.002  0.00  0.00    -0.072 C 
ATOM     33  C   UNL     1      -1.434  -0.533   0.011  0.00  0.00    -0.016 C 
ATOM     34  C   UNL     1      -1.408  -2.064   0.003  0.00  0.00    -0.003 C 
ATOM     35  C   UNL     1      -0.600  -2.558   1.206  0.00  0.00    -0.019 C 
ATOM     36  C   UNL     1       0.805  -1.954   1.152  0.00  0.00    -0.078 C 
ATOM     37  N   UNL     1       0.713  -0.490   1.191  0.00  0.00    +0.381 N 
ATOM     38  H   UNL     1       0.213  -0.206   2.020  0.00  0.00    -0.081 HD
ENDBRANCH  30  37
ENDBRANCH  29  30
ENDBRANCH  28  29
ENDBRANCH   1  28
TORSDOF 7
