REMARK  Name = ZINC21538079
REMARK  7 active torsions:
REMARK  status: ('A' for Active; 'I' for Inactive)
REMARK    1  A    between atoms: C_1  and  C_2
REMARK    2  A    between atoms: N_8  and  C_9
REMARK    3  A    between atoms: C_9  and  C_10
REMARK    4  A    between atoms: C_10  and  N_11
REMARK    5  A    between atoms: C_12  and  C_14
REMARK    6  A    between atoms: C_14  and  C_15
REMARK    7  A    between atoms: C_18  and  N_21
REMARK                            x       y       z     vdW  Elec       q    Type
REMARK                         _______ _______ _______ _____ _____    ______ ____
ROOT
ATOM      1  C   UNL     1      -1.706   1.264   8.574  0.00  0.00    -0.039 A 
ATOM      2  C   UNL     1      -1.877   0.082   9.271  0.00  0.00    +0.006 A 
ATOM      3  C   UNL     1      -1.052  -0.218  10.337  0.00  0.00    +0.023 A 
ATOM      4  C   UNL     1      -0.057   0.674  10.716  0.00  0.00    +0.035 A 
ATOM      5  C   UNL     1       0.108   1.863  10.018  0.00  0.00    +0.023 A 
ATOM      6  C   UNL     1      -0.716   2.155   8.949  0.00  0.00    +0.006 A 
ENDROOT
BRANCH   4   7
ATOM      7  N   UNL     1       0.777   0.376  11.800  0.00  0.00    -0.269 N 
ATOM      8  C   UNL     1       1.238   1.367  12.588  0.00  0.00    +0.311 C 
ATOM      9  O   UNL     1       0.854   2.508  12.418  0.00  0.00    -0.252 OA
ATOM     10  N   UNL     1       2.126   1.093  13.565  0.00  0.00    -0.255 N 
ATOM     11  C   UNL     1       2.644   2.159  14.439  0.00  0.00    +0.115 C 
ATOM     12  C   UNL     1       1.859   2.208  15.728  0.00  0.00    +0.020 C 
ATOM     13  C   UNL     1       1.995   0.950  16.574  0.00  0.00    +0.006 C 
ATOM     14  C   UNL     1       1.286  -0.233  15.922  0.00  0.00    +0.037 C 
ATOM     15  C   UNL     1       2.227  -0.894  14.930  0.00  0.00    -0.026 A 
ATOM     16  C   UNL     1       2.578  -0.212  13.783  0.00  0.00    +0.041 A 
ATOM     17  C   UNL     1       3.405  -0.825  12.842  0.00  0.00    +0.024 A 
ATOM     18  C   UNL     1       3.880  -2.100  13.079  0.00  0.00    +0.002 A 
ATOM     19  C   UNL     1       3.542  -2.765  14.243  0.00  0.00    +0.000 A 
ATOM     20  C   UNL     1       2.712  -2.161  15.172  0.00  0.00    +0.005 A 
ATOM     21  H   UNL     1       1.056  -0.668  12.008  0.00  0.00    +0.156 HD
ENDBRANCH   4   7
BRANCH   1  22
ATOM     22  C   UNL     1      -2.604   1.586   7.408  0.00  0.00    +0.130 C 
BRANCH  22  24
ATOM     23  N   UNL     1      -2.624   1.221   4.961  0.00  0.00    -0.317 N 
ATOM     24  C   UNL     1      -1.992   1.050   6.139  0.00  0.00    +0.217 C 
ATOM     25  O   UNL     1      -0.931   0.465   6.178  0.00  0.00    -0.275 OA
ATOM     26  H   UNL     1      -3.587   1.752   4.926  0.00  0.00    +0.149 HD
BRANCH  23  27
ATOM     27  C   UNL     1      -2.029   0.701   3.728  0.00  0.00    +0.085 C 
BRANCH  27  28
ATOM     28  C   UNL     1      -2.941   1.027   2.544  0.00  0.00    -0.059 C 
BRANCH  28  35
ATOM     29  C   UNL     1      -4.552   0.676   0.264  0.00  0.00    -0.013 C 
ATOM     30  C   UNL     1      -3.063   0.999   0.126  0.00  0.00    -0.072 C 
ATOM     31  C   UNL     1      -2.509   0.323  -1.130  0.00  0.00    -0.016 C 
ATOM     32  C   UNL     1      -1.014   0.632  -1.253  0.00  0.00    -0.003 C 
ATOM     33  C   UNL     1      -0.296   0.151   0.011  0.00  0.00    -0.019 C 
ATOM     34  C   UNL     1      -0.913   0.832   1.235  0.00  0.00    -0.078 C 
ATOM     35  N   UNL     1      -2.344   0.505   1.308  0.00  0.00    +0.382 N 
ATOM     36  H   UNL     1      -2.438  -0.591   1.322  0.00  0.00    -0.081 HD
ENDBRANCH  28  35
ENDBRANCH  27  28
ENDBRANCH  23  27
ENDBRANCH  22  24
ENDBRANCH   1  22
TORSDOF 6
