REMARK  Name = ZINC35361186
REMARK  10 active torsions:
REMARK  status: ('A' for Active; 'I' for Inactive)
REMARK    1  A    between atoms: C_1  and  C_2
REMARK    2  A    between atoms: C_2  and  C_3
REMARK    3  A    between atoms: C_3  and  C_4
REMARK    4  A    between atoms: C_4  and  N_5
REMARK    5  A    between atoms: C_6  and  C_7
REMARK    6  A    between atoms: C_10  and  O_38
REMARK    7  A    between atoms: C_13  and  O_37
REMARK    8  A    between atoms: C_22  and  C_36
REMARK    9  A    between atoms: C_23  and  O_35
REMARK   10  A    between atoms: C_26  and  C_28
REMARK                            x       y       z     vdW  Elec       q    Type
REMARK                         _______ _______ _______ _____ _____    ______ ____
ROOT
ATOM      1  C   UNL     1      -2.112  -3.372  -2.300  0.00  0.00    +0.038 C 
ATOM      2  C   UNL     1      -2.054  -4.886  -2.513  0.00  0.00    +0.018 C 
ATOM      3  C   UNL     1      -1.095  -5.203  -3.662  0.00  0.00    +0.032 C 
ATOM      4  C   UNL     1       0.302  -4.682  -3.320  0.00  0.00    +0.117 C 
ATOM      5  C   UNL     1       0.243  -3.168  -3.107  0.00  0.00    +0.067 C 
ATOM      6  C   UNL     1      -0.715  -2.851  -1.958  0.00  0.00    +0.079 C 
ATOM      7  C   UNL     1      -0.774  -1.337  -1.745  0.00  0.00    +0.036 C 
ATOM      8  C   UNL     1      -1.271  -0.660  -3.023  0.00  0.00    +0.009 C 
ATOM      9  C   UNL     1      -2.668  -1.183  -3.368  0.00  0.00    +0.025 C 
ATOM     10  C   UNL     1      -2.610  -2.696  -3.579  0.00  0.00    +0.009 C 
ATOM     11  C   UNL     1      -4.022  -3.196  -3.899  0.00  0.00    +0.005 C 
ATOM     12  C   UNL     1      -4.477  -2.565  -5.212  0.00  0.00    +0.010 C 
ATOM     13  C   UNL     1      -4.552  -1.042  -5.085  0.00  0.00    +0.003 C 
ATOM     14  C   UNL     1      -3.204  -0.487  -4.595  0.00  0.00    +0.075 C 
ATOM     15  C   UNL     1      -2.272  -0.630  -5.812  0.00  0.00    +0.036 C 
ATOM     16  C   UNL     1      -3.183  -0.271  -7.008  0.00  0.00    +0.011 C 
ATOM     17  C   UNL     1      -4.653  -0.477  -6.527  0.00  0.00    +0.043 C 
ATOM     18  C   UNL     1      -5.737  -0.607  -4.220  0.00  0.00    +0.014 C 
ENDROOT
BRANCH  17  19
ATOM     19  C   UNL     1      -5.323  -1.501  -7.445  0.00  0.00    +0.204 C 
ATOM     20  C   UNL     1      -5.439  -0.944  -8.845  0.00  0.00    +0.024 C 
ATOM     21  C   UNL     1      -6.737  -0.902  -9.137  0.00  0.00    +0.091 C 
ATOM     22  C   UNL     1      -7.501  -1.408  -7.992  0.00  0.00    +0.332 C 
ATOM     23  O   UNL     1      -8.712  -1.499  -7.945  0.00  0.00    -0.246 OA
ATOM     24  O   UNL     1      -6.659  -1.759  -7.001  0.00  0.00    -0.454 OA
ENDBRANCH  17  19
BRANCH   1  26
ATOM     25  N   UNL     1      -3.432  -3.990  -0.373  0.00  0.00    -0.295 NA
ATOM     26  C   UNL     1      -3.056  -3.060  -1.167  0.00  0.00    +0.087 C 
BRANCH  25  27
ATOM     27  C   UNL     1      -2.513  -5.080  -0.035  0.00  0.00    +0.141 C 
BRANCH  27  28
ATOM     28  C   UNL     1      -2.559  -5.336   1.473  0.00  0.00    +0.023 C 
BRANCH  28  30
ATOM     29  C   UNL     1      -1.664  -6.755   3.324  0.00  0.00    +0.004 C 
ATOM     30  C   UNL     1      -1.721  -6.572   1.806  0.00  0.00    -0.002 C 
ENDBRANCH  28  30
ENDBRANCH  27  28
ENDBRANCH  25  27
ENDBRANCH   1  26
BRANCH  14  31
ATOM     31  O   UNL     1      -3.367   0.905  -4.312  0.00  0.00    -0.388 OA
ATOM     32  H   UNL     1      -2.550   1.351  -4.050  0.00  0.00    +0.210 HD
ENDBRANCH  14  31
BRANCH   6  33
ATOM     33  O   UNL     1      -0.251  -3.482  -0.763  0.00  0.00    -0.388 OA
ATOM     34  H   UNL     1       0.579  -3.120  -0.423  0.00  0.00    +0.210 HD
ENDBRANCH   6  33
BRANCH   4  35
ATOM     35  O   UNL     1       0.766  -5.313  -2.124  0.00  0.00    -0.392 OA
ATOM     36  H   UNL     1       0.828  -6.276  -2.186  0.00  0.00    +0.210 HD
ENDBRANCH   4  35
TORSDOF 8
