REMARK  Name = ZINC34999503
REMARK  12 active torsions:
REMARK  status: ('A' for Active; 'I' for Inactive)
REMARK    1  A    between atoms: C_1  and  C_2
REMARK    2  A    between atoms: C_2  and  C_37
REMARK    3  A    between atoms: C_7  and  C_11
REMARK    4  A    between atoms: C_11  and  N_12
REMARK    5  A    between atoms: N_12  and  C_13
REMARK    6  A    between atoms: C_13  and  C_14
REMARK    7  A    between atoms: C_14  and  N_15
REMARK    8  A    between atoms: N_23  and  C_24
REMARK    9  A    between atoms: C_24  and  C_25
REMARK   10  A    between atoms: C_24  and  C_26
REMARK   11  A    between atoms: C_24  and  C_27
REMARK   12  A    between atoms: C_28  and  C_30
REMARK                            x       y       z     vdW  Elec       q    Type
REMARK                         _______ _______ _______ _____ _____    ______ ____
ROOT
ATOM      1  N   UNL     1       2.491  -2.872   0.061  0.00  0.00    -0.295 N 
ATOM      2  C   UNL     1       2.605  -3.882  -0.825  0.00  0.00    +0.248 C 
ATOM      3  O   UNL     1       2.273  -5.008  -0.509  0.00  0.00    -0.270 OA
ENDROOT
BRANCH   2   4
ATOM      4  C   UNL     1       3.134  -3.620  -2.179  0.00  0.00    +0.055 A 
ATOM      5  C   UNL     1       4.115  -2.645  -2.373  0.00  0.00    +0.014 A 
ATOM      6  C   UNL     1       4.604  -2.406  -3.640  0.00  0.00    +0.001 A 
ATOM      7  C   UNL     1       4.125  -3.129  -4.719  0.00  0.00    +0.001 A 
ATOM      8  C   UNL     1       3.154  -4.096  -4.536  0.00  0.00    +0.021 A 
ATOM      9  C   UNL     1       2.659  -4.351  -3.271  0.00  0.00    +0.053 A 
ATOM     10 CL   UNL     1       1.445  -5.570  -3.041  0.00  0.00    -0.083 Cl
ENDBRANCH   2   4
BRANCH   1  11
ATOM     11  C   UNL     1       1.825  -3.097   1.346  0.00  0.00    +0.138 C 
BRANCH  11  17
ATOM     12  C   UNL     1      -1.817  -0.161  -0.545  0.00  0.00    +0.012 C 
ATOM     13  C   UNL     1      -1.338  -1.549  -0.115  0.00  0.00    -0.025 C 
ATOM     14  C   UNL     1      -2.253  -2.231   0.922  0.00  0.00    -0.000 C 
ATOM     15  C   UNL     1      -1.958  -3.735   1.005  0.00  0.00    +0.031 C 
ATOM     16  C   UNL     1      -0.475  -3.953   1.183  0.00  0.00    -0.025 C 
ATOM     17  C   UNL     1       0.338  -2.922   1.180  0.00  0.00    -0.053 C 
ATOM     18  C   UNL     1      -0.287  -1.525   1.009  0.00  0.00    +0.022 C 
ATOM     19  C   UNL     1      -1.496  -1.396   1.968  0.00  0.00    +0.012 C 
ATOM     20  C   UNL     1      -0.961  -2.445  -1.297  0.00  0.00    +0.012 C 
ENDBRANCH  11  17
ENDBRANCH   1  11
BRANCH   1  21
ATOM     21  C   UNL     1       3.031  -1.550  -0.263  0.00  0.00    +0.090 C 
BRANCH  21  22
ATOM     22  C   UNL     1       4.330  -1.325   0.515  0.00  0.00    -0.059 C 
BRANCH  22  23
ATOM     23  N   UNL     1       4.872   0.001   0.191  0.00  0.00    +0.383 N 
ATOM     24  C   UNL     1       3.942   1.036   0.660  0.00  0.00    -0.059 C 
ATOM     25  C   UNL     1       4.450   2.414   0.222  0.00  0.00    +0.091 C 
ATOM     26  N   UNL     1       5.831   2.576   0.701  0.00  0.00    -0.289 N 
ATOM     27  C   UNL     1       6.795   1.502   0.414  0.00  0.00    +0.091 C 
ATOM     28  C   UNL     1       6.177   0.167   0.844  0.00  0.00    -0.059 C 
ATOM     29  C   UNL     1       6.203   3.677   1.383  0.00  0.00    +0.302 C 
ATOM     30  O   UNL     1       5.374   4.511   1.691  0.00  0.00    -0.253 OA
ATOM     31  N   UNL     1       7.495   3.854   1.724  0.00  0.00    -0.295 N 
ATOM     32  H   UNL     1       8.168   3.228   1.415  0.00  0.00    +0.151 HD
ATOM     33  H   UNL     1       4.984   0.082  -0.809  0.00  0.00    -0.082 HD
BRANCH  31  34
ATOM     34  C   UNL     1       7.883   4.994   2.559  0.00  0.00    +0.028 C 
ATOM     35  C   UNL     1       7.155   4.912   3.902  0.00  0.00    +0.031 C 
ATOM     36  C   UNL     1       9.394   4.962   2.796  0.00  0.00    +0.031 C 
ATOM     37  C   UNL     1       7.505   6.297   1.852  0.00  0.00    +0.031 C 
ENDBRANCH  31  34
ENDBRANCH  22  23
ENDBRANCH  21  22
ENDBRANCH   1  21
TORSDOF 7
