REMARK  Name = ZINC59099055
REMARK  5 active torsions:
REMARK  status: ('A' for Active; 'I' for Inactive)
REMARK    1  A    between atoms: C_1  and  C_2
REMARK    2  A    between atoms: N_4  and  C_5
REMARK    3  A    between atoms: C_8  and  C_11
REMARK    4  A    between atoms: N_12  and  N_13
REMARK    5  A    between atoms: C_17  and  C_20
REMARK                            x       y       z     vdW  Elec       q    Type
REMARK                         _______ _______ _______ _____ _____    ______ ____
ROOT
ATOM      1  N   UNL     1      -2.486  -8.225  -0.560  0.00  0.00    -0.124 NA
ATOM      2  C   UNL     1      -3.649  -8.852  -0.648  0.00  0.00    +0.192 A 
ATOM      3  N   UNL     1      -3.904 -10.199  -0.745  0.00  0.00    -0.332 N 
ATOM      4  H   UNL     1      -3.176 -10.840  -0.756  0.00  0.00    +0.168 HD
ATOM      5  C   UNL     1      -5.202 -10.617  -0.825  0.00  0.00    +0.055 A 
ATOM      6  C   UNL     1      -6.199  -9.707  -0.808  0.00  0.00    +0.075 A 
ATOM      7  S   UNL     1      -5.300  -8.171  -0.665  0.00  0.00    -0.056 S 
ENDROOT
BRANCH   5   8
ATOM      8  C   UNL     1      -5.514 -12.059  -0.931  0.00  0.00    -0.001 A 
ATOM      9  C   UNL     1      -4.482 -13.000  -0.944  0.00  0.00    +0.011 A 
ATOM     10  C   UNL     1      -4.779 -14.343  -1.042  0.00  0.00    +0.016 A 
ATOM     11  C   UNL     1      -6.097 -14.759  -1.129  0.00  0.00    +0.018 A 
ATOM     12  C   UNL     1      -7.124 -13.831  -1.116  0.00  0.00    +0.016 A 
ATOM     13  C   UNL     1      -6.840 -12.485  -1.013  0.00  0.00    +0.011 A 
ATOM     14 BR   UNL     1      -6.495 -16.603  -1.264  0.00  0.00    -0.050 Br
ENDBRANCH   5   8
BRANCH   1  16
ATOM     15  C   UNL     1      -1.304  -6.319  -0.383  0.00  0.00    +0.143 C 
ATOM     16  N   UNL     1      -2.452  -6.939  -0.470  0.00  0.00    -0.155 NA
BRANCH  15  20
ATOM     17  C   UNL     1      -1.192  -2.088  -0.088  0.00  0.00    +0.033 A 
ATOM     18  C   UNL     1      -0.007  -2.814  -0.091  0.00  0.00    +0.024 A 
ATOM     19  C   UNL     1      -0.038  -4.188  -0.187  0.00  0.00    +0.011 A 
ATOM     20  C   UNL     1      -1.265  -4.853  -0.280  0.00  0.00    -0.005 A 
ATOM     21  C   UNL     1      -2.456  -4.118  -0.277  0.00  0.00    +0.011 A 
ATOM     22  C   UNL     1      -2.415  -2.745  -0.176  0.00  0.00    +0.024 A 
BRANCH  17  26
ATOM     23  C   UNL     1      -0.177   1.504  -0.566  0.00  0.00    +0.109 C 
ATOM     24  C   UNL     1      -0.161  -0.003  -0.582  0.00  0.00    +0.214 C 
ATOM     25  O   UNL     1       0.747  -0.594  -1.127  0.00  0.00    -0.276 OA
ATOM     26  N   UNL     1      -1.156  -0.694   0.009  0.00  0.00    -0.286 N 
ATOM     27  H   UNL     1      -1.846  -0.224   0.502  0.00  0.00    +0.155 HD
ENDBRANCH  17  26
ENDBRANCH  15  20
ENDBRANCH   1  16
TORSDOF 4
