REMARK  Name = ZINC46053833
REMARK  3 active torsions:
REMARK  status: ('A' for Active; 'I' for Inactive)
REMARK    1  A    between atoms: C_1  and  C_2
REMARK    2  A    between atoms: N_6  and  S_14
REMARK    3  A    between atoms: S_14  and  C_17
REMARK                            x       y       z     vdW  Elec       q    Type
REMARK                         _______ _______ _______ _____ _____    ______ ____
ROOT
ATOM      1  S   UNL     1       2.923  -3.142  -0.744  0.00  0.00    +0.075 S 
ATOM      2  O   UNL     1       3.172  -4.306   0.033  0.00  0.00    -0.150 OA
ATOM      3  O   UNL     1       3.161  -3.095  -2.144  0.00  0.00    -0.150 OA
ENDROOT
BRANCH   1   8
ATOM      4  C   UNL     1      -0.019   1.526   0.010  0.00  0.00    +0.019 C 
ATOM      5  C   UNL     1       0.002  -0.004   0.002  0.00  0.00    +0.050 C 
ATOM      6  C   UNL     1       0.709  -0.492  -1.253  0.00  0.00    +0.035 C 
ATOM      7  C   UNL     1       0.596  -1.969  -1.525  0.00  0.00    +0.133 C 
ATOM      8  N   UNL     1       1.327  -2.758  -0.522  0.00  0.00    -0.202 N 
ATOM      9  C   UNL     1       0.642  -3.176   0.625  0.00  0.00    +0.065 A 
ATOM     10  C   UNL     1       0.292  -4.514   0.769  0.00  0.00    +0.026 A 
ATOM     11  C   UNL     1      -0.427  -4.918   1.880  0.00  0.00    +0.002 A 
ATOM     12  C   UNL     1      -0.805  -4.006   2.847  0.00  0.00    +0.001 A 
ATOM     13  C   UNL     1      -0.445  -2.674   2.721  0.00  0.00    +0.016 A 
ATOM     14  C   UNL     1       0.293  -2.277   1.623  0.00  0.00    +0.031 A 
ATOM     15  S   UNL     1       0.875  -0.603   1.479  0.00  0.00    -0.120 S 
ENDBRANCH   1   8
BRANCH   1  16
ATOM     16  C   UNL     1       3.876  -1.845  -0.026  0.00  0.00    +0.111 A 
ATOM     17  C   UNL     1       4.238  -0.752  -0.792  0.00  0.00    +0.030 A 
ATOM     18  C   UNL     1       4.989   0.263  -0.231  0.00  0.00    +0.018 A 
ATOM     19  C   UNL     1       5.378   0.191   1.101  0.00  0.00    +0.029 A 
ATOM     20  C   UNL     1       5.009  -0.903   1.877  0.00  0.00    +0.043 A 
ATOM     21  C   UNL     1       4.253  -1.921   1.299  0.00  0.00    +0.052 A 
ATOM     22  N   UNL     1       5.350  -1.022   3.225  0.00  0.00    -0.342 N 
ATOM     23  C   UNL     1       6.434  -0.264   3.841  0.00  0.00    +0.112 C 
ATOM     24  C   UNL     1       6.205   1.231   3.576  0.00  0.00    +0.093 C 
ATOM     25  S   UNL     1       6.345   1.500   1.783  0.00  0.00    -0.122 S 
ATOM     26  H   UNL     1       4.842  -1.637   3.778  0.00  0.00    +0.146 HD
ENDBRANCH   1  16
TORSDOF 2
