REMARK  Name = ZINC00065124
REMARK  4 active torsions:
REMARK  status: ('A' for Active; 'I' for Inactive)
REMARK    1  A    between atoms: C_4  and  C_7
REMARK    2  A    between atoms: C_10  and  C_13
REMARK    3  A    between atoms: N_15  and  N_16
REMARK    4  A    between atoms: C_17  and  C_18
REMARK                            x       y       z     vdW  Elec       q    Type
REMARK                         _______ _______ _______ _____ _____    ______ ____
ROOT
ATOM      1  C   UNL     1       1.446   7.795   0.030  0.00  0.00    +0.263 C 
ATOM      2  O   UNL     1       0.240   7.950   0.042  0.00  0.00    -0.268 OA
ATOM      3  N   UNL     1       1.965   6.551   0.018  0.00  0.00    -0.203 N 
ATOM      4  H   UNL     1       2.927   6.427   0.009  0.00  0.00    +0.178 HD
ENDROOT
BRANCH   1   8
ATOM      5  C   UNL     1       4.024  11.173   0.024  0.00  0.00    -0.018 A 
ATOM      6  C   UNL     1       2.640  11.352   0.038  0.00  0.00    +0.009 A 
ATOM      7  C   UNL     1       1.804  10.258   0.040  0.00  0.00    +0.014 A 
ATOM      8  C   UNL     1       2.342   8.969   0.028  0.00  0.00    +0.038 A 
ATOM      9  C   UNL     1       3.728   8.791   0.020  0.00  0.00    +0.014 A 
ATOM     10  C   UNL     1       4.562   9.886   0.012  0.00  0.00    +0.009 A 
BRANCH   5  14
ATOM     11  C   UNL     1       6.603  14.553   0.017  0.00  0.00    +0.000 A 
ATOM     12  C   UNL     1       7.139  13.277   0.005  0.00  0.00    +0.001 A 
ATOM     13  C   UNL     1       6.306  12.177   0.007  0.00  0.00    +0.008 A 
ATOM     14  C   UNL     1       4.923  12.352   0.022  0.00  0.00    -0.018 A 
ATOM     15  C   UNL     1       4.389  13.639   0.028  0.00  0.00    +0.008 A 
ATOM     16  C   UNL     1       5.231  14.733   0.031  0.00  0.00    +0.001 A 
ENDBRANCH   5  14
ENDBRANCH   1   8
BRANCH   3  17
ATOM     17  N   UNL     1       1.115   5.437   0.020  0.00  0.00    -0.187 NA
ATOM     18  C   UNL     1       1.616   4.238   0.009  0.00  0.00    +0.140 C 
BRANCH  18  19
ATOM     19  C   UNL     1       0.723   3.068   0.011  0.00  0.00    +0.020 A 
ATOM     20  C   UNL     1       1.097   1.760   0.001  0.00  0.00    +0.093 A 
ATOM     21  N   UNL     1      -0.011   0.966   0.007  0.00  0.00    -0.360 N 
ATOM     22  H   UNL     1       0.002  -0.004   0.002  0.00  0.00    +0.165 HD
ATOM     23  C   UNL     1      -1.153   1.739   0.016  0.00  0.00    +0.047 A 
ATOM     24  C   UNL     1      -0.751   3.085   0.025  0.00  0.00    +0.008 A 
ATOM     25  C   UNL     1      -1.706   4.098   0.039  0.00  0.00    +0.010 A 
ATOM     26  C   UNL     1      -3.045   3.774   0.050  0.00  0.00    +0.001 A 
ATOM     27  C   UNL     1      -3.443   2.445   0.046  0.00  0.00    +0.002 A 
ATOM     28  C   UNL     1      -2.510   1.432   0.033  0.00  0.00    +0.026 A 
ENDBRANCH  18  19
ENDBRANCH   3  17
TORSDOF 4
