REMARK  Name = ZINC11980576
REMARK  10 active torsions:
REMARK  status: ('A' for Active; 'I' for Inactive)
REMARK    1  A    between atoms: C_1  and  C_2
REMARK    2  A    between atoms: C_2  and  O_3
REMARK    3  A    between atoms: O_3  and  C_4
REMARK    4  A    between atoms: C_9  and  N_12
REMARK    5  A    between atoms: C_13  and  C_15
REMARK    6  A    between atoms: C_23  and  C_25
REMARK    7  A    between atoms: C_23  and  C_26
REMARK    8  A    between atoms: C_23  and  N_75
REMARK    9  A    between atoms: C_26  and  C_27
REMARK   10  A    between atoms: C_27  and  C_28
REMARK                            x       y       z     vdW  Elec       q    Type
REMARK                         _______ _______ _______ _____ _____    ______ ____
ROOT
ATOM      1  C   UNL     1       7.732  -1.236  -0.867  0.00  0.00    +0.082 C 
ATOM      2  C   UNL     1       7.291  -1.407   0.588  0.00  0.00    +0.020 C 
ATOM      3  C   UNL     1       7.034  -0.089  -0.139  0.00  0.00    -0.021 C 
ATOM      4  C   UNL     1       7.881   1.125   0.258  0.00  0.00    -0.011 C 
ATOM      5  C   UNL     1       7.770   2.182  -0.847  0.00  0.00    -0.078 C 
ATOM      6  C   UNL     1       5.617   1.347  -1.597  0.00  0.00    -0.078 C 
ATOM      7  C   UNL     1       5.592   0.239  -0.539  0.00  0.00    -0.011 C 
ATOM      8  N   UNL     1       6.343   2.514  -1.048  0.00  0.00    +0.381 N 
ATOM      9  H   UNL     1       5.930   2.766  -0.142  0.00  0.00    -0.081 HD
ENDROOT
BRANCH   1  11
ATOM     10  N   UNL     1       6.928  -1.512  -3.190  0.00  0.00    -0.312 N 
ATOM     11  C   UNL     1       6.947  -1.971  -1.923  0.00  0.00    +0.217 C 
ATOM     12  O   UNL     1       6.333  -2.975  -1.633  0.00  0.00    -0.275 OA
ATOM     13  H   UNL     1       7.419  -0.708  -3.422  0.00  0.00    +0.149 HD
BRANCH  10  19
ATOM     14  C   UNL     1       5.945  -3.368  -8.156  0.00  0.00    +0.403 C 
ATOM     15  O   UNL     1       5.529  -2.572  -8.975  0.00  0.00    -0.226 OA
ATOM     16  N   UNL     1       5.710  -3.169  -6.844  0.00  0.00    -0.267 N 
ATOM     17  C   UNL     1       4.952  -1.996  -6.388  0.00  0.00    +0.113 C 
ATOM     18  C   UNL     1       5.779  -1.254  -5.334  0.00  0.00    +0.041 C 
ATOM     19  C   UNL     1       6.165  -2.226  -4.216  0.00  0.00    +0.076 C 
ATOM     20  C   UNL     1       7.020  -3.356  -4.794  0.00  0.00    +0.041 C 
ATOM     21  C   UNL     1       6.206  -4.122  -5.842  0.00  0.00    +0.113 C 
BRANCH  14  22
ATOM     22  O   UNL     1       6.641  -4.447  -8.559  0.00  0.00    -0.451 OA
BRANCH  22  24
ATOM     23  C   UNL     1       7.659  -5.872 -10.251  0.00  0.00    +0.048 C 
ATOM     24  C   UNL     1       6.856  -4.597  -9.988  0.00  0.00    +0.230 C 
ENDBRANCH  22  24
ENDBRANCH  14  22
ENDBRANCH  10  19
ENDBRANCH   1  11
BRANCH   8  25
ATOM     25  C   UNL     1       6.218   3.663  -1.967  0.00  0.00    -0.071 C 
ATOM     26  C   UNL     1       6.621   3.264  -3.388  0.00  0.00    -0.013 C 
BRANCH  25  27
ATOM     27  C   UNL     1       4.764   4.138  -1.964  0.00  0.00    -0.011 C 
BRANCH  27  28
ATOM     28  C   UNL     1       4.399   4.654  -0.571  0.00  0.00    +0.036 C 
BRANCH  28  29
ATOM     29  C   UNL     1       2.966   5.122  -0.568  0.00  0.00    -0.022 A 
ATOM     30  C   UNL     1       2.537   6.380  -0.756  0.00  0.00    +0.087 A 
ATOM     31  N   UNL     1       1.171   6.422  -0.685  0.00  0.00    -0.360 N 
ATOM     32  H   UNL     1       0.632   7.222  -0.788  0.00  0.00    +0.165 HD
ATOM     33  C   UNL     1       0.676   5.161  -0.443  0.00  0.00    +0.047 A 
ATOM     34  C   UNL     1       1.778   4.291  -0.359  0.00  0.00    +0.003 A 
ATOM     35  C   UNL     1       1.576   2.931  -0.117  0.00  0.00    +0.010 A 
ATOM     36  C   UNL     1       0.306   2.451   0.037  0.00  0.00    +0.001 A 
ATOM     37  C   UNL     1      -0.786   3.304  -0.050  0.00  0.00    +0.002 A 
ATOM     38  C   UNL     1      -0.608   4.651  -0.283  0.00  0.00    +0.026 A 
ENDBRANCH  28  29
ENDBRANCH  27  28
ENDBRANCH  25  27
ENDBRANCH   8  25
TORSDOF 8
