REMARK  Name = ZINC15932181
REMARK  6 active torsions:
REMARK  status: ('A' for Active; 'I' for Inactive)
REMARK    1  A    between atoms: C_1  and  C_2
REMARK    2  A    between atoms: C_2  and  C_34
REMARK    3  A    between atoms: C_6  and  C_26
REMARK    4  A    between atoms: N_8  and  C_16
REMARK    5  A    between atoms: C_16  and  N_18
REMARK    6  A    between atoms: N_18  and  C_19
REMARK                            x       y       z     vdW  Elec       q    Type
REMARK                         _______ _______ _______ _____ _____    ______ ____
ROOT
ATOM      1  C   UNL     1       2.280   4.420  -1.613  0.00  0.00    +0.011 C 
ATOM      2  C   UNL     1       3.303   3.637  -0.787  0.00  0.00    -0.023 C 
ATOM      3  C   UNL     1       2.712   2.291  -0.372  0.00  0.00    +0.058 C 
ATOM      4  C   UNL     1       1.458   2.509   0.459  0.00  0.00    +0.017 C 
ATOM      5  C   UNL     1       1.348   3.587   1.254  0.00  0.00    +0.040 C 
ATOM      6  C   UNL     1       0.164   3.926   2.128  0.00  0.00    +0.181 C 
ATOM      7  N   UNL     1      -0.801   2.857   2.268  0.00  0.00    -0.266 N 
ATOM      8  C   UNL     1      -1.522   2.395   1.169  0.00  0.00    +0.058 A 
ATOM      9  C   UNL     1      -2.895   2.569   1.083  0.00  0.00    +0.025 A 
ATOM     10  C   UNL     1      -3.564   2.152  -0.054  0.00  0.00    +0.002 A 
ATOM     11  C   UNL     1      -2.874   1.568  -1.100  0.00  0.00    +0.002 A 
ATOM     12  C   UNL     1      -1.506   1.369  -1.008  0.00  0.00    +0.025 A 
ATOM     13  C   UNL     1      -0.840   1.762   0.134  0.00  0.00    +0.053 A 
ATOM     14  N   UNL     1       0.518   1.537   0.329  0.00  0.00    -0.316 N 
ATOM     15  C   UNL     1       2.395   4.537   1.317  0.00  0.00    +0.163 C 
ATOM     16  O   UNL     1       2.279   5.488   2.065  0.00  0.00    -0.292 OA
ATOM     17  C   UNL     1       3.641   4.412   0.492  0.00  0.00    +0.086 C 
ATOM     18  C   UNL     1       4.573   3.415  -1.610  0.00  0.00    +0.011 C 
ATOM     19  H   UNL     1       0.818   0.615   0.371  0.00  0.00    +0.152 HD
ENDROOT
BRANCH   6  20
ATOM     20  C   UNL     1      -0.535   5.126   1.541  0.00  0.00    +0.130 A 
ATOM     21  C   UNL     1      -0.406   6.396   1.965  0.00  0.00    +0.047 A 
ATOM     22  C   UNL     1      -1.233   7.190   1.137  0.00  0.00    +0.041 A 
ATOM     23  C   UNL     1      -1.818   6.357   0.258  0.00  0.00    +0.195 A 
ATOM     24  O   UNL     1      -1.387   5.109   0.504  0.00  0.00    -0.466 OA
ENDBRANCH   6  20
BRANCH   7  25
ATOM     25  C   UNL     1      -1.005   2.300   3.479  0.00  0.00    +0.142 C 
ATOM     26  S   UNL     1      -0.126   2.860   4.837  0.00  0.00    -0.018 S 
BRANCH  25  27
ATOM     27  N   UNL     1      -1.901   1.303   3.620  0.00  0.00    -0.296 N 
ATOM     28  H   UNL     1      -2.442   1.027   2.864  0.00  0.00    +0.154 HD
BRANCH  27  29
ATOM     29  C   UNL     1      -2.051   0.667   4.857  0.00  0.00    +0.033 A 
ATOM     30  C   UNL     1      -2.131  -0.718   4.922  0.00  0.00    +0.025 A 
ATOM     31  C   UNL     1      -2.275  -1.343   6.145  0.00  0.00    +0.022 A 
ATOM     32  C   UNL     1      -2.349  -0.591   7.304  0.00  0.00    +0.041 A 
ATOM     33  C   UNL     1      -2.273   0.790   7.242  0.00  0.00    +0.022 A 
ATOM     34  C   UNL     1      -2.125   1.420   6.022  0.00  0.00    +0.025 A 
ATOM     35 CL   UNL     1      -2.535  -1.380   8.839  0.00  0.00    -0.084 Cl
ENDBRANCH  27  29
ENDBRANCH  25  27
ENDBRANCH   7  25
TORSDOF 4
