REMARK  Name = ZINC14273341
REMARK  7 active torsions:
REMARK  status: ('A' for Active; 'I' for Inactive)
REMARK    1  A    between atoms: C_1  and  C_2
REMARK    2  A    between atoms: C_9  and  N_14
REMARK    3  A    between atoms: C_10  and  C_11
REMARK    4  A    between atoms: C_15  and  C_17
REMARK    5  A    between atoms: C_18  and  C_19
REMARK    6  A    between atoms: C_24  and  O_25
REMARK    7  A    between atoms: O_25  and  C_26
REMARK                            x       y       z     vdW  Elec       q    Type
REMARK                         _______ _______ _______ _____ _____    ______ ____
ROOT
ATOM      1  C   UNL     1      -4.140  -2.530  -4.657  0.00  0.00    +0.008 C 
ATOM      2  C   UNL     1      -3.179  -2.301  -3.489  0.00  0.00    -0.009 C 
ATOM      3  C   UNL     1      -2.514  -0.929  -3.629  0.00  0.00    +0.008 C 
ATOM      4  C   UNL     1      -1.378  -0.796  -2.613  0.00  0.00    +0.037 C 
ATOM      5  C   UNL     1      -1.919  -1.128  -1.228  0.00  0.00    -0.023 A 
ATOM      6  C   UNL     1      -3.069  -1.821  -1.079  0.00  0.00    -0.004 A 
ATOM      7  S   UNL     1      -3.285  -1.968   0.672  0.00  0.00    -0.077 S 
ATOM      8  C   UNL     1      -1.865  -1.129   1.201  0.00  0.00    +0.085 A 
ATOM      9  C   UNL     1      -1.257  -0.754   0.010  0.00  0.00    +0.068 A 
ATOM     10  C   UNL     1      -3.959  -2.340  -2.166  0.00  0.00    +0.046 C 
ENDROOT
BRANCH   9  11
ATOM     11  C   UNL     1       0.002  -0.004   0.002  0.00  0.00    +0.244 C 
ATOM     12  O   UNL     1       1.064  -0.598  -0.011  0.00  0.00    -0.270 OA
ATOM     13  N   UNL     1      -0.016   1.344   0.009  0.00  0.00    -0.325 N 
ATOM     14  H   UNL     1       0.817   1.840   0.004  0.00  0.00    +0.145 HD
ATOM     15  H   UNL     1      -0.863   1.817   0.016  0.00  0.00    +0.145 HD
ENDBRANCH   9  11
BRANCH   8  16
ATOM     16  N   UNL     1      -1.439  -0.890   2.497  0.00  0.00    -0.276 N 
ATOM     17  C   UNL     1      -2.168  -1.335   3.539  0.00  0.00    +0.241 C 
ATOM     18  O   UNL     1      -3.201  -1.947   3.341  0.00  0.00    -0.270 OA
ATOM     19  H   UNL     1      -0.615  -0.402   2.654  0.00  0.00    +0.156 HD
BRANCH  17  20
ATOM     20  C   UNL     1      -1.718  -1.083   4.907  0.00  0.00    +0.068 C 
ATOM     21  C   UNL     1      -2.449  -1.529   5.951  0.00  0.00    +0.016 C 
BRANCH  21  22
ATOM     22  C   UNL     1      -1.997  -1.275   7.326  0.00  0.00    +0.018 A 
ATOM     23  C   UNL     1      -0.807  -0.577   7.558  0.00  0.00    +0.026 A 
ATOM     24  C   UNL     1      -0.392  -0.338   8.850  0.00  0.00    +0.019 A 
ATOM     25  C   UNL     1      -1.143  -0.796   9.922  0.00  0.00    +0.019 A 
ATOM     26  C   UNL     1      -2.317  -1.492   9.707  0.00  0.00    +0.047 A 
ATOM     27  C   UNL     1      -2.753  -1.737   8.415  0.00  0.00    +0.127 A 
ATOM     28 BR   UNL     1       1.212   0.614   9.164  0.00  0.00    -0.050 Br
BRANCH  27  29
ATOM     29  O   UNL     1      -3.907  -2.420   8.203  0.00  0.00    -0.495 OA
ATOM     30  C   UNL     1      -4.623  -2.858   9.359  0.00  0.00    +0.277 C 
ENDBRANCH  27  29
ENDBRANCH  21  22
ENDBRANCH  17  20
ENDBRANCH   8  16
TORSDOF 5
