REMARK  Name = ZINC66627646
REMARK  12 active torsions:
REMARK  status: ('A' for Active; 'I' for Inactive)
REMARK    1  A    between atoms: C_1  and  C_2
REMARK    2  A    between atoms: C_3  and  N_12
REMARK    3  A    between atoms: C_7  and  S_8
REMARK    4  A    between atoms: S_8  and  N_11
REMARK    5  A    between atoms: C_13  and  C_15
REMARK    6  A    between atoms: C_15  and  C_16
REMARK    7  A    between atoms: C_16  and  C_17
REMARK    8  A    between atoms: C_17  and  C_18
REMARK    9  A    between atoms: C_21  and  C_24
REMARK   10  A    between atoms: C_24  and  C_25
REMARK   11  A    between atoms: C_24  and  C_26
REMARK   12  A    between atoms: C_24  and  C_27
REMARK                            x       y       z     vdW  Elec       q    Type
REMARK                         _______ _______ _______ _____ _____    ______ ____
ROOT
ATOM      1  N   UNL     1      -0.010   0.011  -2.413  0.00  0.00    -0.285 N 
ATOM      2  C   UNL     1       0.095  -0.653  -3.581  0.00  0.00    +0.217 C 
ATOM      3  O   UNL     1       0.113  -1.866  -3.590  0.00  0.00    -0.275 OA
ATOM      4  H   UNL     1      -0.105   0.977  -2.411  0.00  0.00    +0.155 HD
ENDROOT
BRANCH   1   7
ATOM      5  C   UNL     1      -1.263   1.189  -0.146  0.00  0.00    +0.048 C 
ATOM      6  C   UNL     1      -0.583  -0.153  -0.073  0.00  0.00    -0.003 A 
ATOM      7  C   UNL     1       0.017  -0.692  -1.204  0.00  0.00    +0.038 A 
ATOM      8  C   UNL     1       0.643  -1.929  -1.132  0.00  0.00    +0.024 A 
ATOM      9  C   UNL     1       0.668  -2.620   0.064  0.00  0.00    +0.004 A 
ATOM     10  C   UNL     1       0.069  -2.082   1.188  0.00  0.00    +0.029 A 
ATOM     11  C   UNL     1      -0.550  -0.847   1.121  0.00  0.00    +0.110 A 
BRANCH  11  12
ATOM     12  S   UNL     1      -1.305  -0.163   2.558  0.00  0.00    +0.056 S 
ATOM     13  O   UNL     1      -2.608   0.255   2.173  0.00  0.00    -0.153 OA
ATOM     14  O   UNL     1      -1.083  -1.087   3.614  0.00  0.00    -0.153 OA
BRANCH  12  15
ATOM     15  N   UNL     1      -0.464   1.210   2.946  0.00  0.00    -0.204 NA
ATOM     16  H   UNL     1       0.291   1.486   2.403  0.00  0.00    +0.144 HD
ATOM     17  H   UNL     1      -0.726   1.738   3.716  0.00  0.00    +0.144 HD
ENDBRANCH  12  15
ENDBRANCH  11  12
ENDBRANCH   1   7
BRANCH   2  18
ATOM     18  C   UNL     1       0.191   0.111  -4.877  0.00  0.00    +0.096 C 
BRANCH  18  19
ATOM     19  C   UNL     1       0.301  -0.874  -6.043  0.00  0.00    +0.014 C 
BRANCH  19  20
ATOM     20  C   UNL     1       0.398  -0.098  -7.358  0.00  0.00    +0.035 C 
BRANCH  20  21
ATOM     21  C   UNL     1       0.506  -1.068  -8.506  0.00  0.00    -0.047 A 
ATOM     22  C   UNL     1       1.748  -1.501  -8.931  0.00  0.00    +0.004 A 
ATOM     23  C   UNL     1       1.848  -2.390  -9.984  0.00  0.00    +0.004 A 
ATOM     24  C   UNL     1       0.704  -2.848 -10.613  0.00  0.00    -0.042 A 
ATOM     25  C   UNL     1      -0.538  -2.416 -10.187  0.00  0.00    +0.004 A 
ATOM     26  C   UNL     1      -0.637  -1.529  -9.131  0.00  0.00    +0.004 A 
BRANCH  24  27
ATOM     27  C   UNL     1       0.812  -3.817 -11.762  0.00  0.00    -0.013 C 
ATOM     28  C   UNL     1       1.510  -5.094 -11.288  0.00  0.00    +0.015 C 
ATOM     29  C   UNL     1      -0.588  -4.160 -12.273  0.00  0.00    +0.015 C 
ATOM     30  C   UNL     1       1.625  -3.180 -12.891  0.00  0.00    +0.015 C 
ENDBRANCH  24  27
ENDBRANCH  20  21
ENDBRANCH  19  20
ENDBRANCH  18  19
ENDBRANCH   2  18
TORSDOF 8
