REMARK  Name = ZINC03118070
REMARK  8 active torsions:
REMARK  status: ('A' for Active; 'I' for Inactive)
REMARK    1  A    between atoms: C_4  and  O_34
REMARK    2  A    between atoms: C_5  and  C_7
REMARK    3  A    between atoms: N_9  and  N_10
REMARK    4  A    between atoms: C_11  and  C_12
REMARK    5  A    between atoms: C_15  and  S_21
REMARK    6  A    between atoms: C_16  and  N_18
REMARK    7  A    between atoms: S_21  and  C_22
REMARK    8  A    between atoms: C_27  and  N_31
REMARK                            x       y       z     vdW  Elec       q    Type
REMARK                         _______ _______ _______ _____ _____    ______ ____
ROOT
ATOM      1  C   UNL     1      -0.952  -6.398  -0.027  0.00  0.00    -0.003 A 
ATOM      2  C   UNL     1       0.260  -7.079  -0.181  0.00  0.00    +0.011 A 
ATOM      3  C   UNL     1       0.278  -8.456  -0.187  0.00  0.00    +0.018 A 
ATOM      4  C   UNL     1      -0.907  -9.170  -0.040  0.00  0.00    +0.045 A 
ATOM      5  C   UNL     1      -2.115  -8.496   0.113  0.00  0.00    +0.141 A 
ATOM      6  C   UNL     1      -2.140  -7.119   0.126  0.00  0.00    +0.043 A 
ENDROOT
BRANCH   5   7
ATOM      7  N   UNL     1      -3.373  -9.260   0.268  0.00  0.00    +0.058 N 
ATOM      8  O   UNL     1      -4.423  -8.675   0.401  0.00  0.00    -0.126 OA
ATOM      9  O   UNL     1      -3.351 -10.469   0.262  0.00  0.00    -0.126 OA
ENDBRANCH   5   7
BRANCH   1  11
ATOM     10  N   UNL     1       0.129  -4.257  -0.163  0.00  0.00    -0.187 NA
ATOM     11  C   UNL     1      -0.976  -4.925  -0.020  0.00  0.00    +0.138 C 
BRANCH  10  14
ATOM     12  C   UNL     1       1.252  -2.163  -0.304  0.00  0.00    +0.267 C 
ATOM     13  O   UNL     1       2.307  -2.754  -0.443  0.00  0.00    -0.268 OA
ATOM     14  N   UNL     1       0.106  -2.856  -0.156  0.00  0.00    -0.203 N 
ATOM     15  H   UNL     1      -0.735  -2.385  -0.045  0.00  0.00    +0.178 HD
BRANCH  12  20
ATOM     16  C   UNL     1       0.004   1.372  -0.132  0.00  0.00    +0.001 A 
ATOM     17  C   UNL     1       1.183   2.085  -0.284  0.00  0.00    +0.004 A 
ATOM     18  C   UNL     1       2.384   1.423  -0.443  0.00  0.00    +0.046 A 
ATOM     19  C   UNL     1       2.418   0.037  -0.451  0.00  0.00    +0.129 A 
ATOM     20  C   UNL     1       1.228  -0.688  -0.297  0.00  0.00    +0.080 A 
ATOM     21  C   UNL     1       0.020  -0.006  -0.138  0.00  0.00    +0.017 A 
BRANCH  19  22
ATOM     22  O   UNL     1       3.598  -0.615  -0.607  0.00  0.00    -0.506 OA
ATOM     23  H   UNL     1       4.054  -0.806   0.224  0.00  0.00    +0.292 HD
ENDBRANCH  19  22
ENDBRANCH  12  20
ENDBRANCH  10  14
ENDBRANCH   1  11
BRANCH   4  24
ATOM     24  S   UNL     1      -0.879 -10.931  -0.048  0.00  0.00    -0.060 S 
BRANCH  24  25
ATOM     25  C   UNL     1      -1.463 -11.360  -1.654  0.00  0.00    +0.140 A 
ATOM     26  N   UNL     1      -1.751 -10.570  -2.664  0.00  0.00    -0.232 NA
ATOM     27  C   UNL     1      -2.194 -11.041  -3.850  0.00  0.00    +0.080 A 
ATOM     28  C   UNL     1      -2.538 -10.306  -5.008  0.00  0.00    +0.031 A 
ATOM     29  C   UNL     1      -2.975 -10.945  -6.139  0.00  0.00    +0.035 A 
ATOM     30  C   UNL     1      -3.096 -12.326  -6.190  0.00  0.00    +0.127 A 
ATOM     31  C   UNL     1      -2.768 -13.076  -5.075  0.00  0.00    +0.050 A 
ATOM     32  C   UNL     1      -2.330 -12.445  -3.939  0.00  0.00    +0.042 A 
ATOM     33  S   UNL     1      -1.807 -12.979  -2.327  0.00  0.00    -0.061 S 
BRANCH  30  34
ATOM     34  N   UNL     1      -3.571 -12.990  -7.425  0.00  0.00    +0.056 N 
ATOM     35  O   UNL     1      -3.856 -12.328  -8.396  0.00  0.00    -0.126 OA
ATOM     36  O   UNL     1      -3.675 -14.194  -7.463  0.00  0.00    -0.126 OA
ENDBRANCH  30  34
ENDBRANCH  24  25
ENDBRANCH   4  24
TORSDOF 8
