REMARK  Name = ZINC63194538
REMARK  8 active torsions:
REMARK  status: ('A' for Active; 'I' for Inactive)
REMARK    1  A    between atoms: C_1  and  C_2
REMARK    2  A    between atoms: C_4  and  C_30
REMARK    3  A    between atoms: C_8  and  N_25
REMARK    4  A    between atoms: C_9  and  C_11
REMARK    5  A    between atoms: N_13  and  C_14
REMARK    6  A    between atoms: C_14  and  C_15
REMARK    7  A    between atoms: C_17  and  C_24
REMARK    8  A    between atoms: C_19  and  C_23
REMARK                            x       y       z     vdW  Elec       q    Type
REMARK                         _______ _______ _______ _____ _____    ______ ____
ROOT
ATOM      1  C   UNL     1      -0.018   1.503   0.010  0.00  0.00    +0.044 C 
ATOM      2  C   UNL     1       0.002  -0.004   0.002  0.00  0.00    -0.037 A 
ATOM      3  C   UNL     1       0.006  -0.696  -1.186  0.00  0.00    +0.027 A 
ATOM      4  C   UNL     1       0.025  -2.082  -1.192  0.00  0.00    +0.040 A 
ATOM      5  N   UNL     1       0.039  -2.755  -0.057  0.00  0.00    -0.245 NA
ATOM      6  C   UNL     1       0.036  -2.139   1.105  0.00  0.00    +0.111 A 
ATOM      7  C   UNL     1       0.024  -0.730   1.219  0.00  0.00    +0.035 A 
ATOM      8  C   UNL     1       0.029  -0.220   2.581  0.00  0.00    +0.075 A 
ATOM      9  C   UNL     1       0.051  -1.124   3.617  0.00  0.00    +0.100 A 
ATOM     10  S   UNL     1       0.051  -2.702   2.789  0.00  0.00    -0.062 S 
ATOM     11  C   UNL     1       0.028  -2.826  -2.502  0.00  0.00    +0.065 C 
ENDROOT
BRANCH   8  12
ATOM     12  N   UNL     1       0.013   1.153   2.830  0.00  0.00    -0.321 N 
ATOM     13  C   UNL     1       1.002   2.035   2.496  0.00  0.00    +0.091 A 
ATOM     14  C   UNL     1       0.623   3.264   2.900  0.00  0.00    +0.019 A 
ATOM     15  C   UNL     1      -0.644   3.140   3.504  0.00  0.00    +0.019 A 
ATOM     16  C   UNL     1      -0.997   1.840   3.443  0.00  0.00    +0.091 A 
ENDBRANCH   8  12
BRANCH   9  17
ATOM     17  C   UNL     1       0.061  -0.854   5.056  0.00  0.00    +0.253 C 
ATOM     18  O   UNL     1       0.050   0.294   5.460  0.00  0.00    -0.270 OA
ATOM     19  N   UNL     1       0.083  -1.877   5.933  0.00  0.00    -0.310 N 
ATOM     20  H   UNL     1       0.092  -2.792   5.612  0.00  0.00    +0.149 HD
BRANCH  19  21
ATOM     21  C   UNL     1       0.093  -1.607   7.373  0.00  0.00    +0.121 C 
BRANCH  21  22
ATOM     22  C   UNL     1       0.118  -2.931   8.140  0.00  0.00    +0.120 C 
ATOM     23  C   UNL     1      -0.085  -2.624   9.612  0.00  0.00    -0.058 C 
ATOM     24  C   UNL     1       0.873  -3.024  10.462  0.00  0.00    +0.020 C 
ATOM     25  C   UNL     1       2.018  -3.701  10.001  0.00  0.00    +0.031 C 
ATOM     26  N   UNL     1       2.243  -3.990   8.748  0.00  0.00    -0.185 NA
ATOM     27  C   UNL     1       1.391  -3.664   7.769  0.00  0.00    +0.245 C 
ATOM     28  O   UNL     1       1.632  -3.948   6.613  0.00  0.00    -0.273 OA
ATOM     29  C   UNL     1       3.049  -4.117  11.017  0.00  0.00    +0.063 C 
ATOM     30  C   UNL     1      -1.312  -1.899  10.099  0.00  0.00    +0.040 C 
ENDBRANCH  21  22
ENDBRANCH  19  21
ENDBRANCH   9  17
TORSDOF 4
