REMARK  Name = ZINC37014181
REMARK  6 active torsions:
REMARK  status: ('A' for Active; 'I' for Inactive)
REMARK    1  A    between atoms: C_1  and  C_2
REMARK    2  A    between atoms: C_2  and  C_3
REMARK    3  A    between atoms: C_2  and  C_4
REMARK    4  A    between atoms: C_4  and  C_6
REMARK    5  A    between atoms: N_8  and  C_9
REMARK    6  A    between atoms: C_14  and  N_16
REMARK                            x       y       z     vdW  Elec       q    Type
REMARK                         _______ _______ _______ _____ _____    ______ ____
ROOT
ATOM      1  C   UNL     1       2.017  -3.857  -2.012  0.00  0.00    +0.096 C 
ATOM      2  C   UNL     1       1.790  -4.143  -3.511  0.00  0.00    +0.024 C 
ATOM      3  C   UNL     1       3.219  -4.301  -4.088  0.00  0.00    +0.004 C 
ATOM      4  C   UNL     1       3.964  -5.050  -2.955  0.00  0.00    +0.027 C 
ATOM      5  C   UNL     1       3.399  -4.434  -1.657  0.00  0.00    +0.108 C 
ENDROOT
BRANCH   5   6
ATOM      6  N   UNL     1       3.263  -5.469  -0.629  0.00  0.00    -0.334 N 
ATOM      7  C   UNL     1       2.544  -6.629  -0.734  0.00  0.00    +0.105 A 
ATOM      8  C   UNL     1       2.689  -7.284   0.433  0.00  0.00    +0.101 A 
ATOM      9  N   UNL     1       3.476  -6.545   1.230  0.00  0.00    -0.352 N 
ATOM     10  C   UNL     1       3.827  -5.458   0.598  0.00  0.00    +0.174 A 
ATOM     11  H   UNL     1       3.744  -6.782   2.131  0.00  0.00    +0.166 HD
ENDBRANCH   5   6
BRANCH   1  14
ATOM     12  C   UNL     1       0.831  -1.784  -1.530  0.00  0.00    +0.227 C 
ATOM     13  O   UNL     1      -0.205  -2.415  -1.518  0.00  0.00    -0.275 OA
ATOM     14  N   UNL     1       1.999  -2.413  -1.767  0.00  0.00    -0.310 N 
ATOM     15  H   UNL     1       2.828  -1.909  -1.776  0.00  0.00    +0.149 HD
BRANCH  12  16
ATOM     16  C   UNL     1       0.812  -0.299  -1.278  0.00  0.00    +0.145 C 
ATOM     17 BR   UNL     1       0.099   0.625  -2.861  0.00  0.00    -0.078 Br
BRANCH  16  19
ATOM     18  C   UNL     1       0.489  -0.701   1.166  0.00  0.00    +0.009 C 
ATOM     19  C   UNL     1      -0.075   0.003  -0.069  0.00  0.00    +0.005 C 
ATOM     20  C   UNL     1      -0.109   1.513   0.175  0.00  0.00    +0.009 C 
ENDBRANCH  16  19
ENDBRANCH  12  16
ENDBRANCH   1  14
TORSDOF 4
