REMARK  Name = ZINC17576975
REMARK  8 active torsions:
REMARK  status: ('A' for Active; 'I' for Inactive)
REMARK    1  A    between atoms: C_1  and  S_2
REMARK    2  A    between atoms: S_2  and  C_3
REMARK    3  A    between atoms: C_4  and  C_9
REMARK    4  A    between atoms: N_11  and  N_12
REMARK    5  A    between atoms: C_13  and  C_15
REMARK    6  A    between atoms: C_20  and  N_21
REMARK    7  A    between atoms: N_21  and  S_22
REMARK    8  A    between atoms: S_22  and  C_25
REMARK                            x       y       z     vdW  Elec       q    Type
REMARK                         _______ _______ _______ _____ _____    ______ ____
ROOT
ATOM      1  N   UNL     1      -4.690   3.710  -0.222  0.00  0.00    -0.230 N 
ATOM      2  C   UNL     1      -5.921   3.172  -0.118  0.00  0.00    +0.262 C 
ATOM      3  O   UNL     1      -6.050   1.971   0.026  0.00  0.00    -0.269 OA
ATOM      4  H   UNL     1      -4.587   4.667  -0.337  0.00  0.00    +0.173 HD
ENDROOT
BRANCH   2   5
ATOM      5  C   UNL     1      -7.112   4.039  -0.178  0.00  0.00    +0.060 A 
ATOM      6  C   UNL     1      -6.968   5.420  -0.338  0.00  0.00    +0.015 A 
ATOM      7  C   UNL     1      -8.085   6.224  -0.399  0.00  0.00    +0.001 A 
ATOM      8  C   UNL     1      -9.352   5.673  -0.292  0.00  0.00    +0.002 A 
ATOM      9  C   UNL     1      -9.510   4.312  -0.128  0.00  0.00    +0.025 A 
ATOM     10  C   UNL     1      -8.396   3.484  -0.070  0.00  0.00    +0.060 A 
BRANCH  10  11
ATOM     11  N   UNL     1      -8.553   2.114   0.094  0.00  0.00    -0.215 N 
ATOM     12  H   UNL     1      -7.914   1.613   0.625  0.00  0.00    +0.174 HD
BRANCH  11  13
ATOM     13  S   UNL     1      -9.831   1.336  -0.615  0.00  0.00    +0.079 S 
ATOM     14  O   UNL     1      -9.641  -0.053  -0.382  0.00  0.00    -0.149 OA
ATOM     15  O   UNL     1     -11.004   2.024  -0.205  0.00  0.00    -0.149 OA
BRANCH  13  16
ATOM     16  C   UNL     1      -9.688   1.578  -2.355  0.00  0.00    +0.146 A 
ATOM     17  C   UNL     1      -9.042   0.817  -3.272  0.00  0.00    +0.036 A 
ATOM     18  C   UNL     1      -9.064   1.205  -4.599  0.00  0.00    +0.010 A 
ATOM     19  C   UNL     1      -9.730   2.334  -4.943  0.00  0.00    +0.047 A 
ATOM     20  S   UNL     1     -10.362   2.885  -3.367  0.00  0.00    -0.077 S 
ENDBRANCH  13  16
ENDBRANCH  11  13
ENDBRANCH  10  11
ENDBRANCH   2   5
BRANCH   1  23
ATOM     21  C   UNL     1      -2.327   3.423  -0.269  0.00  0.00    +0.263 C 
ATOM     22  O   UNL     1      -2.198   4.624  -0.413  0.00  0.00    -0.269 OA
ATOM     23  N   UNL     1      -3.558   2.886  -0.164  0.00  0.00    -0.230 N 
ATOM     24  H   UNL     1      -3.661   1.928  -0.050  0.00  0.00    +0.173 HD
BRANCH  21  26
ATOM     25  C   UNL     1       0.154   3.104  -0.316  0.00  0.00    +0.109 A 
ATOM     26  C   UNL     1      -1.137   2.556  -0.208  0.00  0.00    +0.070 A 
ATOM     27  C   UNL     1      -1.270   1.173  -0.048  0.00  0.00    +0.017 A 
ATOM     28  C   UNL     1      -0.121   0.403   0.008  0.00  0.00    +0.020 A 
ATOM     29  C   UNL     1       1.115   1.014  -0.105  0.00  0.00    +0.112 A 
ATOM     30  N   UNL     1       1.220   2.319  -0.261  0.00  0.00    -0.248 NA
BRANCH  25  32
ATOM     31  C   UNL     1       2.161   4.943  -0.599  0.00  0.00    +0.091 C 
ATOM     32  S   UNL     1       0.355   4.842  -0.525  0.00  0.00    -0.109 S 
ENDBRANCH  25  32
ENDBRANCH  21  26
ENDBRANCH   1  23
TORSDOF 7
