REMARK  Name = ZINC09329496
REMARK  6 active torsions:
REMARK  status: ('A' for Active; 'I' for Inactive)
REMARK    1  A    between atoms: C_5  and  N_7
REMARK    2  A    between atoms: C_8  and  C_10
REMARK    3  A    between atoms: C_10  and  S_11
REMARK    4  A    between atoms: S_11  and  C_12
REMARK    5  A    between atoms: C_15  and  C_18
REMARK    6  A    between atoms: N_16  and  N_17
REMARK                            x       y       z     vdW  Elec       q    Type
REMARK                         _______ _______ _______ _____ _____    ______ ____
ROOT
ATOM      1  C   UNL     1      -1.372  -6.657   0.438  0.00  0.00    +0.209 A 
ATOM      2  N   UNL     1      -0.231  -7.309   0.429  0.00  0.00    -0.120 NA
ATOM      3  N   UNL     1      -0.444  -8.573   0.528  0.00  0.00    -0.125 NA
ATOM      4  C   UNL     1      -1.735  -8.805   0.605  0.00  0.00    +0.200 A 
ATOM      5  N   UNL     1      -2.369  -7.583   0.555  0.00  0.00    -0.223 N 
ENDROOT
BRANCH   4   6
ATOM      6  C   UNL     1      -2.383 -10.123   0.728  0.00  0.00    +0.108 A 
ATOM      7  C   UNL     1      -1.747 -11.347   0.789  0.00  0.00    +0.004 A 
ATOM      8  C   UNL     1      -2.728 -12.330   0.902  0.00  0.00    +0.067 A 
ATOM      9  N   UNL     1      -3.904 -11.748   0.909  0.00  0.00    -0.178 NA
ATOM     10  N   UNL     1      -3.723 -10.364   0.808  0.00  0.00    -0.273 N 
ATOM     11  H   UNL     1      -4.426  -9.695   0.794  0.00  0.00    +0.189 HD
ATOM     12  C   UNL     1      -2.072 -13.693   0.973  0.00  0.00    +0.058 C 
ATOM     13  C   UNL     1      -0.634 -13.478   0.454  0.00  0.00    +0.011 C 
ATOM     14  C   UNL     1      -0.378 -11.991   0.777  0.00  0.00    +0.039 C 
ENDBRANCH   4   6
BRANCH   5  15
ATOM     15  N   UNL     1      -3.713  -7.347   0.610  0.00  0.00    -0.295 N 
ATOM     16  H   UNL     1      -4.119  -7.351  -0.313  0.00  0.00    +0.163 HD
ATOM     17  H   UNL     1      -4.173  -8.016   1.210  0.00  0.00    +0.163 HD
ENDBRANCH   5  15
BRANCH   1  18
ATOM     18  S   UNL     1      -1.577  -4.910   0.325  0.00  0.00    -0.075 S 
BRANCH  18  19
ATOM     19  C   UNL     1       0.117  -4.277   0.192  0.00  0.00    +0.173 C 
BRANCH  19  21
ATOM     20  N   UNL     1       1.236  -2.081  -0.022  0.00  0.00    -0.283 N 
ATOM     21  C   UNL     1       0.085  -2.774   0.087  0.00  0.00    +0.228 C 
ATOM     22  O   UNL     1      -0.977  -2.187   0.102  0.00  0.00    -0.275 OA
ATOM     23  H   UNL     1       2.079  -2.552  -0.115  0.00  0.00    +0.155 HD
BRANCH  20  28
ATOM     24  C   UNL     1       0.153   1.372   0.637  0.00  0.00    +0.002 A 
ATOM     25  C   UNL     1       1.173   2.087   0.036  0.00  0.00    +0.003 A 
ATOM     26  C   UNL     1       2.214   1.423  -0.585  0.00  0.00    +0.040 A 
ATOM     27  C   UNL     1       2.239   0.040  -0.607  0.00  0.00    +0.144 A 
ATOM     28  C   UNL     1       1.215  -0.681  -0.002  0.00  0.00    +0.069 A 
ATOM     29  C   UNL     1       0.172  -0.009   0.620  0.00  0.00    +0.026 A 
ATOM     30  F   UNL     1       3.256  -0.609  -1.214  0.00  0.00    -0.204 F 
ENDBRANCH  20  28
ENDBRANCH  19  21
ENDBRANCH  18  19
ENDBRANCH   1  18
TORSDOF 6
