REMARK  Name = ZINC39637411
REMARK  7 active torsions:
REMARK  status: ('A' for Active; 'I' for Inactive)
REMARK    1  A    between atoms: C_1  and  C_2
REMARK    2  A    between atoms: C_7  and  N_12
REMARK    3  A    between atoms: C_9  and  C_11
REMARK    4  A    between atoms: C_13  and  C_15
REMARK    5  A    between atoms: C_26  and  C_28
REMARK    6  A    between atoms: C_33  and  O_34
REMARK    7  A    between atoms: O_34  and  C_35
REMARK                            x       y       z     vdW  Elec       q    Type
REMARK                         _______ _______ _______ _____ _____    ______ ____
ROOT
ATOM      1  C   UNL     1       1.915  -0.321   6.179  0.00  0.00    +0.100 C 
ATOM      2  C   UNL     1       1.132  -1.599   6.555  0.00  0.00    +0.121 C 
ATOM      3  N   UNL     1       1.015  -1.546   8.031  0.00  0.00    -0.296 N 
ATOM      4  C   UNL     1       0.762  -0.116   8.330  0.00  0.00    +0.115 C 
ATOM      5  C   UNL     1       1.669   0.650   7.346  0.00  0.00    -0.004 C 
ATOM      6  C   UNL     1       2.989   1.013   8.020  0.00  0.00    -0.010 C 
ATOM      7  C   UNL     1       2.725   2.022   9.140  0.00  0.00    -0.082 C 
ATOM      8  N   UNL     1       2.092   3.223   8.580  0.00  0.00    +0.379 N 
ATOM      9  C   UNL     1       0.781   2.881   8.016  0.00  0.00    -0.082 C 
ATOM     10  C   UNL     1       0.963   1.907   6.849  0.00  0.00    -0.010 C 
ATOM     11  C   UNL     1       1.115  -2.567   8.905  0.00  0.00    +0.252 C 
ATOM     12  O   UNL     1       0.901  -2.379  10.087  0.00  0.00    -0.270 OA
ATOM     13  H   UNL     1       1.975   3.910   9.309  0.00  0.00    -0.086 HD
ATOM     14  H   UNL     1       2.680   3.603   7.854  0.00  0.00    -0.086 HD
ENDROOT
BRANCH  11  15
ATOM     15  C   UNL     1       1.485  -3.913   8.427  0.00  0.00    +0.099 A 
ATOM     16  C   UNL     1       1.058  -4.367   7.174  0.00  0.00    +0.020 A 
ATOM     17  C   UNL     1       1.432  -5.636   6.772  0.00  0.00    +0.021 A 
ATOM     18  C   UNL     1       2.210  -6.414   7.611  0.00  0.00    +0.114 A 
ATOM     19  N   UNL     1       2.601  -5.967   8.789  0.00  0.00    -0.220 NA
ATOM     20  C   UNL     1       2.276  -4.759   9.219  0.00  0.00    +0.233 A 
BRANCH  20  21
ATOM     21  O   UNL     1       2.705  -4.339  10.432  0.00  0.00    -0.437 OA
BRANCH  21  22
ATOM     22  C   UNL     1       3.386  -5.222  11.209  0.00  0.00    +0.130 A 
ATOM     23  C   UNL     1       4.724  -5.485  10.953  0.00  0.00    +0.048 A 
ATOM     24  C   UNL     1       5.415  -6.383  11.744  0.00  0.00    +0.023 A 
ATOM     25  C   UNL     1       4.773  -7.019  12.791  0.00  0.00    +0.041 A 
ATOM     26  C   UNL     1       3.439  -6.759  13.049  0.00  0.00    +0.023 A 
ATOM     27  C   UNL     1       2.746  -5.857  12.264  0.00  0.00    +0.048 A 
ATOM     28 CL   UNL     1       5.643  -8.147  13.784  0.00  0.00    -0.084 Cl
ENDBRANCH  21  22
ENDBRANCH  20  21
ENDBRANCH  11  15
BRANCH   1  30
ATOM     29  N   UNL     1       2.201   0.970   4.089  0.00  0.00    -0.312 N 
ATOM     30  C   UNL     1       1.386   0.260   4.893  0.00  0.00    +0.218 C 
ATOM     31  O   UNL     1       0.226   0.088   4.582  0.00  0.00    -0.275 OA
ATOM     32  H   UNL     1       3.128   1.107   4.337  0.00  0.00    +0.149 HD
BRANCH  29  38
ATOM     33  C   UNL     1       0.540   3.770   1.332  0.00  0.00    +0.008 C 
ATOM     34  C   UNL     1       1.994   3.336   1.135  0.00  0.00    -0.009 C 
ATOM     35  C   UNL     1       2.066   2.279   0.031  0.00  0.00    +0.003 C 
ATOM     36  C   UNL     1       1.221   1.067   0.429  0.00  0.00    +0.002 C 
ATOM     37  C   UNL     1       1.758   0.478   1.734  0.00  0.00    +0.022 C 
ATOM     38  C   UNL     1       1.687   1.534   2.838  0.00  0.00    +0.076 C 
ATOM     39  C   UNL     1       2.531   2.746   2.441  0.00  0.00    +0.009 C 
ATOM     40  C   UNL     1       2.459   3.803   3.545  0.00  0.00    +0.009 C 
ENDBRANCH  29  38
ENDBRANCH   1  30
TORSDOF 5
