REMARK  Name = ZINC35973911
REMARK  8 active torsions:
REMARK  status: ('A' for Active; 'I' for Inactive)
REMARK    1  A    between atoms: C_1  and  O_2
REMARK    2  A    between atoms: O_2  and  C_3
REMARK    3  A    between atoms: C_8  and  O_9
REMARK    4  A    between atoms: O_9  and  C_10
REMARK    5  A    between atoms: C_11  and  C_32
REMARK    6  A    between atoms: N_13  and  C_16
REMARK    7  A    between atoms: C_16  and  C_17
REMARK    8  A    between atoms: N_19  and  C_20
REMARK                            x       y       z     vdW  Elec       q    Type
REMARK                         _______ _______ _______ _____ _____    ______ ____
ROOT
ATOM      1  C   UNL     1       0.037  -0.162   1.638  0.00  0.00    +0.162 A 
ATOM      2  C   UNL     1       0.654   0.505   2.681  0.00  0.00    +0.053 A 
ATOM      3  C   UNL     1       1.404  -0.194   3.615  0.00  0.00    -0.037 A 
ATOM      4  C   UNL     1       1.536  -1.562   3.507  0.00  0.00    -0.018 A 
ATOM      5  C   UNL     1       0.920  -2.235   2.462  0.00  0.00    +0.055 A 
ATOM      6  C   UNL     1       0.167  -1.543   1.530  0.00  0.00    +0.162 A 
ATOM      7  C   UNL     1       2.330  -2.365   4.505  0.00  0.00    +0.125 C 
ATOM      8  N   UNL     1       3.225  -1.492   5.270  0.00  0.00    -0.282 NA
ATOM      9  C   UNL     1       2.469  -0.373   5.855  0.00  0.00    +0.090 C 
ATOM     10  C   UNL     1       2.062   0.579   4.730  0.00  0.00    +0.051 C 
ENDROOT
BRANCH   7  11
ATOM     11  C   UNL     1       3.149  -3.397   3.773  0.00  0.00    +0.011 A 
ATOM     12  C   UNL     1       2.896  -4.716   3.591  0.00  0.00    +0.013 A 
ATOM     13  C   UNL     1       3.800  -5.480   2.877  0.00  0.00    +0.008 A 
ATOM     14  C   UNL     1       4.912  -4.887   2.378  0.00  0.00    +0.045 A 
ATOM     15  S   UNL     1       4.701  -3.197   2.913  0.00  0.00    -0.100 S 
ENDBRANCH   7  11
BRANCH   1  17
ATOM     16  C   UNL     1      -0.787   1.944   0.901  0.00  0.00    +0.277 C 
ATOM     17  O   UNL     1      -0.698   0.529   0.726  0.00  0.00    -0.491 OA
ENDBRANCH   1  17
BRANCH   6  18
ATOM     18  O   UNL     1      -0.438  -2.208   0.511  0.00  0.00    -0.491 OA
ATOM     19  C   UNL     1      -0.260  -3.626   0.465  0.00  0.00    +0.277 C 
ENDBRANCH   6  18
BRANCH   8  20
ATOM     20  C   UNL     1       3.936  -2.248   6.310  0.00  0.00    +0.181 C 
BRANCH  20  21
ATOM     21  C   UNL     1       5.016  -1.385   6.909  0.00  0.00    +0.231 C 
ATOM     22  O   UNL     1       5.178  -0.251   6.509  0.00  0.00    -0.274 OA
ATOM     23  N   UNL     1       5.802  -1.872   7.890  0.00  0.00    -0.284 N 
ATOM     24  H   UNL     1       5.624  -2.750   8.263  0.00  0.00    +0.155 HD
BRANCH  23  25
ATOM     25  C   UNL     1       6.876  -1.112   8.370  0.00  0.00    +0.035 A 
ATOM     26  C   UNL     1       7.247  -1.202   9.707  0.00  0.00    +0.025 A 
ATOM     27  C   UNL     1       8.304  -0.455  10.186  0.00  0.00    +0.029 A 
ATOM     28  C   UNL     1       9.000   0.388   9.332  0.00  0.00    +0.067 A 
ATOM     29  C   UNL     1       8.630   0.480   7.989  0.00  0.00    +0.069 A 
ATOM     30  C   UNL     1       7.571  -0.276   7.509  0.00  0.00    +0.051 A 
ATOM     31  N   UNL     1       9.499   1.390   7.393  0.00  0.00    -0.306 N 
ATOM     32  H   UNL     1       9.488   1.660   6.461  0.00  0.00    +0.170 HD
ATOM     33  C   UNL     1      10.359   1.832   8.330  0.00  0.00    +0.325 A 
ATOM     34  O   UNL     1      11.250   2.639   8.139  0.00  0.00    -0.247 OA
ATOM     35  N   UNL     1      10.084   1.246   9.511  0.00  0.00    -0.306 N 
ATOM     36  H   UNL     1      10.558   1.396  10.343  0.00  0.00    +0.170 HD
ENDBRANCH  23  25
ENDBRANCH  20  21
ENDBRANCH   8  20
TORSDOF 6
