REMARK  Name = ZINC13498709
REMARK  14 active torsions:
REMARK  status: ('A' for Active; 'I' for Inactive)
REMARK    1  A    between atoms: C_1  and  C_2
REMARK    2  A    between atoms: C_2  and  C_3
REMARK    3  A    between atoms: C_2  and  C_4
REMARK    4  A    between atoms: C_4  and  C_6
REMARK    5  A    between atoms: C_4  and  N_72
REMARK    6  A    between atoms: N_10  and  C_11
REMARK    7  A    between atoms: C_11  and  C_12
REMARK    8  A    between atoms: C_11  and  C_13
REMARK    9  A    between atoms: C_11  and  C_14
REMARK   10  A    between atoms: C_15  and  C_16
REMARK   11  A    between atoms: C_15  and  N_72
REMARK   12  A    between atoms: C_21  and  O_28
REMARK   13  A    between atoms: O_28  and  C_29
REMARK   14  A    between atoms: C_30  and  N_72
REMARK                            x       y       z     vdW  Elec       q    Type
REMARK                         _______ _______ _______ _____ _____    ______ ____
ROOT
ATOM      1  N   UNL     1       3.876  -1.167   0.393  0.00  0.00    +0.391 N 
ATOM      2  H   UNL     1       3.652  -2.028   0.905  0.00  0.00    -0.080 HD
ENDROOT
BRANCH   1   3
ATOM      3  C   UNL     1       3.370  -1.285  -0.990  0.00  0.00    -0.067 C 
ATOM      4  C   UNL     1       3.555  -2.731  -1.456  0.00  0.00    -0.015 C 
ATOM      5  C   UNL     1       3.021  -2.880  -2.882  0.00  0.00    -0.002 C 
ATOM      6  C   UNL     1       3.790  -1.941  -3.815  0.00  0.00    -0.000 C 
ATOM      7  C   UNL     1       3.604  -0.496  -3.349  0.00  0.00    -0.002 C 
ATOM      8  C   UNL     1       4.138  -0.347  -1.923  0.00  0.00    -0.015 C 
ENDBRANCH   1   3
BRANCH   1   9
ATOM      9  C   UNL     1       3.230  -0.023   1.071  0.00  0.00    +0.006 C 
BRANCH   9  10
ATOM     10  C   UNL     1       1.771  -0.340   1.274  0.00  0.00    +0.139 A 
ATOM     11  N   UNL     1       1.275  -1.406   1.855  0.00  0.00    -0.115 NA
ATOM     12  N   UNL     1      -0.010  -1.310   1.833  0.00  0.00    -0.023 NA
ATOM     13  N   UNL     1      -0.346  -0.210   1.253  0.00  0.00    -0.043 NA
ATOM     14  N   UNL     1       0.724   0.415   0.895  0.00  0.00    -0.226 N 
BRANCH  14  15
ATOM     15  C   UNL     1       0.787   1.706   0.204  0.00  0.00    +0.059 C 
ATOM     16  C   UNL     1      -0.622   2.293   0.091  0.00  0.00    +0.036 C 
ATOM     17  C   UNL     1       1.677   2.665   0.996  0.00  0.00    +0.036 C 
ATOM     18  C   UNL     1       1.370   1.507  -1.196  0.00  0.00    +0.036 C 
ENDBRANCH  14  15
ENDBRANCH   9  10
BRANCH   9  20
ATOM     19  C   UNL     1       3.232   1.375   3.142  0.00  0.00    +0.006 C 
ATOM     20  C   UNL     1       3.898   0.196   2.430  0.00  0.00    -0.024 C 
ATOM     21  C   UNL     1       3.747  -1.066   3.282  0.00  0.00    +0.006 C 
ENDBRANCH   9  20
ENDBRANCH   1   9
BRANCH   1  22
ATOM     22  C   UNL     1       5.343  -0.983   0.381  0.00  0.00    -0.036 C 
BRANCH  22  23
ATOM     23  C   UNL     1       5.988  -2.261  -0.090  0.00  0.00    +0.001 A 
ATOM     24  C   UNL     1       6.589  -2.307  -1.306  0.00  0.00    +0.017 A 
ATOM     25  C   UNL     1       7.210  -3.561  -1.732  0.00  0.00    -0.001 A 
ATOM     26  C   UNL     1       7.848  -3.667  -2.974  0.00  0.00    +0.013 A 
ATOM     27  C   UNL     1       8.413  -4.851  -3.346  0.00  0.00    +0.046 A 
ATOM     28  C   UNL     1       8.362  -5.957  -2.500  0.00  0.00    +0.122 A 
ATOM     29  C   UNL     1       7.737  -5.873  -1.268  0.00  0.00    +0.072 A 
ATOM     30  C   UNL     1       7.155  -4.676  -0.872  0.00  0.00    +0.053 A 
ATOM     31  N   UNL     1       6.524  -4.564   0.349  0.00  0.00    -0.322 N 
ATOM     32  H   UNL     1       6.488  -5.332   0.940  0.00  0.00    +0.169 HD
ATOM     33  C   UNL     1       5.961  -3.405   0.733  0.00  0.00    +0.251 A 
ATOM     34  O   UNL     1       5.411  -3.343   1.819  0.00  0.00    -0.268 OA
BRANCH  28  35
ATOM     35  O   UNL     1       8.930  -7.128  -2.888  0.00  0.00    -0.495 OA
ATOM     36  C   UNL     1       9.560  -7.150  -4.170  0.00  0.00    +0.277 C 
ENDBRANCH  28  35
ENDBRANCH  22  23
ENDBRANCH   1  22
TORSDOF 8
