REMARK  Name = ZINC06877425
REMARK  8 active torsions:
REMARK  status: ('A' for Active; 'I' for Inactive)
REMARK    1  A    between atoms: C_1  and  C_2
REMARK    2  A    between atoms: C_5  and  C_8
REMARK    3  A    between atoms: C_8  and  N_9
REMARK    4  A    between atoms: N_12  and  C_13
REMARK    5  A    between atoms: C_13  and  C_15
REMARK    6  A    between atoms: C_13  and  C_16
REMARK    7  A    between atoms: C_20  and  N_21
REMARK    8  A    between atoms: C_29  and  N_57
REMARK                            x       y       z     vdW  Elec       q    Type
REMARK                         _______ _______ _______ _____ _____    ______ ____
ROOT
ATOM      1  C   UNL     1       0.807  -5.511  -3.109  0.00  0.00    +0.104 C 
ATOM      2  C   UNL     1       2.123  -6.204  -2.749  0.00  0.00    +0.033 C 
ENDROOT
BRANCH   1   3
ATOM      3  C   UNL     1       0.339  -5.991  -4.459  0.00  0.00    +0.007 A 
ATOM      4  C   UNL     1       0.695  -5.292  -5.610  0.00  0.00    -0.034 A 
ATOM      5  C   UNL     1       0.236  -5.788  -6.793  0.00  0.00    -0.021 A 
ATOM      6  S   UNL     1      -0.697  -7.217  -6.321  0.00  0.00    -0.077 S 
ATOM      7  C   UNL     1      -0.436  -7.104  -4.556  0.00  0.00    +0.090 A 
ATOM      8  C   UNL     1       0.479  -5.225  -8.155  0.00  0.00    -0.036 C 
ATOM      9  C   UNL     1       2.108  -3.833  -7.027  0.00  0.00    -0.074 C 
ATOM     10  C   UNL     1       1.568  -4.040  -5.610  0.00  0.00    +0.018 C 
ATOM     11  C   UNL     1       1.435  -3.307  -9.293  0.00  0.00    -0.096 C 
ATOM     12  N   UNL     1       0.987  -3.841  -7.989  0.00  0.00    +0.381 N 
ATOM     13  H   UNL     1       0.231  -3.248  -7.627  0.00  0.00    -0.082 HD
BRANCH   7  14
ATOM     14  N   UNL     1      -0.906  -7.943  -3.540  0.00  0.00    -0.317 N 
ATOM     15  C   UNL     1      -0.529  -7.893  -2.228  0.00  0.00    +0.092 A 
ATOM     16  C   UNL     1      -1.199  -8.855  -1.560  0.00  0.00    +0.019 A 
ATOM     17  C   UNL     1      -2.012  -9.529  -2.493  0.00  0.00    +0.019 A 
ATOM     18  C   UNL     1      -1.814  -8.951  -3.695  0.00  0.00    +0.092 A 
ENDBRANCH   7  14
ENDBRANCH   1   3
BRANCH   1  22
ATOM     19  N   UNL     1       0.157  -1.893  -3.031  0.00  0.00    -0.295 N 
ATOM     20  C   UNL     1      -0.033  -3.227  -2.993  0.00  0.00    +0.300 C 
ATOM     21  O   UNL     1      -1.148  -3.677  -2.816  0.00  0.00    -0.253 OA
ATOM     22  N   UNL     1       1.014  -4.061  -3.150  0.00  0.00    -0.293 N 
ATOM     23  H   UNL     1       1.047  -1.534  -3.172  0.00  0.00    +0.151 HD
ATOM     24  H   UNL     1       1.904  -3.702  -3.291  0.00  0.00    +0.151 HD
BRANCH  19  25
ATOM     25  C   UNL     1      -0.980  -0.986  -2.860  0.00  0.00    +0.141 C 
BRANCH  25  30
ATOM     26  C   UNL     1       0.852   4.486  -3.180  0.00  0.00    +0.044 C 
ATOM     27  C   UNL     1       0.374   3.059  -3.096  0.00  0.00    -0.050 A 
ATOM     28  C   UNL     1      -0.029   2.397  -4.241  0.00  0.00    +0.003 A 
ATOM     29  C   UNL     1      -0.467   1.088  -4.165  0.00  0.00    +0.005 A 
ATOM     30  C   UNL     1      -0.502   0.441  -2.943  0.00  0.00    -0.030 A 
ATOM     31  C   UNL     1      -0.099   1.103  -1.799  0.00  0.00    +0.005 A 
ATOM     32  C   UNL     1       0.340   2.412  -1.875  0.00  0.00    +0.003 A 
ENDBRANCH  25  30
ENDBRANCH  19  25
ENDBRANCH   1  22
TORSDOF 5
