REMARK  Name = ZINC19988161
REMARK  7 active torsions:
REMARK  status: ('A' for Active; 'I' for Inactive)
REMARK    1  A    between atoms: C_1  and  C_2
REMARK    2  A    between atoms: C_3  and  C_22
REMARK    3  A    between atoms: C_9  and  S_13
REMARK    4  A    between atoms: S_13  and  C_14
REMARK    5  A    between atoms: C_14  and  C_15
REMARK    6  A    between atoms: N_17  and  N_18
REMARK    7  A    between atoms: C_19  and  C_21
REMARK                            x       y       z     vdW  Elec       q    Type
REMARK                         _______ _______ _______ _____ _____    ______ ____
ROOT
ATOM      1  C   UNL     1      -5.129   1.958   0.063  0.00  0.00    +0.052 C 
ATOM      2  C   UNL     1      -3.654   2.263   0.050  0.00  0.00    -0.003 A 
ATOM      3  C   UNL     1      -2.617   1.393   0.036  0.00  0.00    +0.007 A 
ATOM      4  C   UNL     1      -1.256   1.921   0.018  0.00  0.00    +0.080 A 
ATOM      5  C   UNL     1      -0.015   1.215   0.009  0.00  0.00    +0.261 A 
ATOM      6  O   UNL     1       0.002  -0.004   0.002  0.00  0.00    -0.267 OA
ATOM      7  N   UNL     1       1.137   1.912   0.002  0.00  0.00    -0.301 N 
ATOM      8  H   UNL     1       2.100   1.382  -0.010  0.00  0.00    +0.171 HD
ATOM      9  C   UNL     1       1.137   3.276   0.008  0.00  0.00    +0.170 A 
ATOM     10  N   UNL     1       0.006   3.952   0.022  0.00  0.00    -0.216 NA
ATOM     11  C   UNL     1      -1.164   3.324   0.031  0.00  0.00    +0.117 A 
ATOM     12  S   UNL     1      -2.856   3.857   0.050  0.00  0.00    -0.073 S 
ENDROOT
BRANCH   3  13
ATOM     13  C   UNL     1      -2.859  -0.069   0.031  0.00  0.00    -0.016 A 
ATOM     14  C   UNL     1      -2.454  -0.849   1.114  0.00  0.00    +0.008 A 
ATOM     15  C   UNL     1      -2.688  -2.209   1.107  0.00  0.00    +0.001 A 
ATOM     16  C   UNL     1      -3.311  -2.801   0.023  0.00  0.00    +0.000 A 
ATOM     17  C   UNL     1      -3.710  -2.033  -1.057  0.00  0.00    +0.001 A 
ATOM     18  C   UNL     1      -3.487  -0.671  -1.058  0.00  0.00    +0.008 A 
ENDBRANCH   3  13
BRANCH   9  19
ATOM     19  S   UNL     1       2.670   4.146  -0.002  0.00  0.00    -0.078 S 
BRANCH  19  20
ATOM     20  C   UNL     1       2.064   5.851   0.012  0.00  0.00    +0.174 C 
BRANCH  20  21
ATOM     21  C   UNL     1       3.234   6.800   0.006  0.00  0.00    +0.239 C 
ATOM     22  O   UNL     1       4.367   6.366  -0.007  0.00  0.00    -0.273 OA
ATOM     23  N   UNL     1       3.023   8.131   0.015  0.00  0.00    -0.234 N 
ATOM     24  H   UNL     1       1.996   8.525   0.027  0.00  0.00    +0.173 HD
BRANCH  23  25
ATOM     25  N   UNL     1       4.111   9.014   0.009  0.00  0.00    -0.235 N 
ATOM     26  C   UNL     1       3.900  10.345   0.017  0.00  0.00    +0.226 C 
ATOM     27  O   UNL     1       2.767  10.779   0.030  0.00  0.00    -0.275 OA
ATOM     28  C   UNL     1       5.070  11.294   0.011  0.00  0.00    +0.110 C 
ATOM     29  H   UNL     1       5.138   8.620  -0.004  0.00  0.00    +0.173 HD
ENDBRANCH  23  25
ENDBRANCH  20  21
ENDBRANCH  19  20
ENDBRANCH   9  19
TORSDOF 5
