REMARK  Name = ZINC35664805
REMARK  14 active torsions:
REMARK  status: ('A' for Active; 'I' for Inactive)
REMARK    1  A    between atoms: C_1  and  C_2
REMARK    2  A    between atoms: C_2  and  O_3
REMARK    3  A    between atoms: O_3  and  C_4
REMARK    4  A    between atoms: C_4  and  C_6
REMARK    5  A    between atoms: C_7  and  C_24
REMARK    6  A    between atoms: N_8  and  C_21
REMARK    7  A    between atoms: C_12  and  C_14
REMARK    8  A    between atoms: C_17  and  C_20
REMARK    9  A    between atoms: C_21  and  C_22
REMARK   10  A    between atoms: C_24  and  N_25
REMARK   11  A    between atoms: N_33  and  C_34
REMARK   12  A    between atoms: C_34  and  C_35
REMARK   13  A    between atoms: C_34  and  C_36
REMARK   14  A    between atoms: C_34  and  C_37
REMARK                            x       y       z     vdW  Elec       q    Type
REMARK                         _______ _______ _______ _____ _____    ______ ____
ROOT
ATOM      1  C   UNL     1       1.322  -2.369  -2.567  0.00  0.00    +0.080 C 
ATOM      2  C   UNL     1       1.644  -3.679  -2.638  0.00  0.00    +0.041 C 
ATOM      3  N   UNL     1       2.391  -4.166  -3.671  0.00  0.00    -0.254 N 
ATOM      4  C   UNL     1       2.855  -3.410  -4.674  0.00  0.00    +0.307 C 
ATOM      5  O   UNL     1       3.513  -3.935  -5.551  0.00  0.00    -0.252 OA
ATOM      6  N   UNL     1       2.617  -2.085  -4.742  0.00  0.00    -0.288 N 
ATOM      7  C   UNL     1       1.813  -1.462  -3.677  0.00  0.00    +0.144 C 
ATOM      8  H   UNL     1       2.963  -1.556  -5.478  0.00  0.00    +0.151 HD
ENDROOT
BRANCH   7   9
ATOM      9  C   UNL     1       0.611  -0.814  -4.314  0.00  0.00    -0.022 A 
ATOM     10  C   UNL     1      -0.145  -1.514  -5.236  0.00  0.00    +0.006 A 
ATOM     11  C   UNL     1      -1.248  -0.920  -5.820  0.00  0.00    +0.004 A 
ATOM     12  C   UNL     1      -1.595   0.374  -5.483  0.00  0.00    -0.050 A 
ATOM     13  C   UNL     1      -0.840   1.075  -4.561  0.00  0.00    +0.004 A 
ATOM     14  C   UNL     1       0.261   0.479  -3.973  0.00  0.00    +0.006 A 
ATOM     15  C   UNL     1      -2.797   1.023  -6.120  0.00  0.00    +0.044 C 
ENDBRANCH   7   9
BRANCH   1  16
ATOM     16  C   UNL     1       0.547  -1.862  -1.498  0.00  0.00    +0.339 C 
ATOM     17  O   UNL     1      -0.639  -1.645  -1.655  0.00  0.00    -0.245 OA
BRANCH  16  18
ATOM     18  O   UNL     1       1.125  -1.621  -0.302  0.00  0.00    -0.462 OA
BRANCH  18  20
ATOM     19  C   UNL     1       1.108  -0.900   2.005  0.00  0.00    +0.048 C 
ATOM     20  C   UNL     1       0.283  -1.110   0.733  0.00  0.00    +0.229 C 
ENDBRANCH  18  20
ENDBRANCH  16  18
ENDBRANCH   1  16
BRANCH   3  21
ATOM     21  C   UNL     1       2.703  -5.598  -3.684  0.00  0.00    +0.141 C 
BRANCH  21  22
ATOM     22  C   UNL     1       1.623  -6.341  -4.427  0.00  0.00    -0.015 C 
ATOM     23  C   UNL     1       1.936  -7.115  -5.436  0.00  0.00    +0.005 C 
ENDBRANCH  21  22
ENDBRANCH   3  21
BRANCH   2  24
ATOM     24  C   UNL     1       1.171  -4.617  -1.557  0.00  0.00    +0.136 C 
BRANCH  24  25
ATOM     25  N   UNL     1       0.192  -5.557  -2.119  0.00  0.00    -0.294 NA
ATOM     26  C   UNL     1      -1.028  -4.857  -2.542  0.00  0.00    +0.104 C 
ATOM     27  C   UNL     1      -1.944  -5.836  -3.284  0.00  0.00    +0.124 C 
ATOM     28  N   UNL     1      -2.167  -7.009  -2.425  0.00  0.00    -0.283 N 
ATOM     29  C   UNL     1      -0.993  -7.683  -1.850  0.00  0.00    +0.124 C 
ATOM     30  C   UNL     1      -0.114  -6.631  -1.165  0.00  0.00    +0.104 C 
ATOM     31  C   UNL     1      -3.413  -7.455  -2.172  0.00  0.00    +0.303 C 
ATOM     32  O   UNL     1      -4.366  -6.943  -2.728  0.00  0.00    -0.253 OA
ATOM     33  N   UNL     1      -3.604  -8.467  -1.303  0.00  0.00    -0.294 N 
ATOM     34  H   UNL     1      -2.841  -8.918  -0.910  0.00  0.00    +0.151 HD
BRANCH  33  35
ATOM     35  C   UNL     1      -4.963  -8.884  -0.951  0.00  0.00    +0.028 C 
ATOM     36  C   UNL     1      -5.700  -9.338  -2.213  0.00  0.00    +0.031 C 
ATOM     37  C   UNL     1      -4.899 -10.043   0.046  0.00  0.00    +0.031 C 
ATOM     38  C   UNL     1      -5.711  -7.709  -0.319  0.00  0.00    +0.031 C 
ENDBRANCH  33  35
ENDBRANCH  24  25
ENDBRANCH   2  24
TORSDOF 9
