REMARK  Name = ZINC64717721
REMARK  3 active torsions:
REMARK  status: ('A' for Active; 'I' for Inactive)
REMARK    1  A    between atoms: C_10  and  N_27
REMARK    2  A    between atoms: C_12  and  C_18
REMARK    3  A    between atoms: C_15  and  C_16
REMARK                            x       y       z     vdW  Elec       q    Type
REMARK                         _______ _______ _______ _____ _____    ______ ____
ROOT
ATOM      1  C   UNL     1      -0.231   0.923   0.173  0.00  0.00    +0.002 A 
ATOM      2  C   UNL     1       0.894   1.734   0.137  0.00  0.00    +0.002 A 
ATOM      3  C   UNL     1       2.155   1.179   0.082  0.00  0.00    +0.028 A 
ATOM      4  C   UNL     1       2.303  -0.201   0.064  0.00  0.00    +0.070 A 
ATOM      5  C   UNL     1       1.159  -1.024   0.102  0.00  0.00    +0.090 A 
ATOM      6  C   UNL     1      -0.109  -0.437   0.156  0.00  0.00    +0.030 A 
ATOM      7  N   UNL     1       1.585  -2.313   0.075  0.00  0.00    -0.227 NA
ATOM      8  C   UNL     1       2.882  -2.342   0.042  0.00  0.00    +0.153 A 
ATOM      9  N   UNL     1       3.376  -1.052   0.012  0.00  0.00    -0.306 N 
ATOM     10  C   UNL     1       4.809  -0.769  -0.073  0.00  0.00    +0.165 C 
ATOM     11  C   UNL     1       5.585  -1.867   0.653  0.00  0.00    +0.093 C 
ATOM     12  C   UNL     1       5.110  -3.242   0.283  0.00  0.00    +0.006 C 
ATOM     13  C   UNL     1       3.813  -3.497   0.008  0.00  0.00    +0.091 C 
ENDROOT
BRANCH  11  14
ATOM     14  C   UNL     1       5.419  -1.676   2.162  0.00  0.00    +0.184 C 
ATOM     15  N   UNL     1       6.118  -2.746   2.885  0.00  0.00    -0.363 N 
ATOM     16  C   UNL     1       5.228  -3.392   3.583  0.00  0.00    +0.060 A 
ATOM     17  C   UNL     1       5.315  -4.543   4.492  0.00  0.00    +0.027 A 
ATOM     18  C   UNL     1       4.197  -5.006   5.087  0.00  0.00    +0.002 A 
ATOM     19  C   UNL     1       2.931  -4.431   4.875  0.00  0.00    +0.002 A 
ATOM     20  C   UNL     1       2.741  -3.373   4.061  0.00  0.00    +0.027 A 
ATOM     21  C   UNL     1       3.889  -2.783   3.358  0.00  0.00    +0.060 A 
ATOM     22  N   UNL     1       4.002  -1.784   2.531  0.00  0.00    -0.363 N 
ATOM     23  H   UNL     1       7.068  -2.937   2.850  0.00  0.00    +0.162 HD
ATOM     24  H   UNL     1       3.282  -1.215   2.216  0.00  0.00    +0.162 HD
ENDBRANCH  11  14
BRANCH  10  25
ATOM     25  N   UNL     1       5.090   0.529   0.555  0.00  0.00    -0.310 NA
ATOM     26  H   UNL     1       4.726   0.562   1.496  0.00  0.00    +0.120 HD
ATOM     27  H   UNL     1       6.079   0.730   0.543  0.00  0.00    +0.120 HD
ENDBRANCH  10  25
BRANCH  13  28
ATOM     28  C   UNL     1       3.357  -4.819  -0.303  0.00  0.00    +0.103 C 
ATOM     29  N   UNL     1       2.996  -5.867  -0.549  0.00  0.00    -0.191 NA
ENDBRANCH  13  28
TORSDOF 3
