REMARK  Name = ZINC08398404
REMARK  7 active torsions:
REMARK  status: ('A' for Active; 'I' for Inactive)
REMARK    1  A    between atoms: C_1  and  C_2
REMARK    2  A    between atoms: C_5  and  C_8
REMARK    3  A    between atoms: N_17  and  N_18
REMARK    4  A    between atoms: N_18  and  C_19
REMARK    5  A    between atoms: C_23  and  C_26
REMARK    6  A    between atoms: C_24  and  C_25
REMARK    7  A    between atoms: C_27  and  C_29
REMARK                            x       y       z     vdW  Elec       q    Type
REMARK                         _______ _______ _______ _____ _____    ______ ____
ROOT
ATOM      1  C   UNL     1       0.059  -4.255  -0.021  0.00  0.00    +0.080 A 
ATOM      2  C   UNL     1       0.069  -4.952   1.155  0.00  0.00    +0.077 A 
ATOM      3  S   UNL     1       0.090  -6.633   0.545  0.00  0.00    -0.058 S 
ATOM      4  C   UNL     1       0.084  -6.237  -1.198  0.00  0.00    +0.189 A 
ATOM      5  N   UNL     1       0.062  -4.917  -1.168  0.00  0.00    -0.223 NA
ATOM      6  N   UNL     1       0.094  -7.092  -2.295  0.00  0.00    -0.130 N 
ATOM      7  C   UNL     1       0.106  -8.438  -2.221  0.00  0.00    +0.294 C 
ATOM      8  O   UNL     1       0.110  -9.116  -1.208  0.00  0.00    -0.266 OA
ATOM      9  C   UNL     1       0.113  -8.925  -3.610  0.00  0.00    +0.173 C 
ATOM     10  N   UNL     1       0.124 -10.177  -4.024  0.00  0.00    -0.175 NA
ATOM     11  C   UNL     1       0.104  -7.702  -4.440  0.00  0.00    +0.122 C 
ATOM     12  N   UNL     1       0.088  -6.679  -3.626  0.00  0.00    -0.168 NA
ENDROOT
BRANCH   1  17
ATOM     13  C   UNL     1      -0.018   1.503   0.010  0.00  0.00    +0.044 C 
ATOM     14  C   UNL     1       0.002  -0.004   0.002  0.00  0.00    -0.050 A 
ATOM     15  C   UNL     1       0.006  -0.686  -1.201  0.00  0.00    +0.004 A 
ATOM     16  C   UNL     1       0.024  -2.066  -1.215  0.00  0.00    +0.010 A 
ATOM     17  C   UNL     1       0.040  -2.772  -0.013  0.00  0.00    +0.001 A 
ATOM     18  C   UNL     1       0.036  -2.079   1.196  0.00  0.00    +0.010 A 
ATOM     19  C   UNL     1       0.023  -0.700   1.198  0.00  0.00    +0.004 A 
ENDBRANCH   1  17
BRANCH  11  20
ATOM     20  C   UNL     1       0.107  -7.645  -5.920  0.00  0.00    +0.004 A 
ATOM     21  C   UNL     1       0.113  -8.824  -6.666  0.00  0.00    +0.010 A 
ATOM     22  C   UNL     1       0.116  -8.765  -8.045  0.00  0.00    +0.001 A 
ATOM     23  C   UNL     1       0.112  -7.540  -8.687  0.00  0.00    +0.000 A 
ATOM     24  C   UNL     1       0.105  -6.367  -7.953  0.00  0.00    +0.001 A 
ATOM     25  C   UNL     1       0.097  -6.413  -6.574  0.00  0.00    +0.010 A 
ENDBRANCH  11  20
BRANCH  10  26
ATOM     26  N   UNL     1       0.130 -11.140  -3.165  0.00  0.00    -0.237 N 
ATOM     27  H   UNL     1       0.127 -10.943  -2.215  0.00  0.00    +0.174 HD
BRANCH  26  28
ATOM     28  C   UNL     1       0.142 -12.464  -3.602  0.00  0.00    +0.051 A 
ATOM     29  C   UNL     1       0.152 -12.749  -4.963  0.00  0.00    +0.025 A 
ATOM     30  C   UNL     1       0.164 -14.061  -5.392  0.00  0.00    +0.002 A 
ATOM     31  C   UNL     1       0.164 -15.092  -4.470  0.00  0.00    +0.004 A 
ATOM     32  C   UNL     1       0.154 -14.813  -3.115  0.00  0.00    -0.046 A 
ATOM     33  C   UNL     1       0.149 -13.503  -2.679  0.00  0.00    -0.025 A 
ATOM     34  C   UNL     1       0.144 -13.200  -1.202  0.00  0.00    +0.046 C 
ATOM     35  C   UNL     1       0.154 -15.940  -2.115  0.00  0.00    +0.044 C 
ENDBRANCH  26  28
ENDBRANCH  10  26
TORSDOF 4
