REMARK  Name = ZINC02859465
REMARK  7 active torsions:
REMARK  status: ('A' for Active; 'I' for Inactive)
REMARK    1  A    between atoms: C_1  and  C_2
REMARK    2  A    between atoms: N_4  and  C_5
REMARK    3  A    between atoms: N_14  and  C_15
REMARK    4  A    between atoms: C_15  and  N_17
REMARK    5  A    between atoms: C_18  and  C_20
REMARK    6  A    between atoms: C_23  and  C_25
REMARK    7  A    between atoms: C_30  and  N_31
REMARK                            x       y       z     vdW  Elec       q    Type
REMARK                         _______ _______ _______ _____ _____    ______ ____
ROOT
ATOM      1  C   UNL     1       0.169  -9.213  -2.502  0.00  0.00    +0.163 C 
ATOM      2  S   UNL     1       0.065  -8.710  -0.869  0.00  0.00    -0.016 S 
ENDROOT
BRANCH   1  12
ATOM      3  C   UNL     1       4.836  -4.023  -3.243  0.00  0.00    +0.035 A 
ATOM      4  C   UNL     1       5.091  -4.879  -2.177  0.00  0.00    +0.025 A 
ATOM      5  C   UNL     1       4.276  -5.954  -1.917  0.00  0.00    +0.028 A 
ATOM      6  C   UNL     1       3.155  -6.223  -2.722  0.00  0.00    +0.055 A 
ATOM      7  C   UNL     1       2.922  -5.344  -3.789  0.00  0.00    +0.040 A 
ATOM      8  C   UNL     1       3.731  -4.264  -4.050  0.00  0.00    +0.040 A 
ATOM      9  S   UNL     1       1.456  -5.998  -4.550  0.00  0.00    -0.052 S 
ATOM     10  C   UNL     1       1.207  -7.385  -3.453  0.00  0.00    +0.163 A 
ATOM     11  N   UNL     1       2.249  -7.261  -2.583  0.00  0.00    -0.335 N 
ATOM     12  N   UNL     1       0.249  -8.303  -3.478  0.00  0.00    -0.169 NA
ATOM     13  H   UNL     1       2.356  -7.903  -1.864  0.00  0.00    +0.168 HD
BRANCH   3  17
ATOM     14  C   UNL     1       7.920  -1.899  -3.639  0.00  0.00    +0.109 C 
ATOM     15  C   UNL     1       7.002  -3.035  -3.271  0.00  0.00    +0.214 C 
ATOM     16  O   UNL     1       7.455  -4.044  -2.772  0.00  0.00    -0.276 OA
ATOM     17  N   UNL     1       5.677  -2.932  -3.495  0.00  0.00    -0.286 N 
ATOM     18  H   UNL     1       5.305  -2.101  -3.831  0.00  0.00    +0.155 HD
ENDBRANCH   3  17
ENDBRANCH   1  12
BRANCH   1  19
ATOM     19  N   UNL     1       0.172 -10.527  -2.804  0.00  0.00    -0.260 N 
ATOM     20  C   UNL     1       0.092 -11.445  -1.820  0.00  0.00    +0.285 C 
ATOM     21  O   UNL     1       0.018 -11.087  -0.659  0.00  0.00    -0.266 OA
ATOM     22  H   UNL     1       0.231 -10.812  -3.729  0.00  0.00    +0.157 HD
BRANCH  20  23
ATOM     23  C   UNL     1       0.095 -12.872  -2.148  0.00  0.00    +0.190 A 
ATOM     24  C   UNL     1       0.013 -13.910  -1.244  0.00  0.00    +0.055 A 
ATOM     25  C   UNL     1       0.049 -15.094  -1.987  0.00  0.00    +0.051 A 
ATOM     26  C   UNL     1       0.150 -14.741  -3.302  0.00  0.00    +0.138 A 
ATOM     27  O   UNL     1       0.171 -13.400  -3.387  0.00  0.00    -0.450 OA
BRANCH  26  28
ATOM     28  C   UNL     1       0.220 -15.677  -4.442  0.00  0.00    +0.047 A 
ATOM     29  C   UNL     1       1.126 -16.739  -4.424  0.00  0.00    +0.014 A 
ATOM     30  C   UNL     1       1.185 -17.610  -5.492  0.00  0.00    +0.001 A 
ATOM     31  C   UNL     1       0.349 -17.433  -6.580  0.00  0.00    +0.002 A 
ATOM     32  C   UNL     1      -0.552 -16.383  -6.605  0.00  0.00    +0.033 A 
ATOM     33  C   UNL     1      -0.625 -15.508  -5.541  0.00  0.00    +0.137 A 
BRANCH  33  34
ATOM     34  N   UNL     1      -1.594 -14.389  -5.567  0.00  0.00    +0.057 N 
ATOM     35  O   UNL     1      -2.324 -14.243  -6.519  0.00  0.00    -0.126 OA
ATOM     36  O   UNL     1      -1.654 -13.620  -4.636  0.00  0.00    -0.126 OA
ENDBRANCH  33  34
ENDBRANCH  26  28
ENDBRANCH  20  23
ENDBRANCH   1  19
TORSDOF 6
