REMARK  Name = ZINC38685714
REMARK  9 active torsions:
REMARK  status: ('A' for Active; 'I' for Inactive)
REMARK    1  A    between atoms: C_1  and  C_2
REMARK    2  A    between atoms: C_8  and  C_26
REMARK    3  A    between atoms: C_10  and  N_12
REMARK    4  A    between atoms: C_13  and  C_15
REMARK    5  A    between atoms: C_15  and  N_16
REMARK    6  A    between atoms: C_18  and  C_25
REMARK    7  A    between atoms: C_21  and  C_24
REMARK    8  A    between atoms: C_26  and  O_28
REMARK    9  A    between atoms: O_28  and  C_29
REMARK                            x       y       z     vdW  Elec       q    Type
REMARK                         _______ _______ _______ _____ _____    ______ ____
ROOT
ATOM      1  C   UNL     1       0.933  -2.921   4.881  0.00  0.00    +0.044 C 
ATOM      2  C   UNL     1       0.376  -3.412   3.570  0.00  0.00    -0.040 A 
ATOM      3  C   UNL     1       0.226  -4.741   3.349  0.00  0.00    +0.004 A 
ATOM      4  C   UNL     1      -0.288  -5.230   2.145  0.00  0.00    +0.002 A 
ATOM      5  C   UNL     1      -0.662  -4.404   1.138  0.00  0.00    +0.026 A 
ATOM      6  C   UNL     1      -0.536  -2.999   1.294  0.00  0.00    +0.045 A 
ATOM      7  N   UNL     1      -0.824  -2.003   0.481  0.00  0.00    -0.367 N 
ATOM      8  C   UNL     1      -0.497  -0.736   1.143  0.00  0.00    +0.234 C 
ATOM      9  C   UNL     1       0.043  -1.105   2.507  0.00  0.00    +0.053 C 
ATOM     10  C   UNL     1       0.000  -2.487   2.567  0.00  0.00    +0.021 A 
ATOM     11  H   UNL     1      -1.192  -2.093  -0.411  0.00  0.00    +0.161 HD
ENDROOT
BRANCH   9  12
ATOM     12  N   UNL     1       0.478  -0.253   3.477  0.00  0.00    -0.288 N 
ATOM     13  C   UNL     1       0.277   1.073   3.349  0.00  0.00    +0.200 C 
ATOM     14  O   UNL     1      -0.247   1.513   2.348  0.00  0.00    -0.278 OA
ATOM     15  H   UNL     1       0.931  -0.601   4.261  0.00  0.00    +0.155 HD
BRANCH  13  16
ATOM     16  C   UNL     1       0.705   2.010   4.449  0.00  0.00    +0.019 C 
BRANCH  16  17
ATOM     17  N   UNL     1       0.545   3.400   3.999  0.00  0.00    +0.386 N 
ATOM     18  C   UNL     1       1.464   3.660   2.885  0.00  0.00    -0.075 C 
ATOM     19  C   UNL     1       1.244   5.080   2.359  0.00  0.00    -0.031 C 
ATOM     20  C   UNL     1       1.509   6.083   3.486  0.00  0.00    +0.003 C 
ATOM     21  C   UNL     1       0.597   5.755   4.672  0.00  0.00    -0.031 C 
ATOM     22  C   UNL     1       0.841   4.310   5.112  0.00  0.00    -0.075 C 
ATOM     23  C   UNL     1       0.908   6.702   5.832  0.00  0.00    +0.005 C 
ATOM     24  C   UNL     1       2.204   5.350   1.199  0.00  0.00    +0.005 C 
ATOM     25  H   UNL     1      -0.405   3.545   3.690  0.00  0.00    -0.081 HD
ENDBRANCH  16  17
ENDBRANCH  13  16
ENDBRANCH   9  12
BRANCH   8  26
ATOM     26  C   UNL     1       0.548   0.008   0.353  0.00  0.00    +0.335 C 
ATOM     27  O   UNL     1       1.524  -0.575  -0.057  0.00  0.00    -0.248 OA
BRANCH  26  28
ATOM     28  O   UNL     1       0.396   1.318   0.104  0.00  0.00    -0.466 OA
ATOM     29  C   UNL     1       1.356   1.931  -0.759  0.00  0.00    +0.280 C 
ENDBRANCH  26  28
ENDBRANCH   8  26
TORSDOF 5
