REMARK  Name = ZINC06444180
REMARK  11 active torsions:
REMARK  status: ('A' for Active; 'I' for Inactive)
REMARK    1  A    between atoms: C_1  and  C_2
REMARK    2  A    between atoms: C_7  and  C_8
REMARK    3  A    between atoms: C_8  and  C_9
REMARK    4  A    between atoms: C_9  and  N_10
REMARK    5  A    between atoms: N_10  and  C_11
REMARK    6  A    between atoms: N_10  and  S_26
REMARK    7  A    between atoms: C_11  and  C_12
REMARK    8  A    between atoms: C_16  and  O_24
REMARK    9  A    between atoms: O_24  and  C_25
REMARK   10  A    between atoms: S_26  and  C_29
REMARK   11  A    between atoms: C_32  and  C_36
REMARK                            x       y       z     vdW  Elec       q    Type
REMARK                         _______ _______ _______ _____ _____    ______ ____
ROOT
ATOM      1  N   UNL     1      -7.675   2.783   4.761  0.00  0.00    -0.172 NA
ENDROOT
BRANCH   1   2
ATOM      2  S   UNL     1      -9.237   2.629   4.231  0.00  0.00    +0.061 S 
ATOM      3  O   UNL     1      -9.528   3.800   3.481  0.00  0.00    -0.153 OA
ATOM      4  O   UNL     1      -9.352   1.324   3.680  0.00  0.00    -0.153 OA
BRANCH   2   5
ATOM      5  C   UNL     1     -10.276   2.669   5.653  0.00  0.00    +0.107 A 
ATOM      6  C   UNL     1     -10.603   1.493   6.303  0.00  0.00    +0.029 A 
ATOM      7  C   UNL     1     -11.415   1.524   7.422  0.00  0.00    +0.007 A 
ATOM      8  C   UNL     1     -11.908   2.730   7.885  0.00  0.00    -0.032 A 
ATOM      9  C   UNL     1     -11.585   3.906   7.232  0.00  0.00    +0.046 A 
ATOM     10  C   UNL     1     -10.768   3.874   6.115  0.00  0.00    +0.048 A 
ATOM     11 CL   UNL     1     -12.203   5.420   7.813  0.00  0.00    -0.083 Cl
ATOM     12  C   UNL     1     -12.796   2.763   9.101  0.00  0.00    +0.045 C 
ENDBRANCH   2   5
ENDBRANCH   1   2
BRANCH   1  13
ATOM     13  C   UNL     1      -7.075   4.112   4.894  0.00  0.00    +0.114 C 
BRANCH  13  14
ATOM     14  C   UNL     1      -6.290   4.447   3.623  0.00  0.00    +0.052 C 
BRANCH  14  21
ATOM     15  C   UNL     1      -3.740   4.754   4.946  0.00  0.00    +0.044 C 
ATOM     16  C   UNL     1      -4.453   5.962   4.393  0.00  0.00    -0.047 A 
ATOM     17  C   UNL     1      -3.886   7.216   4.518  0.00  0.00    +0.003 A 
ATOM     18  C   UNL     1      -4.539   8.324   4.011  0.00  0.00    +0.000 A 
ATOM     19  C   UNL     1      -5.759   8.177   3.378  0.00  0.00    +0.000 A 
ATOM     20  C   UNL     1      -6.323   6.922   3.248  0.00  0.00    +0.004 A 
ATOM     21  C   UNL     1      -5.673   5.815   3.760  0.00  0.00    -0.043 A 
ENDBRANCH  14  21
ENDBRANCH  13  14
ENDBRANCH   1  13
BRANCH   1  22
ATOM     22  C   UNL     1      -6.895   1.589   5.096  0.00  0.00    +0.150 C 
BRANCH  22  23
ATOM     23  C   UNL     1      -6.069   1.177   3.905  0.00  0.00    +0.033 A 
ATOM     24  C   UNL     1      -4.784   1.593   3.797  0.00  0.00    +0.020 A 
ATOM     25  C   UNL     1      -4.008   1.176   2.627  0.00  0.00    +0.002 A 
ATOM     26  C   UNL     1      -2.676   1.570   2.466  0.00  0.00    +0.055 A 
ATOM     27  C   UNL     1      -1.976   1.163   1.348  0.00  0.00    +0.121 A 
ATOM     28  C   UNL     1      -2.586   0.356   0.391  0.00  0.00    +0.047 A 
ATOM     29  C   UNL     1      -3.896  -0.043   0.541  0.00  0.00    +0.030 A 
ATOM     30  C   UNL     1      -4.621   0.361   1.657  0.00  0.00    +0.049 A 
ATOM     31  N   UNL     1      -5.935  -0.029   1.826  0.00  0.00    -0.322 N 
ATOM     32  H   UNL     1      -6.356  -0.591   1.158  0.00  0.00    +0.169 HD
ATOM     33  C   UNL     1      -6.638   0.360   2.904  0.00  0.00    +0.254 A 
ATOM     34  O   UNL     1      -7.795  -0.004   3.021  0.00  0.00    -0.268 OA
BRANCH  27  35
ATOM     35  O   UNL     1      -0.682   1.547   1.184  0.00  0.00    -0.495 OA
ATOM     36  C   UNL     1      -0.013   1.086   0.008  0.00  0.00    +0.277 C 
ENDBRANCH  27  35
ENDBRANCH  22  23
ENDBRANCH   1  22
TORSDOF 8
