REMARK  Name = ZINC32118742
REMARK  5 active torsions:
REMARK  status: ('A' for Active; 'I' for Inactive)
REMARK    1  A    between atoms: C_4  and  N_23
REMARK    2  A    between atoms: C_6  and  C_7
REMARK    3  A    between atoms: N_9  and  C_10
REMARK    4  A    between atoms: C_10  and  N_12
REMARK    5  A    between atoms: N_12  and  C_13
REMARK                            x       y       z     vdW  Elec       q    Type
REMARK                         _______ _______ _______ _____ _____    ______ ____
ROOT
ATOM      1  C   UNL     1      -0.068  -1.161  -7.121  0.00  0.00    +0.250 C 
ATOM      2  O   UNL     1      -1.252  -0.888  -7.163  0.00  0.00    -0.270 OA
ATOM      3  N   UNL     1       0.613  -1.029  -5.966  0.00  0.00    -0.264 N 
ATOM      4  H   UNL     1       1.684  -1.277  -5.928  0.00  0.00    +0.157 HD
ENDROOT
BRANCH   1  10
ATOM      5  C   UNL     1       1.984  -1.947  -8.293  0.00  0.00    +0.014 A 
ATOM      6  C   UNL     1       2.623  -2.396  -9.429  0.00  0.00    +0.023 A 
ATOM      7  C   UNL     1       1.919  -2.531 -10.615  0.00  0.00    +0.071 A 
ATOM      8  C   UNL     1       0.570  -2.220 -10.666  0.00  0.00    +0.145 A 
ATOM      9  C   UNL     1      -0.081  -1.775  -9.535  0.00  0.00    +0.047 A 
ATOM     10  C   UNL     1       0.623  -1.637  -8.336  0.00  0.00    +0.039 A 
ATOM     11 CL   UNL     1       2.732  -3.091 -12.043  0.00  0.00    -0.081 Cl
BRANCH   8  12
ATOM     12  N   UNL     1      -0.174  -2.367 -11.937  0.00  0.00    +0.058 N 
ATOM     13  O   UNL     1      -1.360  -2.094 -11.983  0.00  0.00    -0.126 OA
ATOM     14  O   UNL     1       0.400  -2.760 -12.937  0.00  0.00    -0.126 OA
ENDBRANCH   8  12
ENDBRANCH   1  10
BRANCH   3  15
ATOM     15  C   UNL     1      -0.018  -0.595  -4.857  0.00  0.00    +0.137 C 
ATOM     16  S   UNL     1      -1.685  -0.210  -4.916  0.00  0.00    -0.018 S 
BRANCH  15  17
ATOM     17  N   UNL     1       0.664  -0.463  -3.702  0.00  0.00    -0.323 N 
ATOM     18  H   UNL     1       1.735  -0.710  -3.664  0.00  0.00    +0.148 HD
BRANCH  17  19
ATOM     19  C   UNL     1      -0.022   0.009  -2.496  0.00  0.00    +0.078 C 
ATOM     20  C   UNL     1       0.718  -0.497  -1.257  0.00  0.00    +0.010 C 
ATOM     21  C   UNL     1       0.002  -0.004   0.002  0.00  0.00    +0.009 C 
ATOM     22  C   UNL     1      -0.019   1.526   0.010  0.00  0.00    -0.010 C 
ATOM     23  C   UNL     1       1.417   2.055  -0.000  0.00  0.00    +0.007 C 
ATOM     24  C   UNL     1       2.133   1.562  -1.259  0.00  0.00    -0.010 C 
ATOM     25  C   UNL     1       2.154   0.032  -1.268  0.00  0.00    +0.009 C 
ATOM     26  C   UNL     1       1.393   2.069  -2.499  0.00  0.00    +0.009 C 
ATOM     27  C   UNL     1      -0.043   1.539  -2.488  0.00  0.00    +0.010 C 
ATOM     28  C   UNL     1      -0.759   2.033  -1.229  0.00  0.00    +0.009 C 
ENDBRANCH  17  19
ENDBRANCH  15  17
ENDBRANCH   3  15
TORSDOF 5
