REMARK  Name = ZINC34761850
REMARK  10 active torsions:
REMARK  status: ('A' for Active; 'I' for Inactive)
REMARK    1  A    between atoms: C_1  and  C_2
REMARK    2  A    between atoms: C_2  and  C_3
REMARK    3  A    between atoms: C_4  and  C_31
REMARK    4  A    between atoms: C_8  and  N_21
REMARK    5  A    between atoms: C_10  and  S_12
REMARK    6  A    between atoms: S_12  and  C_13
REMARK    7  A    between atoms: C_13  and  C_14
REMARK    8  A    between atoms: N_24  and  C_27
REMARK    9  A    between atoms: C_27  and  C_28
REMARK   10  A    between atoms: C_28  and  C_30
REMARK                            x       y       z     vdW  Elec       q    Type
REMARK                         _______ _______ _______ _____ _____    ______ ____
ROOT
ATOM      1  C   UNL     1       0.821  -0.607   1.121  0.00  0.00    -0.025 A 
ATOM      2  C   UNL     1       2.146  -0.755   0.986  0.00  0.00    -0.007 A 
ATOM      3  S   UNL     1       2.666  -1.337   2.589  0.00  0.00    -0.073 S 
ATOM      4  C   UNL     1       1.088  -1.365   3.397  0.00  0.00    +0.115 A 
ATOM      5  C   UNL     1       0.199  -0.915   2.397  0.00  0.00    +0.051 A 
ATOM      6  C   UNL     1      -1.168  -0.835   2.784  0.00  0.00    +0.134 A 
ATOM      7  N   UNL     1      -1.513  -1.170   4.016  0.00  0.00    -0.206 NA
ATOM      8  C   UNL     1      -0.623  -1.582   4.910  0.00  0.00    +0.191 A 
ATOM      9  N   UNL     1       0.663  -1.686   4.604  0.00  0.00    -0.215 NA
ATOM     10  C   UNL     1       2.995  -0.492  -0.232  0.00  0.00    +0.052 C 
ENDROOT
BRANCH   6  11
ATOM     11  N   UNL     1      -2.126  -0.410   1.881  0.00  0.00    -0.318 N 
ATOM     12  C   UNL     1      -2.869  -1.375   1.057  0.00  0.00    +0.088 C 
ATOM     13  C   UNL     1      -4.366  -1.074   1.187  0.00  0.00    -0.059 C 
ATOM     14  N   UNL     1      -4.613   0.332   0.845  0.00  0.00    +0.384 N 
ATOM     15  C   UNL     1      -3.948   1.208   1.818  0.00  0.00    -0.059 C 
ATOM     16  C   UNL     1      -2.434   1.020   1.722  0.00  0.00    +0.088 C 
ATOM     17  H   UNL     1      -4.252   0.521  -0.078  0.00  0.00    -0.081 HD
BRANCH  14  18
ATOM     18  C   UNL     1      -6.059   0.592   0.864  0.00  0.00    -0.048 C 
BRANCH  18  19
ATOM     19  C   UNL     1      -6.322   2.000   0.394  0.00  0.00    -0.096 C 
ATOM     20  C   UNL     1      -6.614   2.227  -0.863  0.00  0.00    +0.005 C 
ATOM     21  C   UNL     1      -6.250   3.146   1.370  0.00  0.00    +0.036 C 
ENDBRANCH  18  19
ENDBRANCH  14  18
ENDBRANCH   6  11
BRANCH   1  23
ATOM     22  C   UNL     1       0.024   1.408  -0.085  0.00  0.00    +0.009 C 
ATOM     23  C   UNL     1      -0.013  -0.120  -0.036  0.00  0.00    +0.033 C 
ENDBRANCH   1  23
BRANCH   8  24
ATOM     24  S   UNL     1      -1.162  -2.011   6.532  0.00  0.00    -0.081 S 
BRANCH  24  25
ATOM     25  C   UNL     1       0.361  -2.503   7.385  0.00  0.00    +0.112 C 
BRANCH  25  26
ATOM     26  C   UNL     1       0.037  -2.900   8.803  0.00  0.00    -0.037 A 
ATOM     27  C   UNL     1       0.050  -1.949   9.806  0.00  0.00    +0.005 A 
ATOM     28  C   UNL     1      -0.247  -2.312  11.106  0.00  0.00    +0.015 A 
ATOM     29  C   UNL     1      -0.558  -3.627  11.403  0.00  0.00    +0.018 A 
ATOM     30  C   UNL     1      -0.571  -4.578  10.398  0.00  0.00    +0.015 A 
ATOM     31  C   UNL     1      -0.278  -4.213   9.098  0.00  0.00    +0.005 A 
ATOM     32 BR   UNL     1      -0.964  -4.125  13.181  0.00  0.00    -0.050 Br
ENDBRANCH  25  26
ENDBRANCH  24  25
ENDBRANCH   8  24
TORSDOF 7
