REMARK  Name = ZINC04556305
REMARK  5 active torsions:
REMARK  status: ('A' for Active; 'I' for Inactive)
REMARK    1  A    between atoms: C_1  and  C_2
REMARK    2  A    between atoms: C_2  and  N_45
REMARK    3  A    between atoms: C_10  and  O_23
REMARK    4  A    between atoms: C_12  and  C_15
REMARK    5  A    between atoms: C_16  and  C_17
REMARK                            x       y       z     vdW  Elec       q    Type
REMARK                         _______ _______ _______ _____ _____    ______ ____
ROOT
ATOM      1  C   UNL     1      -0.694   1.726  -1.815  0.00  0.00    -0.074 C 
ATOM      2  C   UNL     1      -1.742   2.131  -2.855  0.00  0.00    +0.018 C 
ATOM      3  C   UNL     1      -1.566   3.616  -3.155  0.00  0.00    -0.027 A 
ATOM      4  C   UNL     1      -0.866   4.400  -2.300  0.00  0.00    -0.021 A 
ATOM      5  S   UNL     1      -0.902   6.014  -3.030  0.00  0.00    -0.080 S 
ATOM      6  C   UNL     1      -1.822   5.654  -4.427  0.00  0.00    +0.080 A 
ATOM      7  C   UNL     1      -2.102   4.284  -4.325  0.00  0.00    +0.067 A 
ATOM      8  C   UNL     1      -2.910   3.673  -5.412  0.00  0.00    +0.220 C 
ATOM      9  N   UNL     1      -3.099   4.377  -6.495  0.00  0.00    -0.223 NA
ATOM     10  C   UNL     1      -2.521   5.691  -6.743  0.00  0.00    +0.217 C 
ATOM     11  N   UNL     1      -2.256   6.414  -5.485  0.00  0.00    -0.313 N 
ATOM     12  C   UNL     1      -0.215   3.966  -1.025  0.00  0.00    -0.035 C 
ATOM     13  H   UNL     1      -2.382   7.373  -5.410  0.00  0.00    +0.149 HD
ATOM     14  N   UNL     1      -0.773   2.641  -0.658  0.00  0.00    +0.383 N 
ATOM     15  H   UNL     1      -1.757   2.756  -0.389  0.00  0.00    -0.081 HD
ENDROOT
BRANCH  14  17
ATOM     16  C   UNL     1      -0.299   2.930   1.726  0.00  0.00    -0.017 C 
ATOM     17  C   UNL     1      -0.024   2.077   0.486  0.00  0.00    -0.082 C 
ENDBRANCH  14  17
BRANCH  10  18
ATOM     18  C   UNL     1      -1.226   5.525  -7.496  0.00  0.00    +0.019 C 
ATOM     19  C   UNL     1      -1.138   5.920  -8.758  0.00  0.00    +0.007 C 
BRANCH  19  20
ATOM     20  C   UNL     1      -2.351   6.353  -9.484  0.00  0.00    -0.025 A 
ATOM     21  C   UNL     1      -3.558   5.681  -9.293  0.00  0.00    +0.008 A 
ATOM     22  C   UNL     1      -4.688   6.094  -9.969  0.00  0.00    +0.001 A 
ATOM     23  C   UNL     1      -4.623   7.164 -10.843  0.00  0.00    +0.000 A 
ATOM     24  C   UNL     1      -3.427   7.831 -11.040  0.00  0.00    +0.001 A 
ATOM     25  C   UNL     1      -2.291   7.432 -10.367  0.00  0.00    +0.008 A 
ENDBRANCH  19  20
ENDBRANCH  10  18
BRANCH   8  26
ATOM     26  O   UNL     1      -3.432   2.432  -5.284  0.00  0.00    -0.492 OA
ATOM     27  H   UNL     1      -3.939   2.136  -6.053  0.00  0.00    +0.294 HD
ENDBRANCH   8  26
TORSDOF 4
