REMARK  Name = ZINC60677673
REMARK  6 active torsions:
REMARK  status: ('A' for Active; 'I' for Inactive)
REMARK    1  A    between atoms: C_1  and  C_2
REMARK    2  A    between atoms: C_2  and  C_3
REMARK    3  A    between atoms: C_2  and  O_18
REMARK    4  A    between atoms: C_14  and  C_15
REMARK    5  A    between atoms: O_18  and  C_19
REMARK    6  A    between atoms: C_22  and  C_25
REMARK                            x       y       z     vdW  Elec       q    Type
REMARK                         _______ _______ _______ _____ _____    ______ ____
ROOT
ATOM      1  C   UNL     1       1.998   1.067  -2.642  0.00  0.00    +0.257 C 
ATOM      2  O   UNL     1       2.933   0.327  -2.418  0.00  0.00    -0.272 OA
ATOM      3  N   UNL     1       0.906   0.600  -3.279  0.00  0.00    -0.282 N 
ATOM      4  C   UNL     1      -0.214   1.483  -3.620  0.00  0.00    +0.144 C 
ATOM      5  C   UNL     1      -1.518   0.804  -3.281  0.00  0.00    -0.027 A 
ATOM      6  C   UNL     1      -2.674   1.573  -3.305  0.00  0.00    +0.005 A 
ATOM      7  C   UNL     1      -3.897   1.006  -3.014  0.00  0.00    +0.000 A 
ATOM      8  C   UNL     1      -3.973  -0.338  -2.698  0.00  0.00    +0.000 A 
ATOM      9  C   UNL     1      -2.824  -1.101  -2.669  0.00  0.00    +0.004 A 
ATOM     10  C   UNL     1      -1.589  -0.532  -2.956  0.00  0.00    -0.040 A 
ATOM     11  C   UNL     1      -0.376  -1.421  -2.879  0.00  0.00    +0.067 C 
ATOM     12  C   UNL     1       0.793  -0.816  -3.666  0.00  0.00    +0.166 C 
ENDROOT
BRANCH  12  13
ATOM     13  C   UNL     1       2.070  -1.541  -3.326  0.00  0.00    +0.231 C 
ATOM     14  O   UNL     1       2.400  -1.677  -2.167  0.00  0.00    -0.274 OA
ATOM     15  N   UNL     1       2.845  -2.038  -4.310  0.00  0.00    -0.328 N 
ATOM     16  H   UNL     1       2.580  -1.929  -5.237  0.00  0.00    +0.145 HD
ATOM     17  H   UNL     1       3.666  -2.505  -4.092  0.00  0.00    +0.145 HD
ENDBRANCH  12  13
BRANCH   1  19
ATOM     18  C   UNL     1       2.054   3.414  -3.441  0.00  0.00    +0.062 C 
ATOM     19  C   UNL     1       2.058   2.509  -2.207  0.00  0.00    +0.256 C 
BRANCH  19  20
ATOM     20  O   UNL     1       3.253   2.731  -1.457  0.00  0.00    -0.480 OA
BRANCH  20  21
ATOM     21  C   UNL     1       3.244   3.761  -0.573  0.00  0.00    +0.122 A 
ATOM     22  C   UNL     1       2.143   4.607  -0.507  0.00  0.00    +0.047 A 
ATOM     23  C   UNL     1       2.129   5.653   0.390  0.00  0.00    +0.022 A 
ATOM     24  C   UNL     1       3.223   5.862   1.234  0.00  0.00    +0.052 A 
ATOM     25  C   UNL     1       4.327   5.008   1.164  0.00  0.00    +0.022 A 
ATOM     26  C   UNL     1       4.331   3.962   0.269  0.00  0.00    +0.047 A 
BRANCH  24  27
ATOM     27  C   UNL     1       3.213   6.948   2.167  0.00  0.00    +0.099 C 
ATOM     28  N   UNL     1       3.204   7.810   2.907  0.00  0.00    -0.191 NA
ENDBRANCH  24  27
ENDBRANCH  20  21
ENDBRANCH  19  20
ENDBRANCH   1  19
TORSDOF 5
