REMARK  Name = ZINC43514769
REMARK  5 active torsions:
REMARK  status: ('A' for Active; 'I' for Inactive)
REMARK    1  A    between atoms: C_1  and  C_2
REMARK    2  A    between atoms: C_5  and  N_9
REMARK    3  A    between atoms: N_9  and  C_10
REMARK    4  A    between atoms: C_10  and  C_12
REMARK    5  A    between atoms: C_10  and  C_13
REMARK                            x       y       z     vdW  Elec       q    Type
REMARK                         _______ _______ _______ _____ _____    ______ ____
ROOT
ATOM      1  C   UNL     1       3.637  -1.045  -3.074  0.00  0.00    +0.044 C 
ATOM      2  C   UNL     1       2.683  -1.893  -2.272  0.00  0.00    -0.048 A 
ATOM      3  C   UNL     1       2.403  -3.186  -2.675  0.00  0.00    +0.020 A 
ATOM      4  C   UNL     1       1.529  -3.966  -1.942  0.00  0.00    +0.040 A 
ATOM      5  C   UNL     1       0.931  -3.450  -0.799  0.00  0.00    +0.056 A 
ATOM      6  C   UNL     1       1.215  -2.151  -0.396  0.00  0.00    +0.040 A 
ATOM      7  C   UNL     1       2.095  -1.378  -1.131  0.00  0.00    +0.020 A 
ATOM      8 BR   UNL     1       0.405  -1.442   1.159  0.00  0.00    -0.048 Br
ATOM      9 BR   UNL     1       1.146  -5.733  -2.495  0.00  0.00    -0.048 Br
ENDROOT
BRANCH   5  10
ATOM     10  N   UNL     1       0.046  -4.236  -0.055  0.00  0.00    -0.327 N 
ATOM     11  H   UNL     1      -0.873  -4.339  -0.347  0.00  0.00    +0.147 HD
BRANCH  10  12
ATOM     12  C   UNL     1       0.507  -4.903   1.165  0.00  0.00    +0.171 C 
ATOM     13  C   UNL     1      -0.690  -5.178   2.078  0.00  0.00    +0.044 C 
BRANCH  12  14
ATOM     14  C   UNL     1       1.158  -6.175   0.813  0.00  0.00    +0.085 C 
ATOM     15  N   UNL     1       1.661  -7.157   0.541  0.00  0.00    -0.195 NA
ENDBRANCH  12  14
ENDBRANCH  10  12
ENDBRANCH   5  10
TORSDOF 3
