REMARK  Name = ZINC65371108
REMARK  9 active torsions:
REMARK  status: ('A' for Active; 'I' for Inactive)
REMARK    1  A    between atoms: C_1  and  C_2
REMARK    2  A    between atoms: C_2  and  C_3
REMARK    3  A    between atoms: C_3  and  C_4
REMARK    4  A    between atoms: C_4  and  C_6
REMARK    5  A    between atoms: C_4  and  C_7
REMARK    6  A    between atoms: C_9  and  C_26
REMARK    7  A    between atoms: N_13  and  C_14
REMARK    8  A    between atoms: C_14  and  C_15
REMARK    9  A    between atoms: C_15  and  C_16
REMARK                            x       y       z     vdW  Elec       q    Type
REMARK                         _______ _______ _______ _____ _____    ______ ____
ROOT
ATOM      1  C   UNL     1       1.340  -2.719   2.798  0.00  0.00    -0.042 C 
ATOM      2  C   UNL     1       0.258  -2.098   3.708  0.00  0.00    +0.069 C 
ATOM      3  N   UNL     1      -0.049  -3.189   4.673  0.00  0.00    -0.327 NA
ATOM      4  C   UNL     1       0.034  -4.412   3.834  0.00  0.00    +0.006 C 
ATOM      5  N   UNL     1       1.175  -4.183   2.919  0.00  0.00    +0.391 N 
ATOM      6  H   UNL     1       0.631  -3.214   5.418  0.00  0.00    +0.120 HD
ATOM      7  H   UNL     1       0.977  -4.582   2.014  0.00  0.00    -0.079 HD
ENDROOT
BRANCH   2   8
ATOM      8  C   UNL     1       0.797  -0.887   4.424  0.00  0.00    -0.032 A 
ATOM      9  C   UNL     1       1.695  -1.041   5.463  0.00  0.00    +0.005 A 
ATOM     10  C   UNL     1       2.189   0.070   6.120  0.00  0.00    +0.000 A 
ATOM     11  C   UNL     1       1.786   1.336   5.737  0.00  0.00    +0.000 A 
ATOM     12  C   UNL     1       0.888   1.490   4.697  0.00  0.00    +0.000 A 
ATOM     13  C   UNL     1       0.397   0.379   4.037  0.00  0.00    +0.005 A 
ENDBRANCH   2   8
BRANCH   1  14
ATOM     14  C   UNL     1       1.126  -2.281   1.348  0.00  0.00    -0.026 C 
ATOM     15  C   UNL     1      -0.231  -2.789   0.857  0.00  0.00    +0.006 C 
BRANCH  14  16
ATOM     16  C   UNL     1       2.236  -2.862   0.470  0.00  0.00    +0.001 C 
BRANCH  16  18
ATOM     17  C   UNL     1       3.199  -2.913  -1.835  0.00  0.00    +0.004 C 
ATOM     18  C   UNL     1       2.088  -2.332  -0.957  0.00  0.00    -0.003 C 
ENDBRANCH  16  18
ENDBRANCH  14  16
ENDBRANCH   1  14
BRANCH   5  19
ATOM     19  C   UNL     1       2.396  -4.780   3.478  0.00  0.00    -0.072 C 
BRANCH  19  20
ATOM     20  C   UNL     1       2.262  -6.304   3.482  0.00  0.00    +0.023 C 
BRANCH  20  21
ATOM     21  C   UNL     1       3.514  -6.916   4.056  0.00  0.00    +0.031 A 
ATOM     22  C   UNL     1       3.576  -7.248   5.363  0.00  0.00    +0.096 A 
ATOM     23  N   UNL     1       4.721  -7.803   5.868  0.00  0.00    -0.314 N 
ATOM     24  H   UNL     1       4.765  -8.041   6.807  0.00  0.00    +0.170 HD
ATOM     25  C   UNL     1       5.784  -8.021   5.074  0.00  0.00    +0.327 A 
ATOM     26  O   UNL     1       6.791  -8.516   5.543  0.00  0.00    -0.247 OA
ATOM     27  N   UNL     1       5.749  -7.701   3.767  0.00  0.00    -0.275 N 
ATOM     28  H   UNL     1       6.525  -7.865   3.208  0.00  0.00    +0.173 HD
ATOM     29  C   UNL     1       4.638  -7.156   3.230  0.00  0.00    +0.257 A 
ATOM     30  O   UNL     1       4.604  -6.870   2.047  0.00  0.00    -0.267 OA
ENDBRANCH  20  21
ENDBRANCH  19  20
ENDBRANCH   5  19
TORSDOF 7
