REMARK  Name = ZINC41514924
REMARK  13 active torsions:
REMARK  status: ('A' for Active; 'I' for Inactive)
REMARK    1  A    between atoms: C_1  and  C_2
REMARK    2  A    between atoms: C_2  and  N_3
REMARK    3  A    between atoms: N_6  and  C_9
REMARK    4  A    between atoms: C_9  and  C_10
REMARK    5  A    between atoms: C_11  and  O_34
REMARK    6  A    between atoms: C_13  and  C_33
REMARK    7  A    between atoms: C_18  and  C_19
REMARK    8  A    between atoms: C_22  and  O_29
REMARK    9  A    between atoms: C_23  and  O_27
REMARK   10  A    between atoms: C_24  and  O_25
REMARK   11  A    between atoms: O_25  and  C_26
REMARK   12  A    between atoms: O_27  and  C_28
REMARK   13  A    between atoms: O_29  and  C_30
REMARK                            x       y       z     vdW  Elec       q    Type
REMARK                         _______ _______ _______ _____ _____    ______ ____
ROOT
ATOM      1  C   UNL     1       1.018  -4.194   3.891  0.00  0.00    +0.051 A 
ATOM      2  C   UNL     1      -0.119  -4.854   4.328  0.00  0.00    +0.125 A 
ATOM      3  C   UNL     1      -0.136  -6.242   4.432  0.00  0.00    +0.050 A 
ATOM      4  C   UNL     1       0.974  -6.969   4.104  0.00  0.00    -0.033 A 
ATOM      5  C   UNL     1       2.126  -6.318   3.662  0.00  0.00    +0.071 A 
ATOM      6  C   UNL     1       2.153  -4.919   3.547  0.00  0.00    +0.148 A 
ATOM      7  O   UNL     1       3.363  -4.523   3.097  0.00  0.00    -0.451 OA
ATOM      8  C   UNL     1       4.189  -5.575   2.885  0.00  0.00    +0.176 C 
ATOM      9  C   UNL     1       5.470  -5.511   2.434  0.00  0.00    +0.062 C 
ATOM     10  C   UNL     1       3.455  -6.795   3.241  0.00  0.00    +0.232 C 
ATOM     11  O   UNL     1       3.852  -7.947   3.187  0.00  0.00    -0.283 OA
ATOM     12  C   UNL     1       0.953  -8.472   4.218  0.00  0.00    +0.045 C 
ENDROOT
BRANCH   9  13
ATOM     13  C   UNL     1       6.035  -4.227   2.010  0.00  0.00    +0.024 A 
ATOM     14  C   UNL     1       5.419  -3.027   2.391  0.00  0.00    +0.015 A 
ATOM     15  C   UNL     1       5.952  -1.823   1.992  0.00  0.00    +0.050 A 
ATOM     16  C   UNL     1       7.101  -1.790   1.209  0.00  0.00    +0.165 A 
ATOM     17  C   UNL     1       7.723  -2.973   0.823  0.00  0.00    +0.204 A 
ATOM     18  C   UNL     1       7.200  -4.193   1.224  0.00  0.00    +0.172 A 
BRANCH  18  19
ATOM     19  O   UNL     1       7.807  -5.350   0.853  0.00  0.00    -0.491 OA
ATOM     20  C   UNL     1       7.385  -5.938  -0.379  0.00  0.00    +0.277 C 
ENDBRANCH  18  19
BRANCH  17  21
ATOM     21  O   UNL     1       8.846  -2.933   0.056  0.00  0.00    -0.488 OA
ATOM     22  C   UNL     1      10.099  -2.881   0.743  0.00  0.00    +0.277 C 
ENDBRANCH  17  21
BRANCH  16  23
ATOM     23  O   UNL     1       7.620  -0.596   0.820  0.00  0.00    -0.491 OA
ATOM     24  C   UNL     1       6.933   0.581   1.250  0.00  0.00    +0.277 C 
ENDBRANCH  16  23
ENDBRANCH   9  13
BRANCH   2  25
ATOM     25  O   UNL     1      -1.226  -4.141   4.657  0.00  0.00    -0.506 OA
ATOM     26  H   UNL     1      -1.833  -3.994   3.919  0.00  0.00    +0.292 HD
ENDBRANCH   2  25
BRANCH   1  27
ATOM     27  C   UNL     1       1.022  -2.691   3.782  0.00  0.00    +0.126 C 
BRANCH  27  31
ATOM     28  N   UNL     1       0.788  -0.888  -0.034  0.00  0.00    +0.381 N 
ATOM     29  C   UNL     1      -0.194  -0.485   0.982  0.00  0.00    -0.063 C 
ATOM     30  C   UNL     1       0.333  -0.847   2.372  0.00  0.00    +0.066 C 
ATOM     31  N   UNL     1       0.569  -2.296   2.442  0.00  0.00    -0.301 NA
ATOM     32  C   UNL     1       1.532  -2.718   1.415  0.00  0.00    +0.066 C 
ATOM     33  C   UNL     1       0.995  -2.341   0.032  0.00  0.00    -0.063 C 
ATOM     34  H   UNL     1       1.663  -0.416   0.139  0.00  0.00    -0.082 HD
BRANCH  28  36
ATOM     35  C   UNL     1       0.193   0.998  -1.478  0.00  0.00    -0.017 C 
ATOM     36  C   UNL     1       0.290  -0.525  -1.367  0.00  0.00    -0.082 C 
ENDBRANCH  28  36
ENDBRANCH  27  31
ENDBRANCH   1  27
TORSDOF 8
