REMARK  Name = ZINC45193065
REMARK  7 active torsions:
REMARK  status: ('A' for Active; 'I' for Inactive)
REMARK    1  A    between atoms: C_1  and  O_2
REMARK    2  A    between atoms: O_2  and  C_3
REMARK    3  A    between atoms: C_9  and  C_13
REMARK    4  A    between atoms: N_16  and  C_19
REMARK    5  A    between atoms: C_19  and  C_20
REMARK    6  A    between atoms: C_23  and  C_25
REMARK    7  A    between atoms: C_25  and  C_27
REMARK                            x       y       z     vdW  Elec       q    Type
REMARK                         _______ _______ _______ _____ _____    ______ ____
ROOT
ATOM      1  C   UNL     1       2.589   1.564  -4.575  0.00  0.00    -0.044 C 
ATOM      2  C   UNL     1       1.553   2.249  -5.010  0.00  0.00    -0.041 C 
ATOM      3  C   UNL     1       1.631   3.704  -5.376  0.00  0.00    -0.051 C 
ATOM      4  N   UNL     1       2.829   4.315  -4.788  0.00  0.00    +0.382 N 
ATOM      5  C   UNL     1       4.006   3.513  -5.157  0.00  0.00    -0.074 C 
ATOM      6  C   UNL     1       3.947   2.185  -4.395  0.00  0.00    +0.017 C 
ATOM      7  H   UNL     1       2.738   4.338  -3.784  0.00  0.00    -0.081 HD
ENDROOT
BRANCH   1  14
ATOM      8  C   UNL     1       0.605  -0.606  -1.054  0.00  0.00    +0.215 A 
ATOM      9  C   UNL     1       0.648  -1.997  -1.117  0.00  0.00    +0.069 A 
ATOM     10  C   UNL     1       1.260  -2.613  -2.191  0.00  0.00    +0.033 A 
ATOM     11  C   UNL     1       1.819  -1.811  -3.184  0.00  0.00    +0.066 A 
ATOM     12  C   UNL     1       1.740  -0.415  -3.057  0.00  0.00    +0.100 A 
ATOM     13  N   UNL     1       1.136   0.135  -2.008  0.00  0.00    -0.211 NA
ATOM     14  C   UNL     1       2.411   0.136  -4.246  0.00  0.00    +0.021 A 
ATOM     15  C   UNL     1       2.835  -0.925  -4.983  0.00  0.00    +0.093 A 
ATOM     16  N   UNL     1       2.487  -2.086  -4.359  0.00  0.00    -0.359 N 
ATOM     17  H   UNL     1       2.682  -2.976  -4.693  0.00  0.00    +0.165 HD
BRANCH   8  19
ATOM     18  C   UNL     1      -0.017   1.425   0.010  0.00  0.00    +0.279 C 
ATOM     19  O   UNL     1       0.002  -0.004   0.002  0.00  0.00    -0.480 OA
ENDBRANCH   8  19
ENDBRANCH   1  14
BRANCH   4  20
ATOM     20  C   UNL     1       2.985   5.683  -5.302  0.00  0.00    -0.074 C 
BRANCH  20  21
ATOM     21  C   UNL     1       1.816   6.544  -4.822  0.00  0.00    -0.016 C 
ATOM     22  C   UNL     1       0.874   7.113  -5.886  0.00  0.00    +0.014 C 
ATOM     23  C   UNL     1       1.854   8.037  -5.157  0.00  0.00    +0.062 C 
BRANCH  23  24
ATOM     24  C   UNL     1       3.041   8.545  -5.934  0.00  0.00    +0.166 C 
ATOM     25  O   UNL     1       3.611   7.816  -6.716  0.00  0.00    -0.292 OA
BRANCH  24  26
ATOM     26  C   UNL     1       3.507   9.928  -5.743  0.00  0.00    +0.018 A 
ATOM     27  C   UNL     1       2.855  10.771  -4.838  0.00  0.00    +0.011 A 
ATOM     28  C   UNL     1       3.298  12.066  -4.664  0.00  0.00    +0.001 A 
ATOM     29  C   UNL     1       4.385  12.531  -5.383  0.00  0.00    +0.000 A 
ATOM     30  C   UNL     1       5.035  11.703  -6.282  0.00  0.00    +0.001 A 
ATOM     31  C   UNL     1       4.608  10.404  -6.462  0.00  0.00    +0.011 A 
ENDBRANCH  24  26
ENDBRANCH  23  24
ENDBRANCH  20  21
ENDBRANCH   4  20
TORSDOF 6
