REMARK  Name = ZINC12498012
REMARK  6 active torsions:
REMARK  status: ('A' for Active; 'I' for Inactive)
REMARK    1  A    between atoms: C_1  and  O_2
REMARK    2  A    between atoms: O_2  and  C_3
REMARK    3  A    between atoms: C_3  and  C_5
REMARK    4  A    between atoms: C_5  and  C_34
REMARK    5  A    between atoms: C_10  and  C_12
REMARK    6  A    between atoms: N_21  and  C_24
REMARK                            x       y       z     vdW  Elec       q    Type
REMARK                         _______ _______ _______ _____ _____    ______ ____
ROOT
ATOM      1  C   UNL     1       2.418   6.299  -0.549  0.00  0.00    +0.070 C 
ATOM      2  C   UNL     1       2.071   5.473  -1.765  0.00  0.00    +0.090 C 
ATOM      3  C   UNL     1       2.902   4.182  -1.394  0.00  0.00    +0.078 C 
ATOM      4  C   UNL     1       2.450   3.942   0.000  0.00  0.00    -0.023 C 
ATOM      5  C   UNL     1       2.759   3.436  -2.642  0.00  0.00    +0.229 C 
ATOM      6  O   UNL     1       2.647   2.237  -2.778  0.00  0.00    -0.275 OA
ATOM      7  N   UNL     1       2.778   4.392  -3.627  0.00  0.00    -0.210 N 
ATOM      8  C   UNL     1       2.599   5.658  -3.135  0.00  0.00    +0.229 C 
ATOM      9  O   UNL     1       2.824   6.706  -3.701  0.00  0.00    -0.275 OA
ATOM     10  N   UNL     1       2.247   5.310   0.558  0.00  0.00    +0.398 N 
ATOM     11  H   UNL     1       1.301   5.388   0.949  0.00  0.00    -0.083 HD
ATOM     12  H   UNL     1       2.938   5.491   1.295  0.00  0.00    -0.083 HD
ENDROOT
BRANCH   7  13
ATOM     13  C   UNL     1       2.962   4.104  -4.988  0.00  0.00    +0.048 A 
ATOM     14  C   UNL     1       2.967   5.133  -5.921  0.00  0.00    +0.028 A 
ATOM     15  C   UNL     1       3.146   4.850  -7.261  0.00  0.00    +0.051 A 
ATOM     16  C   UNL     1       3.320   3.539  -7.679  0.00  0.00    +0.162 A 
ATOM     17  C   UNL     1       3.317   2.507  -6.747  0.00  0.00    +0.164 A 
ATOM     18  C   UNL     1       3.143   2.792  -5.402  0.00  0.00    +0.073 A 
ATOM     19  O   UNL     1       3.494   1.215  -7.138  0.00  0.00    -0.485 OA
ATOM     20  C   UNL     1       3.295   0.930  -8.527  0.00  0.00    +0.270 C 
ATOM     21  C   UNL     1       4.031   1.998  -9.347  0.00  0.00    +0.270 C 
ATOM     22  O   UNL     1       3.488   3.279  -9.005  0.00  0.00    -0.485 OA
ENDBRANCH   7  13
BRANCH   4  23
ATOM     23  C   UNL     1       1.157   3.169   0.008  0.00  0.00    -0.025 A 
ATOM     24  C   UNL     1      -0.051   3.842   0.023  0.00  0.00    +0.005 A 
ATOM     25  C   UNL     1      -1.237   3.133   0.031  0.00  0.00    +0.000 A 
ATOM     26  C   UNL     1      -1.218   1.751   0.017  0.00  0.00    +0.003 A 
ATOM     27  C   UNL     1      -0.013   1.076   0.008  0.00  0.00    +0.038 A 
ATOM     28  C   UNL     1       1.177   1.785   0.000  0.00  0.00    +0.125 A 
ATOM     29  F   UNL     1       2.356   1.126  -0.015  0.00  0.00    -0.205 F 
ENDBRANCH   4  23
BRANCH   1  30
ATOM     30  C   UNL     1       1.468   7.459  -0.395  0.00  0.00    -0.047 A 
ATOM     31  C   UNL     1       0.980   8.106  -1.514  0.00  0.00    +0.003 A 
ATOM     32  C   UNL     1       0.105   9.167  -1.373  0.00  0.00    +0.000 A 
ATOM     33  C   UNL     1      -0.274   9.587  -0.112  0.00  0.00    +0.000 A 
ATOM     34  C   UNL     1       0.219   8.943   1.008  0.00  0.00    +0.000 A 
ATOM     35  C   UNL     1       1.090   7.879   0.866  0.00  0.00    +0.003 A 
ENDBRANCH   1  30
BRANCH   1  36
ATOM     36  C   UNL     1       3.844   6.783  -0.620  0.00  0.00    +0.301 C 
ATOM     37  O   UNL     1       4.356   6.999  -1.693  0.00  0.00    -0.252 OA
BRANCH  36  39
ATOM     38  C   UNL     1       5.912   7.440   0.365  0.00  0.00    +0.280 C 
ATOM     39  O   UNL     1       4.545   6.973   0.509  0.00  0.00    -0.469 OA
ENDBRANCH  36  39
ENDBRANCH   1  36
TORSDOF 5
