REMARK  Name = ZINC05023092
REMARK  5 active torsions:
REMARK  status: ('A' for Active; 'I' for Inactive)
REMARK    1  A    between atoms: C_4  and  C_7
REMARK    2  A    between atoms: C_7  and  O_8
REMARK    3  A    between atoms: O_8  and  C_9
REMARK    4  A    between atoms: C_14  and  C_15
REMARK    5  A    between atoms: N_16  and  N_17
REMARK                            x       y       z     vdW  Elec       q    Type
REMARK                         _______ _______ _______ _____ _____    ______ ____
ROOT
ATOM      1  C   UNL     1       5.287  -1.589  -1.585  0.00  0.00    +0.130 A 
ATOM      2  C   UNL     1       6.036  -2.008  -0.498  0.00  0.00    +0.046 A 
ATOM      3  C   UNL     1       7.230  -2.676  -0.695  0.00  0.00    +0.004 A 
ATOM      4  C   UNL     1       7.686  -2.931  -1.977  0.00  0.00    +0.001 A 
ATOM      5  C   UNL     1       6.951  -2.522  -3.071  0.00  0.00    +0.013 A 
ATOM      6  C   UNL     1       5.741  -1.850  -2.884  0.00  0.00    +0.036 A 
ENDROOT
BRANCH   6   7
ATOM      7  C   UNL     1       4.949  -1.414  -4.048  0.00  0.00    +0.142 C 
ATOM      8  N   UNL     1       3.826  -0.786  -3.871  0.00  0.00    -0.188 NA
BRANCH   8   9
ATOM      9  N   UNL     1       3.073  -0.372  -4.977  0.00  0.00    -0.215 N 
ATOM     10  C   UNL     1       1.880   0.296  -4.788  0.00  0.00    +0.179 A 
ATOM     11  N   UNL     1       1.043   0.758  -5.690  0.00  0.00    -0.224 NA
ATOM     12  C   UNL     1      -0.099   1.397  -5.358  0.00  0.00    +0.080 A 
ATOM     13  C   UNL     1      -1.079   1.939  -6.222  0.00  0.00    +0.029 A 
ATOM     14  C   UNL     1      -2.191   2.561  -5.717  0.00  0.00    +0.002 A 
ATOM     15  C   UNL     1      -2.396   2.682  -4.350  0.00  0.00    +0.001 A 
ATOM     16  C   UNL     1      -1.458   2.164  -3.476  0.00  0.00    +0.017 A 
ATOM     17  C   UNL     1      -0.342   1.539  -3.972  0.00  0.00    +0.041 A 
ATOM     18  S   UNL     1       1.077   0.744  -3.256  0.00  0.00    -0.051 S 
ATOM     19  H   UNL     1       3.390  -0.554  -5.875  0.00  0.00    +0.176 HD
ENDBRANCH   8   9
ENDBRANCH   6   7
BRANCH   1  20
ATOM     20  O   UNL     1       4.113  -0.932  -1.391  0.00  0.00    -0.487 OA
BRANCH  20  21
ATOM     21  C   UNL     1       3.711  -0.707  -0.039  0.00  0.00    +0.264 C 
BRANCH  21  25
ATOM     22  C   UNL     1      -0.017   1.378   0.010  0.00  0.00    +0.000 A 
ATOM     23  C   UNL     1       1.171   2.086   0.002  0.00  0.00    +0.000 A 
ATOM     24  C   UNL     1       2.377   1.411  -0.014  0.00  0.00    +0.007 A 
ATOM     25  C   UNL     1       2.396   0.029  -0.022  0.00  0.00    -0.010 A 
ATOM     26  C   UNL     1       1.208  -0.679  -0.014  0.00  0.00    +0.007 A 
ATOM     27  C   UNL     1       0.002  -0.004   0.002  0.00  0.00    +0.000 A 
ENDBRANCH  21  25
ENDBRANCH  20  21
ENDBRANCH   1  20
TORSDOF 5
