REMARK  Name = ZINC13027214
REMARK  9 active torsions:
REMARK  status: ('A' for Active; 'I' for Inactive)
REMARK    1  A    between atoms: C_1  and  C_2
REMARK    2  A    between atoms: C_2  and  C_3
REMARK    3  A    between atoms: C_8  and  N_9
REMARK    4  A    between atoms: N_9  and  C_10
REMARK    5  A    between atoms: C_10  and  C_12
REMARK    6  A    between atoms: C_10  and  C_19
REMARK    7  A    between atoms: C_15  and  O_18
REMARK    8  A    between atoms: N_21  and  C_22
REMARK    9  A    between atoms: C_27  and  C_29
REMARK                            x       y       z     vdW  Elec       q    Type
REMARK                         _______ _______ _______ _____ _____    ______ ____
ROOT
ATOM      1  N   UNL     1      -1.126  -0.501  -0.510  0.00  0.00    -0.250 N 
ATOM      2  C   UNL     1      -1.165  -0.257  -1.835  0.00  0.00    +0.272 C 
ATOM      3  O   UNL     1      -0.283   0.398  -2.358  0.00  0.00    -0.268 OA
ENDROOT
BRANCH   2   4
ATOM      4  C   UNL     1      -2.276  -0.783  -2.651  0.00  0.00    +0.155 A 
ATOM      5  C   UNL     1      -2.342  -0.541  -4.023  0.00  0.00    +0.098 A 
ATOM      6  C   UNL     1      -3.429  -1.103  -4.615  0.00  0.00    +0.117 A 
ATOM      7  S   UNL     1      -4.223  -1.866  -3.283  0.00  0.00    +0.026 S 
ATOM      8  N   UNL     1      -3.241  -1.493  -2.109  0.00  0.00    -0.203 NA
ATOM      9 CL   UNL     1      -3.903  -1.060  -6.285  0.00  0.00    -0.073 Cl
ATOM     10 CL   UNL     1      -1.153   0.382  -4.888  0.00  0.00    -0.079 Cl
ENDBRANCH   2   4
BRANCH   1  16
ATOM     11  C   UNL     1      -2.079  -2.641   0.076  0.00  0.00    -0.026 A 
ATOM     12  C   UNL     1      -3.079  -3.381   0.675  0.00  0.00    +0.005 A 
ATOM     13  C   UNL     1      -4.146  -2.743   1.280  0.00  0.00    +0.000 A 
ATOM     14  C   UNL     1      -4.212  -1.362   1.293  0.00  0.00    +0.002 A 
ATOM     15  C   UNL     1      -3.213  -0.615   0.700  0.00  0.00    +0.024 A 
ATOM     16  C   UNL     1      -2.140  -1.254   0.091  0.00  0.00    +0.041 A 
BRANCH  11  18
ATOM     17  C   UNL     1       0.236  -3.468   0.405  0.00  0.00    +0.009 C 
ATOM     18  C   UNL     1      -0.920  -3.338  -0.589  0.00  0.00    +0.033 C 
ENDBRANCH  11  18
ENDBRANCH   1  16
BRANCH   1  19
ATOM     19  C   UNL     1      -0.023   0.022   0.299  0.00  0.00    +0.198 C 
BRANCH  19  20
ATOM     20  C   UNL     1      -0.046   1.528   0.267  0.00  0.00    -0.018 A 
ATOM     21  C   UNL     1      -1.254   2.199   0.213  0.00  0.00    +0.009 A 
ATOM     22  C   UNL     1      -1.279   3.580   0.189  0.00  0.00    +0.046 A 
ATOM     23  C   UNL     1      -0.089   4.294   0.208  0.00  0.00    +0.117 A 
ATOM     24  C   UNL     1       1.122   3.619   0.257  0.00  0.00    +0.046 A 
ATOM     25  C   UNL     1       1.140   2.237   0.286  0.00  0.00    +0.009 A 
BRANCH  23  26
ATOM     26  O   UNL     1      -0.110   5.652   0.178  0.00  0.00    -0.507 OA
ATOM     27  H   UNL     1      -0.091   6.026  -0.714  0.00  0.00    +0.292 HD
ENDBRANCH  23  26
ENDBRANCH  19  20
BRANCH  19  28
ATOM     28  C   UNL     1      -0.175  -0.453   1.722  0.00  0.00    +0.239 C 
ATOM     29  O   UNL     1      -1.089  -1.192   2.020  0.00  0.00    -0.273 OA
ATOM     30  N   UNL     1       0.705  -0.056   2.662  0.00  0.00    -0.311 N 
ATOM     31  H   UNL     1       1.436   0.535   2.424  0.00  0.00    +0.149 HD
BRANCH  30  32
ATOM     32  C   UNL     1       0.557  -0.517   4.045  0.00  0.00    +0.073 C 
ATOM     33  C   UNL     1      -0.373   0.436   4.823  0.00  0.00    +0.022 C 
ATOM     34  C   UNL     1       0.248   0.499   6.241  0.00  0.00    +0.002 C 
ATOM     35  C   UNL     1       1.769   0.488   5.948  0.00  0.00    +0.002 C 
ATOM     36  C   UNL     1       1.919  -0.484   4.760  0.00  0.00    +0.022 C 
ENDBRANCH  30  32
ENDBRANCH  19  28
ENDBRANCH   1  19
TORSDOF 8
