REMARK  Name = ZINC41588726
REMARK  6 active torsions:
REMARK  status: ('A' for Active; 'I' for Inactive)
REMARK    1  A    between atoms: C_1  and  C_2
REMARK    2  A    between atoms: C_5  and  C_8
REMARK    3  A    between atoms: C_8  and  N_9
REMARK    4  A    between atoms: C_15  and  C_19
REMARK    5  A    between atoms: C_22  and  C_23
REMARK    6  A    between atoms: C_24  and  C_28
REMARK                            x       y       z     vdW  Elec       q    Type
REMARK                         _______ _______ _______ _____ _____    ______ ____
ROOT
ATOM      1  N   UNL     1       1.451  -4.747  -0.032  0.00  0.00    -0.262 NA
ATOM      2  C   UNL     1       1.515  -6.201   0.173  0.00  0.00    +0.126 C 
ATOM      3  C   UNL     1       2.934  -6.675  -0.018  0.00  0.00    +0.010 A 
ATOM      4  C   UNL     1       3.298  -7.901   0.469  0.00  0.00    +0.024 A 
ATOM      5  C   UNL     1       4.603  -8.359   0.302  0.00  0.00    +0.068 A 
ATOM      6  C   UNL     1       5.552  -7.567  -0.367  0.00  0.00    +0.146 A 
ATOM      7  C   UNL     1       5.169  -6.327  -0.854  0.00  0.00    +0.034 A 
ATOM      8  C   UNL     1       3.866  -5.881  -0.678  0.00  0.00    +0.133 A 
ATOM      9  O   UNL     1       3.519  -4.658  -1.159  0.00  0.00    -0.476 OA
ATOM     10  C   UNL     1       2.123  -4.381  -1.290  0.00  0.00    +0.319 C 
ATOM     11  C   UNL     1       6.170  -5.460  -1.574  0.00  0.00    +0.051 C 
ATOM     12  O   UNL     1       6.728  -8.231  -0.398  0.00  0.00    -0.451 OA
ATOM     13  C   UNL     1       6.634  -9.433   0.217  0.00  0.00    +0.177 C 
ATOM     14  C   UNL     1       7.645 -10.339   0.356  0.00  0.00    +0.065 C 
ATOM     15  C   UNL     1       5.305  -9.594   0.693  0.00  0.00    +0.231 C 
ATOM     16  O   UNL     1       4.844 -10.549   1.296  0.00  0.00    -0.283 OA
ENDROOT
BRANCH  14  17
ATOM     17  C   UNL     1       8.926 -10.053  -0.167  0.00  0.00    +0.019 A 
ATOM     18  C   UNL     1      10.080 -10.832  -0.139  0.00  0.00    -0.036 A 
ATOM     19  C   UNL     1      11.184 -10.279  -0.738  0.00  0.00    +0.011 A 
ATOM     20  C   UNL     1      11.084  -9.048  -1.301  0.00  0.00    +0.046 A 
ATOM     21  S   UNL     1       9.485  -8.604  -1.043  0.00  0.00    -0.097 S 
ATOM     22  C   UNL     1      10.114 -12.193   0.507  0.00  0.00    +0.045 C 
ENDBRANCH  14  17
BRANCH   1  23
ATOM     23  C   UNL     1       0.059  -4.275  -0.021  0.00  0.00    +0.123 C 
BRANCH  23  28
ATOM     24  C   UNL     1      -0.018   1.503   0.010  0.00  0.00    +0.044 C 
ATOM     25  C   UNL     1       0.002  -0.004   0.002  0.00  0.00    -0.050 A 
ATOM     26  C   UNL     1       0.006  -0.689  -1.199  0.00  0.00    +0.003 A 
ATOM     27  C   UNL     1       0.025  -2.071  -1.206  0.00  0.00    +0.005 A 
ATOM     28  C   UNL     1       0.040  -2.768  -0.013  0.00  0.00    -0.033 A 
ATOM     29  C   UNL     1       0.037  -2.084   1.188  0.00  0.00    +0.005 A 
ATOM     30  C   UNL     1       0.023  -0.702   1.195  0.00  0.00    +0.003 A 
ENDBRANCH  23  28
ENDBRANCH   1  23
TORSDOF 3
