REMARK  Name = ZINC34978569
REMARK  12 active torsions:
REMARK  status: ('A' for Active; 'I' for Inactive)
REMARK    1  A    between atoms: C_1  and  C_2
REMARK    2  A    between atoms: C_2  and  C_3
REMARK    3  A    between atoms: C_3  and  C_5
REMARK    4  A    between atoms: C_3  and  C_11
REMARK    5  A    between atoms: N_13  and  C_14
REMARK    6  A    between atoms: C_14  and  C_16
REMARK    7  A    between atoms: C_14  and  C_23
REMARK    8  A    between atoms: C_16  and  C_17
REMARK    9  A    between atoms: C_29  and  C_32
REMARK   10  A    between atoms: N_35  and  C_36
REMARK   11  A    between atoms: C_36  and  C_37
REMARK   12  A    between atoms: C_36  and  C_38
REMARK                            x       y       z     vdW  Elec       q    Type
REMARK                         _______ _______ _______ _____ _____    ______ ____
ROOT
ATOM      1  C   UNL     1      -0.665  -4.077  -1.450  0.00  0.00    +0.163 C 
ENDROOT
BRANCH   1   2
ATOM      2  C   UNL     1      -2.001  -4.389  -2.073  0.00  0.00    +0.236 C 
ATOM      3  O   UNL     1      -2.845  -3.523  -2.165  0.00  0.00    -0.274 OA
ATOM      4  N   UNL     1      -2.258  -5.631  -2.529  0.00  0.00    -0.297 N 
ATOM      5  C   UNL     1      -1.292  -6.719  -2.320  0.00  0.00    +0.127 C 
ATOM      6  C   UNL     1      -0.947  -7.337  -3.681  0.00  0.00    +0.128 C 
ATOM      7  N   UNL     1      -2.198  -7.627  -4.396  0.00  0.00    -0.280 N 
ATOM      8  C   UNL     1      -3.164  -6.539  -4.605  0.00  0.00    +0.092 C 
ATOM      9  C   UNL     1      -3.511  -5.923  -3.239  0.00  0.00    +0.130 C 
ATOM     10  C   UNL     1      -2.548  -5.474  -5.514  0.00  0.00    +0.030 C 
ATOM     11  C   UNL     1      -2.455  -8.869  -4.852  0.00  0.00    +0.303 C 
ATOM     12  O   UNL     1      -3.532  -9.121  -5.357  0.00  0.00    -0.253 OA
ATOM     13  N   UNL     1      -1.518  -9.832  -4.748  0.00  0.00    -0.297 N 
ATOM     14  H   UNL     1      -0.687  -9.652  -4.281  0.00  0.00    +0.150 HD
BRANCH  13  15
ATOM     15  C   UNL     1      -1.755 -11.151  -5.340  0.00  0.00    +0.068 C 
ATOM     16  C   UNL     1      -0.413 -11.821  -5.646  0.00  0.00    +0.027 C 
ATOM     17  C   UNL     1      -2.544 -12.018  -4.357  0.00  0.00    +0.027 C 
ENDBRANCH  13  15
ENDBRANCH   1   2
BRANCH   1  20
ATOM     18  C   UNL     1       0.866  -2.183  -1.546  0.00  0.00    +0.221 C 
ATOM     19  O   UNL     1       1.790  -2.963  -1.454  0.00  0.00    -0.275 OA
ATOM     20  N   UNL     1      -0.402  -2.639  -1.553  0.00  0.00    -0.303 N 
ATOM     21  H   UNL     1      -1.141  -2.015  -1.626  0.00  0.00    +0.149 HD
BRANCH  18  22
ATOM     22  C   UNL     1       1.136  -0.705  -1.651  0.00  0.00    +0.105 C 
BRANCH  22  23
ATOM     23  C   UNL     1       2.623  -0.462  -1.620  0.00  0.00    -0.036 A 
ATOM     24  C   UNL     1       3.366  -0.864  -0.526  0.00  0.00    +0.004 A 
ATOM     25  C   UNL     1       4.730  -0.642  -0.498  0.00  0.00    +0.000 A 
ATOM     26  C   UNL     1       5.351  -0.017  -1.563  0.00  0.00    +0.000 A 
ATOM     27  C   UNL     1       4.608   0.385  -2.658  0.00  0.00    +0.000 A 
ATOM     28  C   UNL     1       3.244   0.158  -2.688  0.00  0.00    +0.004 A 
ENDBRANCH  22  23
BRANCH  22  30
ATOM     29  C   UNL     1       0.643   1.530  -0.649  0.00  0.00    +0.005 C 
ATOM     30  C   UNL     1       0.476   0.019  -0.476  0.00  0.00    +0.014 C 
ENDBRANCH  22  30
ENDBRANCH  18  22
ENDBRANCH   1  20
BRANCH   1  31
ATOM     31  C   UNL     1      -0.680  -4.488   0.023  0.00  0.00    +0.067 C 
BRANCH  31  32
ATOM     32  C   UNL     1       0.700  -4.323   0.606  0.00  0.00    -0.045 A 
ATOM     33  C   UNL     1       1.600  -5.371   0.556  0.00  0.00    +0.004 A 
ATOM     34  C   UNL     1       2.866  -5.219   1.091  0.00  0.00    +0.000 A 
ATOM     35  C   UNL     1       3.232  -4.020   1.674  0.00  0.00    +0.000 A 
ATOM     36  C   UNL     1       2.331  -2.973   1.722  0.00  0.00    +0.000 A 
ATOM     37  C   UNL     1       1.067  -3.123   1.184  0.00  0.00    +0.004 A 
ENDBRANCH  31  32
ENDBRANCH   1  31
TORSDOF 8
