REMARK  Name = ZINC00725365
REMARK  7 active torsions:
REMARK  status: ('A' for Active; 'I' for Inactive)
REMARK    1  A    between atoms: C_1  and  C_2
REMARK    2  A    between atoms: C_5  and  C_9
REMARK    3  A    between atoms: C_12  and  C_14
REMARK    4  A    between atoms: N_15  and  N_16
REMARK    5  A    between atoms: C_17  and  C_19
REMARK    6  A    between atoms: C_19  and  C_21
REMARK    7  A    between atoms: C_19  and  O_27
REMARK                            x       y       z     vdW  Elec       q    Type
REMARK                         _______ _______ _______ _____ _____    ______ ____
ROOT
ATOM      1  C   UNL     1       3.485   1.881  -0.021  0.00  0.00    +0.176 C 
ATOM      2  N   UNL     1       2.366   1.215  -0.014  0.00  0.00    -0.185 NA
ENDROOT
BRANCH   1   6
ATOM      3  C   UNL     1       6.234  -0.468  -0.061  0.00  0.00    +0.136 A 
ATOM      4  C   UNL     1       6.943   0.697  -0.062  0.00  0.00    +0.050 A 
ATOM      5  C   UNL     1       6.012   1.745  -0.051  0.00  0.00    +0.051 A 
ATOM      6  C   UNL     1       4.762   1.166  -0.037  0.00  0.00    +0.148 A 
ATOM      7  O   UNL     1       4.920  -0.173  -0.046  0.00  0.00    -0.454 OA
BRANCH   3  12
ATOM      8  C   UNL     1       8.481  -5.764  -0.115  0.00  0.00    +0.045 C 
ATOM      9  C   UNL     1       7.893  -4.377  -0.100  0.00  0.00    -0.032 A 
ATOM     10  C   UNL     1       6.519  -4.211  -0.086  0.00  0.00    +0.005 A 
ATOM     11  C   UNL     1       5.974  -2.945  -0.073  0.00  0.00    +0.012 A 
ATOM     12  C   UNL     1       6.811  -1.827  -0.075  0.00  0.00    +0.019 A 
ATOM     13  C   UNL     1       8.197  -2.000  -0.095  0.00  0.00    +0.031 A 
ATOM     14  C   UNL     1       8.729  -3.274  -0.102  0.00  0.00    +0.045 A 
ATOM     15 CL   UNL     1      10.452  -3.492  -0.120  0.00  0.00    -0.083 Cl
ENDBRANCH   3  12
ENDBRANCH   1   6
BRANCH   2  16
ATOM     16  N   UNL     1       1.143   1.899   0.001  0.00  0.00    -0.204 N 
ATOM     17  C   UNL     1      -0.014   1.209   0.009  0.00  0.00    +0.265 C 
ATOM     18  O   UNL     1       0.002  -0.004   0.002  0.00  0.00    -0.271 OA
ATOM     19  H   UNL     1       1.130   2.869   0.007  0.00  0.00    +0.177 HD
BRANCH  17  20
ATOM     20  C   UNL     1      -1.330   1.945   0.019  0.00  0.00    +0.232 C 
BRANCH  20  21
ATOM     21  C   UNL     1      -1.481   2.721  -1.264  0.00  0.00    -0.010 A 
ATOM     22  C   UNL     1      -1.982   2.100  -2.393  0.00  0.00    +0.006 A 
ATOM     23  C   UNL     1      -2.125   2.813  -3.568  0.00  0.00    +0.000 A 
ATOM     24  C   UNL     1      -1.758   4.145  -3.617  0.00  0.00    +0.000 A 
ATOM     25  C   UNL     1      -1.252   4.765  -2.490  0.00  0.00    +0.000 A 
ATOM     26  C   UNL     1      -1.113   4.053  -1.313  0.00  0.00    +0.006 A 
ENDBRANCH  20  21
BRANCH  20  27
ATOM     27  O   UNL     1      -2.400   1.005   0.136  0.00  0.00    -0.378 OA
ATOM     28  H   UNL     1      -2.439   0.361  -0.584  0.00  0.00    +0.211 HD
ENDBRANCH  20  27
ENDBRANCH  17  20
ENDBRANCH   2  16
TORSDOF 6
