REMARK  Name = ZINC33494960
REMARK  8 active torsions:
REMARK  status: ('A' for Active; 'I' for Inactive)
REMARK    1  A    between atoms: C_1  and  C_2
REMARK    2  A    between atoms: C_2  and  C_3
REMARK    3  A    between atoms: C_2  and  C_4
REMARK    4  A    between atoms: C_4  and  C_5
REMARK    5  A    between atoms: C_5  and  N_6
REMARK    6  A    between atoms: N_6  and  C_7
REMARK    7  A    between atoms: C_8  and  C_15
REMARK    8  A    between atoms: N_17  and  N_18
REMARK                            x       y       z     vdW  Elec       q    Type
REMARK                         _______ _______ _______ _____ _____    ______ ____
ROOT
ATOM      1  C   UNL     1       1.324  -0.714   0.089  0.00  0.00    +0.054 A 
ATOM      2  C   UNL     1       2.301  -0.283   0.999  0.00  0.00    +0.061 A 
ATOM      3  C   UNL     1       2.530   1.084   1.171  0.00  0.00    +0.035 A 
ATOM      4  C   UNL     1       1.796   2.000   0.448  0.00  0.00    +0.043 A 
ATOM      5  C   UNL     1       0.831   1.572  -0.451  0.00  0.00    +0.037 A 
ATOM      6  C   UNL     1       0.594   0.224  -0.631  0.00  0.00    +0.041 A 
ATOM      7 BR   UNL     1      -0.725  -0.347  -1.860  0.00  0.00    -0.048 Br
ATOM      8 CL   UNL     1       2.082   3.699   0.663  0.00  0.00    -0.083 Cl
ENDROOT
BRANCH   2   9
ATOM      9  C   UNL     1       3.083  -1.268   1.770  0.00  0.00    +0.259 C 
ATOM     10  O   UNL     1       2.820  -2.453   1.686  0.00  0.00    -0.269 OA
ATOM     11  N   UNL     1       4.088  -0.856   2.568  0.00  0.00    -0.250 N 
ATOM     12  H   UNL     1       4.325   0.215   2.644  0.00  0.00    +0.169 HD
BRANCH  11  13
ATOM     13  N   UNL     1       4.811  -1.768   3.282  0.00  0.00    -0.254 NA
ATOM     14  H   UNL     1       5.581  -1.247   3.869  0.00  0.00    +0.140 HD
ATOM     15  H   UNL     1       4.142  -2.317   3.960  0.00  0.00    +0.140 HD
ENDBRANCH  11  13
ENDBRANCH   2   9
BRANCH   1  16
ATOM     16  N   UNL     1       1.087  -2.072  -0.090  0.00  0.00    -0.342 N 
ATOM     17  H   UNL     1       0.444  -2.746   0.495  0.00  0.00    +0.146 HD
BRANCH  16  18
ATOM     18  C   UNL     1       1.839  -2.590  -1.241  0.00  0.00    +0.102 C 
BRANCH  18  19
ATOM     19  C   UNL     1       1.655  -4.106  -1.330  0.00  0.00    +0.021 C 
BRANCH  19  21
ATOM     20  C   UNL     1       2.357  -6.173  -2.545  0.00  0.00    +0.007 C 
ATOM     21  C   UNL     1       2.438  -4.646  -2.528  0.00  0.00    -0.016 C 
ATOM     22  C   UNL     1       1.840  -4.088  -3.821  0.00  0.00    +0.007 C 
ENDBRANCH  19  21
ENDBRANCH  18  19
ENDBRANCH  16  18
ENDBRANCH   1  16
TORSDOF 6
