REMARK  Name = ZINC06820698
REMARK  4 active torsions:
REMARK  status: ('A' for Active; 'I' for Inactive)
REMARK    1  A    between atoms: C_1  and  C_2
REMARK    2  A    between atoms: C_2  and  C_4
REMARK    3  A    between atoms: N_6  and  C_24
REMARK    4  A    between atoms: C_15  and  C_18
REMARK                            x       y       z     vdW  Elec       q    Type
REMARK                         _______ _______ _______ _____ _____    ______ ____
ROOT
ATOM      1  C   UNL     1      -1.215  -0.729   0.010  0.00  0.00    +0.160 C 
ATOM      2  N   UNL     1      -2.438  -0.256   0.018  0.00  0.00    -0.167 NA
ATOM      3  N   UNL     1      -3.558  -1.073   0.024  0.00  0.00    -0.193 N 
ATOM      4  C   UNL     1      -3.267  -2.497   0.021  0.00  0.00    +0.180 C 
ATOM      5  S   UNL     1      -1.442  -2.504   0.002  0.00  0.00    -0.058 S 
ATOM      6  C   UNL     1      -3.831  -3.269   1.185  0.00  0.00    +0.003 A 
ATOM      7  C   UNL     1      -3.847  -2.832   2.514  0.00  0.00    +0.008 A 
ATOM      8  C   UNL     1      -4.388  -3.599   3.517  0.00  0.00    +0.000 A 
ATOM      9  C   UNL     1      -4.933  -4.833   3.213  0.00  0.00    +0.000 A 
ATOM     10  C   UNL     1      -4.921  -5.274   1.911  0.00  0.00    +0.005 A 
ATOM     11  C   UNL     1      -4.370  -4.504   0.884  0.00  0.00    -0.023 A 
ATOM     12  C   UNL     1      -4.314  -4.945  -0.582  0.00  0.00    +0.110 C 
ATOM     13  S   UNL     1      -3.932  -3.360  -1.440  0.00  0.00    -0.105 S 
ENDROOT
BRANCH  12  14
ATOM     14  C   UNL     1      -3.217  -5.955  -0.800  0.00  0.00    -0.030 A 
ATOM     15  C   UNL     1      -1.905  -5.621  -0.519  0.00  0.00    +0.005 A 
ATOM     16  C   UNL     1      -0.899  -6.548  -0.719  0.00  0.00    +0.000 A 
ATOM     17  C   UNL     1      -1.204  -7.807  -1.199  0.00  0.00    +0.000 A 
ATOM     18  C   UNL     1      -2.516  -8.141  -1.479  0.00  0.00    +0.000 A 
ATOM     19  C   UNL     1      -3.523  -7.216  -1.275  0.00  0.00    +0.005 A 
ENDBRANCH  12  14
BRANCH   3  20
ATOM     20  C   UNL     1      -4.858  -0.570   0.034  0.00  0.00    +0.054 A 
ATOM     21  C   UNL     1      -5.942  -1.440   0.046  0.00  0.00    +0.025 A 
ATOM     22  C   UNL     1      -7.228  -0.938   0.056  0.00  0.00    +0.002 A 
ATOM     23  C   UNL     1      -7.439   0.429   0.053  0.00  0.00    +0.000 A 
ATOM     24  C   UNL     1      -6.363   1.298   0.042  0.00  0.00    +0.002 A 
ATOM     25  C   UNL     1      -5.074   0.803   0.037  0.00  0.00    +0.025 A 
ENDBRANCH   3  20
BRANCH   1  27
ATOM     26  C   UNL     1      -0.018   1.503   0.010  0.00  0.00    +0.094 C 
ATOM     27  C   UNL     1       0.002  -0.004   0.002  0.00  0.00    +0.186 C 
ATOM     28  O   UNL     1       1.062  -0.597  -0.011  0.00  0.00    -0.290 OA
ENDBRANCH   1  27
TORSDOF 3
