REMARK  Name = ZINC36061380
REMARK  18 active torsions:
REMARK  status: ('A' for Active; 'I' for Inactive)
REMARK    1  A    between atoms: C_1  and  C_2
REMARK    2  A    between atoms: C_3  and  C_30
REMARK    3  A    between atoms: C_4  and  C_20
REMARK    4  A    between atoms: C_7  and  C_12
REMARK    5  A    between atoms: C_13  and  N_15
REMARK    6  A    between atoms: N_15  and  C_16
REMARK    7  A    between atoms: C_16  and  C_17
REMARK    8  A    between atoms: C_17  and  C_18
REMARK    9  A    between atoms: C_17  and  C_19
REMARK   10  A    between atoms: C_23  and  O_28
REMARK   11  A    between atoms: C_24  and  O_26
REMARK   12  A    between atoms: O_26  and  C_27
REMARK   13  A    between atoms: O_28  and  C_29
REMARK   14  A    between atoms: C_30  and  O_32
REMARK   15  A    between atoms: O_32  and  C_33
REMARK   16  A    between atoms: C_33  and  C_34
REMARK   17  A    between atoms: C_33  and  C_35
REMARK   18  A    between atoms: C_33  and  C_36
REMARK                            x       y       z     vdW  Elec       q    Type
REMARK                         _______ _______ _______ _____ _____    ______ ____
ROOT
ATOM      1  C   UNL     1      -0.466   0.404  -0.321  0.00  0.00    +0.066 C 
ATOM      2  C   UNL     1      -0.303  -1.095  -0.321  0.00  0.00    +0.053 C 
ATOM      3  C   UNL     1      -1.421  -1.906  -0.347  0.00  0.00    +0.083 C 
ATOM      4  C   UNL     1      -1.206  -3.403  -0.347  0.00  0.00    +0.150 C 
ATOM      5  N   UNL     1       0.201  -3.885  -0.318  0.00  0.00    -0.267 N 
ATOM      6  C   UNL     1       0.630  -5.197  -0.313  0.00  0.00    +0.048 C 
ATOM      7  C   UNL     1       1.962  -5.420  -0.285  0.00  0.00    +0.072 C 
ATOM      8  S   UNL     1       2.614  -3.762  -0.267  0.00  0.00    -0.060 S 
ATOM      9  C   UNL     1       1.165  -2.916  -0.295  0.00  0.00    +0.166 C 
ATOM     10  N   UNL     1       0.909  -1.624  -0.302  0.00  0.00    -0.230 NA
ENDROOT
BRANCH   4  11
ATOM     11  C   UNL     1      -1.916  -3.973   0.855  0.00  0.00    -0.018 A 
ATOM     12  C   UNL     1      -3.099  -4.668   0.691  0.00  0.00    +0.009 A 
ATOM     13  C   UNL     1      -3.754  -5.193   1.790  0.00  0.00    +0.050 A 
ATOM     14  C   UNL     1      -3.223  -5.024   3.058  0.00  0.00    +0.162 A 
ATOM     15  C   UNL     1      -2.032  -4.324   3.223  0.00  0.00    +0.162 A 
ATOM     16  C   UNL     1      -1.378  -3.805   2.117  0.00  0.00    +0.055 A 
BRANCH  15  17
ATOM     17  O   UNL     1      -1.507  -4.155   4.466  0.00  0.00    -0.491 OA
ATOM     18  C   UNL     1      -0.340  -3.337   4.572  0.00  0.00    +0.277 C 
ENDBRANCH  15  17
BRANCH  14  19
ATOM     19  O   UNL     1      -3.866  -5.539   4.140  0.00  0.00    -0.491 OA
ATOM     20  C   UNL     1      -5.085  -6.244   3.896  0.00  0.00    +0.277 C 
ENDBRANCH  14  19
ENDBRANCH   4  11
BRANCH   6  21
ATOM     21  C   UNL     1      -0.329  -6.311  -0.336  0.00  0.00    +0.091 C 
ATOM     22  C   UNL     1       0.109  -7.579  -0.209  0.00  0.00    +0.239 C 
ATOM     23  O   UNL     1       1.439  -7.835  -0.169  0.00  0.00    -0.271 OA
BRANCH  22  24
ATOM     24  N   UNL     1      -0.800  -8.619  -0.121  0.00  0.00    -0.312 N 
ATOM     25  H   UNL     1      -1.749  -8.445  -0.223  0.00  0.00    +0.149 HD
BRANCH  24  26
ATOM     26  C   UNL     1      -0.329  -9.984   0.127  0.00  0.00    +0.107 C 
BRANCH  26  27
ATOM     27  C   UNL     1      -1.512 -10.953   0.057  0.00  0.00    -0.000 C 
ATOM     28  C   UNL     1      -1.012 -12.383   0.269  0.00  0.00    +0.009 C 
ATOM     29  C   UNL     1      -2.525 -10.599   1.147  0.00  0.00    +0.009 C 
ENDBRANCH  26  27
ENDBRANCH  24  26
ENDBRANCH  22  24
ENDBRANCH   6  21
BRANCH   3  30
ATOM     30  C   UNL     1      -2.711  -1.360  -0.373  0.00  0.00    +0.340 C 
ATOM     31  O   UNL     1      -2.865  -0.156  -0.268  0.00  0.00    -0.245 OA
BRANCH  30  32
ATOM     32  O   UNL     1      -3.784  -2.169  -0.513  0.00  0.00    -0.456 OA
BRANCH  32  33
ATOM     33  C   UNL     1      -5.057  -1.538  -0.664  0.00  0.00    +0.106 C 
ATOM     34  C   UNL     1      -5.017  -0.588  -1.863  0.00  0.00    +0.055 C 
ATOM     35  C   UNL     1      -6.131  -2.603  -0.893  0.00  0.00    +0.055 C 
ATOM     36  C   UNL     1      -5.386  -0.746   0.604  0.00  0.00    +0.055 C 
ENDBRANCH  32  33
ENDBRANCH  30  32
ENDBRANCH   3  30
TORSDOF 10
