REMARK  Name = ZINC46771555
REMARK  6 active torsions:
REMARK  status: ('A' for Active; 'I' for Inactive)
REMARK    1  A    between atoms: C_4  and  C_7
REMARK    2  A    between atoms: C_8  and  C_9
REMARK    3  A    between atoms: C_14  and  C_17
REMARK    4  A    between atoms: N_19  and  C_20
REMARK    5  A    between atoms: C_20  and  C_21
REMARK    6  A    between atoms: C_24  and  N_27
REMARK                            x       y       z     vdW  Elec       q    Type
REMARK                         _______ _______ _______ _____ _____    ______ ____
ROOT
ATOM      1  C   UNL     1       5.151  -7.501  -2.660  0.00  0.00    +0.216 C 
ATOM      2  O   UNL     1       4.268  -7.459  -3.491  0.00  0.00    -0.276 OA
ATOM      3  N   UNL     1       6.177  -8.361  -2.809  0.00  0.00    -0.311 N 
ATOM      4  H   UNL     1       6.883  -8.395  -2.144  0.00  0.00    +0.149 HD
ENDROOT
BRANCH   1  10
ATOM      5  C   UNL     1       5.010  -2.718  -0.092  0.00  0.00    +0.239 C 
ATOM      6  O   UNL     1       3.950  -2.130   0.017  0.00  0.00    -0.271 OA
ATOM      7  N   UNL     1       5.028  -4.062  -0.194  0.00  0.00    -0.298 N 
ATOM      8  C   UNL     1       3.775  -4.822  -0.294  0.00  0.00    +0.109 C 
ATOM      9  C   UNL     1       3.841  -5.721  -1.533  0.00  0.00    +0.032 C 
ATOM     10  C   UNL     1       5.099  -6.590  -1.460  0.00  0.00    +0.078 C 
ATOM     11  C   UNL     1       6.340  -5.694  -1.447  0.00  0.00    +0.032 C 
ATOM     12  C   UNL     1       6.302  -4.794  -0.214  0.00  0.00    +0.109 C 
BRANCH   5  14
ATOM     13  C   UNL     1       6.243  -0.617  -0.118  0.00  0.00    +0.013 C 
ATOM     14  C   UNL     1       6.266  -1.965  -0.113  0.00  0.00    +0.068 C 
BRANCH  13  18
ATOM     15  C   UNL     1       9.881   1.564  -0.177  0.00  0.00    +0.000 A 
ATOM     16  C   UNL     1       8.674   2.240  -0.163  0.00  0.00    +0.001 A 
ATOM     17  C   UNL     1       7.487   1.538  -0.144  0.00  0.00    +0.008 A 
ATOM     18  C   UNL     1       7.506   0.140  -0.139  0.00  0.00    -0.025 A 
ATOM     19  C   UNL     1       8.730  -0.536  -0.153  0.00  0.00    +0.008 A 
ATOM     20  C   UNL     1       9.908   0.180  -0.172  0.00  0.00    +0.001 A 
ENDBRANCH  13  18
ENDBRANCH   5  14
ENDBRANCH   1  10
BRANCH   3  21
ATOM     21  C   UNL     1       6.227  -9.247  -3.975  0.00  0.00    +0.139 C 
BRANCH  21  22
ATOM     22  C   UNL     1       7.465 -10.102  -3.904  0.00  0.00    -0.030 A 
ATOM     23  C   UNL     1       8.644  -9.658  -4.473  0.00  0.00    +0.007 A 
ATOM     24  C   UNL     1       9.781 -10.439  -4.410  0.00  0.00    +0.023 A 
ATOM     25  C   UNL     1       9.739 -11.673  -3.773  0.00  0.00    +0.030 A 
ATOM     26  C   UNL     1       8.553 -12.117  -3.202  0.00  0.00    +0.023 A 
ATOM     27  C   UNL     1       7.421 -11.328  -3.264  0.00  0.00    +0.007 A 
BRANCH  25  28
ATOM     28  N   UNL     1      10.887 -12.466  -3.708  0.00  0.00    -0.320 N 
ATOM     29  C   UNL     1      10.847 -13.828  -3.150  0.00  0.00    +0.124 C 
ATOM     30  C   UNL     1      11.256 -14.808  -4.251  0.00  0.00    +0.123 C 
ATOM     31  N   UNL     1      12.451 -14.341  -4.940  0.00  0.00    -0.313 N 
ATOM     32  C   UNL     1      12.865 -13.073  -4.963  0.00  0.00    +0.230 C 
ATOM     33  O   UNL     1      13.834 -12.794  -5.638  0.00  0.00    -0.274 OA
ATOM     34  C   UNL     1      12.184 -11.977  -4.198  0.00  0.00    +0.200 C 
ATOM     35  H   UNL     1      12.984 -14.999  -5.414  0.00  0.00    +0.149 HD
ENDBRANCH  25  28
ENDBRANCH  21  22
ENDBRANCH   3  21
TORSDOF 6
