REMARK  Name = ZINC27757880
REMARK  6 active torsions:
REMARK  status: ('A' for Active; 'I' for Inactive)
REMARK    1  A    between atoms: C_1  and  C_2
REMARK    2  A    between atoms: C_5  and  C_8
REMARK    3  A    between atoms: C_13  and  C_16
REMARK    4  A    between atoms: C_13  and  O_24
REMARK    5  A    between atoms: C_19  and  O_22
REMARK    6  A    between atoms: O_22  and  C_23
REMARK                            x       y       z     vdW  Elec       q    Type
REMARK                         _______ _______ _______ _____ _____    ______ ____
ROOT
ATOM      1  C   UNL     1       0.057  -4.251  -0.021  0.00  0.00    +0.167 A 
ATOM      2  N   UNL     1       0.442  -5.025   0.962  0.00  0.00    -0.128 NA
ATOM      3  N   UNL     1       0.326  -6.259   0.620  0.00  0.00    -0.122 NA
ATOM      4  C   UNL     1      -0.131  -6.333  -0.603  0.00  0.00    +0.195 A 
ATOM      5  N   UNL     1      -0.327  -5.074  -1.079  0.00  0.00    -0.268 N 
ATOM      6  C   UNL     1      -0.838  -4.908  -2.435  0.00  0.00    +0.182 C 
ATOM      7  C   UNL     1      -1.096  -6.231  -3.175  0.00  0.00    +0.140 C 
ATOM      8  S   UNL     1      -0.601  -7.451  -1.901  0.00  0.00    -0.081 S 
ENDROOT
BRANCH   1  13
ATOM      9  C   UNL     1      -0.013   1.503   0.009  0.00  0.00    +0.044 C 
ATOM     10  C   UNL     1       0.005  -0.004   0.001  0.00  0.00    -0.050 A 
ATOM     11  C   UNL     1       0.705  -0.689   0.978  0.00  0.00    +0.004 A 
ATOM     12  C   UNL     1       0.722  -2.069   0.980  0.00  0.00    +0.012 A 
ATOM     13  C   UNL     1       0.038  -2.773  -0.013  0.00  0.00    +0.019 A 
ATOM     14  C   UNL     1      -0.662  -2.075  -0.998  0.00  0.00    +0.012 A 
ATOM     15  C   UNL     1      -0.675  -0.696  -0.985  0.00  0.00    +0.004 A 
ENDBRANCH   1  13
BRANCH   6  16
ATOM     16  C   UNL     1       0.158  -4.102  -3.228  0.00  0.00    +0.006 A 
ATOM     17  C   UNL     1       1.504  -4.170  -2.919  0.00  0.00    +0.012 A 
ATOM     18  C   UNL     1       2.419  -3.436  -3.647  0.00  0.00    +0.046 A 
ATOM     19  C   UNL     1       1.986  -2.621  -4.683  0.00  0.00    +0.120 A 
ATOM     20  C   UNL     1       0.635  -2.550  -4.988  0.00  0.00    +0.046 A 
ATOM     21  C   UNL     1      -0.276  -3.290  -4.259  0.00  0.00    +0.012 A 
BRANCH  19  22
ATOM     22  O   UNL     1       2.884  -1.894  -5.398  0.00  0.00    -0.495 OA
ATOM     23  C   UNL     1       4.259  -2.017  -5.029  0.00  0.00    +0.277 C 
ENDBRANCH  19  22
ENDBRANCH   6  16
BRANCH   6  24
ATOM     24  O   UNL     1      -2.063  -4.175  -2.373  0.00  0.00    -0.365 OA
ATOM     25  H   UNL     1      -2.612  -3.943  -3.298  0.00  0.00    +0.213 HD
ENDBRANCH   6  24
TORSDOF 4
