REMARK  Name = ZINC67602449
REMARK  14 active torsions:
REMARK  status: ('A' for Active; 'I' for Inactive)
REMARK    1  A    between atoms: C_1  and  C_2
REMARK    2  A    between atoms: C_6  and  C_29
REMARK    3  A    between atoms: C_7  and  O_8
REMARK    4  A    between atoms: O_8  and  C_9
REMARK    5  A    between atoms: C_9  and  C_10
REMARK    6  A    between atoms: C_10  and  C_12
REMARK    7  A    between atoms: C_10  and  O_28
REMARK    8  A    between atoms: C_12  and  N_13
REMARK    9  A    between atoms: N_16  and  C_17
REMARK   10  A    between atoms: C_17  and  C_18
REMARK   11  A    between atoms: C_18  and  C_20
REMARK   12  A    between atoms: C_18  and  N_25
REMARK   13  A    between atoms: N_25  and  C_26
REMARK   14  A    between atoms: N_25  and  C_27
REMARK                            x       y       z     vdW  Elec       q    Type
REMARK                         _______ _______ _______ _____ _____    ______ ____
ROOT
ATOM      1  N   UNL     1      -1.975   1.991   6.315  0.00  0.00    -0.297 N 
ATOM      2  C   UNL     1      -3.056   2.175   7.098  0.00  0.00    +0.300 C 
ATOM      3  O   UNL     1      -4.121   1.675   6.793  0.00  0.00    -0.253 OA
ATOM      4  N   UNL     1      -2.956   2.913   8.222  0.00  0.00    -0.301 N 
ATOM      5  H   UNL     1      -1.125   2.390   6.559  0.00  0.00    +0.150 HD
ATOM      6  H   UNL     1      -2.106   3.312   8.466  0.00  0.00    +0.150 HD
ENDROOT
BRANCH   1   7
ATOM      7  C   UNL     1      -2.084   1.188   5.094  0.00  0.00    +0.140 C 
BRANCH   7   8
ATOM      8  C   UNL     1      -0.724   1.138   4.394  0.00  0.00    +0.169 C 
BRANCH   8   9
ATOM      9  O   UNL     1      -0.312   2.464   4.057  0.00  0.00    -0.387 OA
ATOM     10  H   UNL     1      -0.920   2.926   3.465  0.00  0.00    +0.210 HD
ENDBRANCH   8   9
BRANCH   8  11
ATOM     11  C   UNL     1      -0.838   0.300   3.119  0.00  0.00    +0.261 C 
BRANCH  11  12
ATOM     12  O   UNL     1       0.455   0.155   2.527  0.00  0.00    -0.489 OA
BRANCH  12  19
ATOM     13  C   UNL     1       0.148   1.549   0.089  0.00  0.00    +0.047 C 
ATOM     14  C   UNL     1       0.388   0.062   0.151  0.00  0.00    -0.009 A 
ATOM     15  C   UNL     1       0.471  -0.673  -1.015  0.00  0.00    +0.007 A 
ATOM     16  C   UNL     1       0.691  -2.037  -0.959  0.00  0.00    +0.001 A 
ATOM     17  C   UNL     1       0.828  -2.668   0.263  0.00  0.00    +0.007 A 
ATOM     18  C   UNL     1       0.745  -1.937   1.433  0.00  0.00    -0.009 A 
ATOM     19  C   UNL     1       0.531  -0.568   1.379  0.00  0.00    +0.126 A 
ATOM     20  C   UNL     1       0.895  -2.625   2.765  0.00  0.00    +0.047 C 
ENDBRANCH  12  19
ENDBRANCH  11  12
ENDBRANCH   8  11
ENDBRANCH   7   8
ENDBRANCH   1   7
BRANCH   4  21
ATOM     21  C   UNL     1      -4.130   3.113   9.074  0.00  0.00    +0.095 C 
BRANCH  21  22
ATOM     22  C   UNL     1      -3.724   3.886  10.330  0.00  0.00    -0.020 C 
BRANCH  22  23
ATOM     23  C   UNL     1      -3.256   5.265   9.942  0.00  0.00    -0.052 A 
ATOM     24  C   UNL     1      -1.906   5.547   9.847  0.00  0.00    +0.009 A 
ATOM     25  C   UNL     1      -1.519   6.798   9.496  0.00  0.00    +0.045 A 
ATOM     26  S   UNL     1      -3.087   7.625   9.285  0.00  0.00    -0.105 S 
ATOM     27  C   UNL     1      -4.153   6.246   9.674  0.00  0.00    +0.047 A 
ENDBRANCH  22  23
BRANCH  22  28
ATOM     28  N   UNL     1      -4.878   3.997  11.232  0.00  0.00    +0.382 N 
ATOM     29  C   UNL     1      -5.341   2.653  11.602  0.00  0.00    -0.096 C 
ATOM     30  C   UNL     1      -4.484   4.730  12.443  0.00  0.00    -0.096 C 
ATOM     31  H   UNL     1      -5.623   4.493  10.766  0.00  0.00    -0.082 HD
ENDBRANCH  22  28
ENDBRANCH  21  22
ENDBRANCH   4  21
TORSDOF 10
