REMARK  Name = ZINC08790034
REMARK  2 active torsions:
REMARK  status: ('A' for Active; 'I' for Inactive)
REMARK    1  A    between atoms: C_5  and  C_7
REMARK    2  A    between atoms: C_7  and  C_9
REMARK                            x       y       z     vdW  Elec       q    Type
REMARK                         _______ _______ _______ _____ _____    ______ ____
ROOT
ATOM      1  C   UNL     1      -3.183   1.524  -0.403  0.00  0.00    +0.066 C 
ATOM      2  C   UNL     1      -1.956   2.452  -0.579  0.00  0.00    -0.055 C 
ATOM      3  C   UNL     1      -0.781   1.636  -1.143  0.00  0.00    -0.016 C 
ATOM      4  C   UNL     1      -0.022   1.099   0.086  0.00  0.00    -0.020 C 
ATOM      5  C   UNL     1      -0.819   1.601   1.306  0.00  0.00    -0.076 C 
ATOM      6  C   UNL     1      -2.828   2.919   1.571  0.00  0.00    +0.060 C 
ATOM      7  C   UNL     1      -3.890   2.118   0.826  0.00  0.00    +0.085 C 
ATOM      8  C   UNL     1      -4.488   1.040   1.686  0.00  0.00    -0.011 A 
ATOM      9  C   UNL     1      -3.958  -0.038   2.359  0.00  0.00    +0.006 A 
ATOM     10  C   UNL     1      -4.786  -0.874   3.087  0.00  0.00    +0.000 A 
ATOM     11  C   UNL     1      -6.145  -0.624   3.137  0.00  0.00    +0.002 A 
ATOM     12  C   UNL     1      -6.680   0.454   2.464  0.00  0.00    +0.023 A 
ATOM     13  C   UNL     1      -5.854   1.301   1.729  0.00  0.00    +0.038 A 
ATOM     14  N   UNL     1      -6.153   2.439   0.976  0.00  0.00    -0.285 N 
ATOM     15  C   UNL     1      -5.054   2.979   0.414  0.00  0.00    +0.228 C 
ATOM     16  O   UNL     1      -5.011   3.968  -0.287  0.00  0.00    -0.275 OA
ATOM     17  C   UNL     1      -3.226   4.364   1.712  0.00  0.00    -0.025 A 
ATOM     18  C   UNL     1      -3.518   5.355   0.802  0.00  0.00    +0.024 A 
ATOM     19  C   UNL     1      -3.861   6.622   1.245  0.00  0.00    +0.041 A 
ATOM     20  C   UNL     1      -3.910   6.886   2.602  0.00  0.00    +0.022 A 
ATOM     21  C   UNL     1      -3.618   5.895   3.516  0.00  0.00    +0.025 A 
ATOM     22  C   UNL     1      -3.272   4.618   3.078  0.00  0.00    +0.036 A 
ATOM     23  N   UNL     1      -2.938   3.467   3.795  0.00  0.00    -0.286 N 
ATOM     24  C   UNL     1      -2.664   2.427   2.987  0.00  0.00    +0.212 C 
ATOM     25  O   UNL     1      -2.346   1.308   3.331  0.00  0.00    -0.277 OA
ATOM     26 CL   UNL     1      -4.228   7.874   0.100  0.00  0.00    -0.084 Cl
ATOM     27  H   UNL     1      -7.047   2.799   0.870  0.00  0.00    +0.155 HD
ATOM     28  H   UNL     1      -2.909   3.422   4.764  0.00  0.00    +0.155 HD
ATOM     29  N   UNL     1      -1.590   2.752   0.794  0.00  0.00    +0.395 N 
ATOM     30  H   UNL     1      -1.025   3.608   0.841  0.00  0.00    -0.079 HD
ENDROOT
BRANCH   1  31
ATOM     31  C   UNL     1      -2.745   0.107  -0.134  0.00  0.00    +0.167 C 
ATOM     32  O   UNL     1      -1.647  -0.110   0.333  0.00  0.00    -0.292 OA
BRANCH  31  37
ATOM     33  C   UNL     1      -5.716  -1.829  -1.352  0.00  0.00    +0.001 A 
ATOM     34  C   UNL     1      -5.354  -3.121  -1.007  0.00  0.00    +0.001 A 
ATOM     35  C   UNL     1      -4.146  -3.365  -0.379  0.00  0.00    +0.021 A 
ATOM     36  C   UNL     1      -3.288  -2.321  -0.095  0.00  0.00    +0.051 A 
ATOM     37  C   UNL     1      -3.650  -1.012  -0.436  0.00  0.00    +0.036 A 
ATOM     38  C   UNL     1      -4.873  -0.775  -1.072  0.00  0.00    +0.013 A 
ATOM     39 CL   UNL     1      -1.770  -2.629   0.687  0.00  0.00    -0.083 Cl
ENDBRANCH  31  37
ENDBRANCH   1  31
TORSDOF 2
