REMARK  Name = ZINC08893984
REMARK  6 active torsions:
REMARK  status: ('A' for Active; 'I' for Inactive)
REMARK    1  A    between atoms: C_1  and  C_2
REMARK    2  A    between atoms: C_15  and  C_17
REMARK    3  A    between atoms: C_17  and  S_18
REMARK    4  A    between atoms: S_18  and  C_19
REMARK    5  A    between atoms: N_24  and  C_25
REMARK    6  A    between atoms: C_30  and  C_31
REMARK                            x       y       z     vdW  Elec       q    Type
REMARK                         _______ _______ _______ _____ _____    ______ ____
ROOT
ATOM      1  S   UNL     1       7.796   3.578  -0.529  0.00  0.00    -0.088 S 
ENDROOT
BRANCH   1   2
ATOM      2  C   UNL     1       6.079   3.219  -0.363  0.00  0.00    +0.160 A 
ATOM      3  N   UNL     1       5.058   4.048  -0.260  0.00  0.00    -0.133 NA
ATOM      4  N   UNL     1       3.782   3.549  -0.138  0.00  0.00    -0.125 NA
ATOM      5  C   UNL     1       3.585   2.245  -0.125  0.00  0.00    +0.187 A 
ATOM      6  S   UNL     1       5.257   1.636  -0.282  0.00  0.00    -0.024 S 
ATOM      7  N   UNL     1       2.395   1.535  -0.013  0.00  0.00    -0.292 N 
ATOM      8  H   UNL     1       2.396   0.569  -0.105  0.00  0.00    +0.154 HD
BRANCH   7   9
ATOM      9  C   UNL     1       1.198   2.212   0.233  0.00  0.00    +0.045 A 
ATOM     10  C   UNL     1       1.215   3.564   0.551  0.00  0.00    +0.024 A 
ATOM     11  C   UNL     1       0.030   4.230   0.793  0.00  0.00    +0.002 A 
ATOM     12  C   UNL     1      -1.173   3.553   0.718  0.00  0.00    +0.001 A 
ATOM     13  C   UNL     1      -1.195   2.208   0.397  0.00  0.00    +0.014 A 
ATOM     14  C   UNL     1      -0.013   1.534   0.159  0.00  0.00    +0.076 A 
BRANCH  14  15
ATOM     15  C   UNL     1      -0.036   0.068  -0.186  0.00  0.00    +0.419 C 
ATOM     16  F   UNL     1      -1.359  -0.387  -0.199  0.00  0.00    -0.166 F 
ATOM     17  F   UNL     1       0.535  -0.124  -1.448  0.00  0.00    -0.166 F 
ATOM     18  F   UNL     1       0.693  -0.648   0.769  0.00  0.00    -0.166 F 
ENDBRANCH  14  15
ENDBRANCH   7   9
ENDBRANCH   1   2
BRANCH   1  19
ATOM     19  C   UNL     1       7.868   5.391  -0.526  0.00  0.00    +0.172 C 
BRANCH  19  33
ATOM     20  C   UNL     1      11.235   8.058  -2.257  0.00  0.00    +0.029 C 
ATOM     21  C   UNL     1      10.984   7.602  -0.819  0.00  0.00    +0.087 C 
ATOM     22  C   UNL     1      11.245   8.767   0.137  0.00  0.00    +0.118 C 
ATOM     23  C   UNL     1      10.639   8.478   1.485  0.00  0.00    +0.219 C 
ATOM     24  O   UNL     1      11.355   8.159   2.411  0.00  0.00    -0.275 OA
ATOM     25  N   UNL     1       9.303   8.570   1.671  0.00  0.00    -0.284 N 
ATOM     26  C   UNL     1       8.452   8.851   0.595  0.00  0.00    +0.055 A 
ATOM     27  C   UNL     1       7.484   9.836   0.691  0.00  0.00    +0.025 A 
ATOM     28  C   UNL     1       6.633  10.071  -0.393  0.00  0.00    +0.002 A 
ATOM     29  C   UNL     1       6.754   9.324  -1.550  0.00  0.00    +0.002 A 
ATOM     30  C   UNL     1       7.728   8.347  -1.652  0.00  0.00    +0.025 A 
ATOM     31  C   UNL     1       8.585   8.115  -0.589  0.00  0.00    +0.058 A 
ATOM     32  N   UNL     1       9.598   7.152  -0.686  0.00  0.00    -0.266 N 
ATOM     33  C   UNL     1       9.301   5.837  -0.664  0.00  0.00    +0.230 C 
ATOM     34  O   UNL     1      10.187   5.014  -0.754  0.00  0.00    -0.274 OA
ATOM     35  H   UNL     1       8.931   8.441   2.557  0.00  0.00    +0.155 HD
ENDBRANCH  19  33
ENDBRANCH   1  19
TORSDOF 5
