REMARK  Name = ZINC54550904
REMARK  8 active torsions:
REMARK  status: ('A' for Active; 'I' for Inactive)
REMARK    1  A    between atoms: C_1  and  C_2
REMARK    2  A    between atoms: C_5  and  O_8
REMARK    3  A    between atoms: O_8  and  C_9
REMARK    4  A    between atoms: C_10  and  N_29
REMARK    5  A    between atoms: C_11  and  N_15
REMARK    6  A    between atoms: N_18  and  C_21
REMARK    7  A    between atoms: C_25  and  C_28
REMARK    8  A    between atoms: C_26  and  C_27
REMARK                            x       y       z     vdW  Elec       q    Type
REMARK                         _______ _______ _______ _____ _____    ______ ____
ROOT
ATOM      1  C   UNL     1      -1.074  -4.710   2.235  0.00  0.00    +0.246 A 
ATOM      2  C   UNL     1      -1.114  -6.104   2.230  0.00  0.00    +0.128 A 
ATOM      3  C   UNL     1       0.096  -6.798   2.159  0.00  0.00    +0.149 A 
ATOM      4  N   UNL     1       1.232  -6.109   2.099  0.00  0.00    -0.219 NA
ATOM      5  C   UNL     1       1.224  -4.791   2.106  0.00  0.00    +0.227 A 
ATOM      6  N   UNL     1       0.104  -4.099   2.167  0.00  0.00    -0.199 NA
ENDROOT
BRANCH   3   7
ATOM      7  N   UNL     1       0.113  -8.188   2.151  0.00  0.00    -0.311 N 
ATOM      8  C   UNL     1      -0.039  -8.931   0.891  0.00  0.00    +0.125 C 
ATOM      9  C   UNL     1       1.157  -9.878   0.734  0.00  0.00    +0.124 C 
ATOM     10  N   UNL     1       1.328 -10.631   1.985  0.00  0.00    -0.327 N 
ATOM     11  C   UNL     1       1.479  -9.888   3.244  0.00  0.00    +0.124 C 
ATOM     12  C   UNL     1       0.289  -8.941   3.400  0.00  0.00    +0.125 C 
BRANCH  10  13
ATOM     13  C   UNL     1       1.345 -12.027   1.977  0.00  0.00    +0.033 A 
ATOM     14  C   UNL     1       2.546 -12.708   1.825  0.00  0.00    +0.023 A 
ATOM     15  C   UNL     1       2.560 -14.089   1.818  0.00  0.00    +0.002 A 
ATOM     16  C   UNL     1       1.379 -14.794   1.961  0.00  0.00    +0.004 A 
ATOM     17  C   UNL     1       0.181 -14.120   2.112  0.00  0.00    -0.046 A 
ATOM     18  C   UNL     1       0.161 -12.739   2.126  0.00  0.00    -0.027 A 
ATOM     19  C   UNL     1      -1.144 -12.005   2.296  0.00  0.00    +0.046 C 
ATOM     20  C   UNL     1      -1.104 -14.892   2.266  0.00  0.00    +0.044 C 
ENDBRANCH  10  13
ENDBRANCH   3   7
BRANCH   2  21
ATOM     21  N   UNL     1      -2.337  -6.790   2.295  0.00  0.00    -0.351 N 
ATOM     22  H   UNL     1      -3.172  -6.298   2.267  0.00  0.00    +0.143 HD
ATOM     23  H   UNL     1      -2.347  -7.758   2.367  0.00  0.00    +0.143 HD
ENDBRANCH   2  21
BRANCH   1  24
ATOM     24  O   UNL     1      -2.221  -3.989   2.302  0.00  0.00    -0.436 OA
BRANCH  24  29
ATOM     25  C   UNL     1      -1.848   1.617   1.901  0.00  0.00    +0.044 C 
ATOM     26  C   UNL     1      -1.948   0.117   2.008  0.00  0.00    -0.050 A 
ATOM     27  C   UNL     1      -1.833  -0.666   0.874  0.00  0.00    +0.007 A 
ATOM     28  C   UNL     1      -1.924  -2.041   0.970  0.00  0.00    +0.046 A 
ATOM     29  C   UNL     1      -2.131  -2.637   2.205  0.00  0.00    +0.130 A 
ATOM     30  C   UNL     1      -2.246  -1.849   3.342  0.00  0.00    +0.046 A 
ATOM     31  C   UNL     1      -2.149  -0.475   3.242  0.00  0.00    +0.007 A 
ENDBRANCH  24  29
ENDBRANCH   1  24
TORSDOF 5
