REMARK  Name = ZINC13010107
REMARK  7 active torsions:
REMARK  status: ('A' for Active; 'I' for Inactive)
REMARK    1  A    between atoms: C_1  and  C_2
REMARK    2  A    between atoms: C_3  and  C_32
REMARK    3  A    between atoms: C_6  and  C_7
REMARK    4  A    between atoms: N_14  and  C_15
REMARK    5  A    between atoms: C_18  and  N_21
REMARK    6  A    between atoms: N_21  and  S_22
REMARK    7  A    between atoms: S_22  and  C_25
REMARK                            x       y       z     vdW  Elec       q    Type
REMARK                         _______ _______ _______ _____ _____    ______ ____
ROOT
ATOM      1  C   UNL     1       1.847  -2.249   3.090  0.00  0.00    +0.033 A 
ATOM      2  C   UNL     1       0.494  -1.935   3.117  0.00  0.00    +0.025 A 
ATOM      3  C   UNL     1      -0.079  -1.260   2.057  0.00  0.00    +0.026 A 
ATOM      4  C   UNL     1       0.697  -0.895   0.965  0.00  0.00    +0.048 A 
ATOM      5  C   UNL     1       2.048  -1.214   0.935  0.00  0.00    +0.026 A 
ATOM      6  C   UNL     1       2.623  -1.884   1.997  0.00  0.00    +0.025 A 
ENDROOT
BRANCH   1  20
ATOM      7  C   UNL     1       9.978  -1.666   8.694  0.00  0.00    +0.047 C 
ATOM      8  C   UNL     1       9.076  -1.478   7.501  0.00  0.00    -0.007 A 
ATOM      9  C   UNL     1       9.382  -0.755   6.344  0.00  0.00    +0.064 A 
ATOM     10  N   UNL     1       8.355  -0.816   5.535  0.00  0.00    -0.170 NA
ATOM     11  N   UNL     1       7.357  -1.583   6.151  0.00  0.00    -0.217 N 
ATOM     12  C   UNL     1       7.824  -1.975   7.365  0.00  0.00    +0.047 A 
ATOM     13  C   UNL     1       7.084  -2.813   8.375  0.00  0.00    +0.066 C 
ATOM     14  C   UNL     1       6.101  -1.886   5.614  0.00  0.00    +0.176 A 
ATOM     15  C   UNL     1       5.529  -1.048   4.657  0.00  0.00    +0.053 A 
ATOM     16  C   UNL     1       4.285  -1.388   4.155  0.00  0.00    +0.049 A 
ATOM     17  C   UNL     1       3.680  -2.549   4.638  0.00  0.00    +0.146 A 
ATOM     18  N   UNL     1       4.297  -3.281   5.553  0.00  0.00    -0.132 NA
ATOM     19  N   UNL     1       5.453  -2.967   6.014  0.00  0.00    -0.128 NA
ATOM     20  N   UNL     1       2.429  -2.933   4.164  0.00  0.00    -0.298 N 
ATOM     21  C   UNL     1      10.675  -0.028   6.074  0.00  0.00    +0.068 C 
ATOM     22  H   UNL     1       1.960  -3.674   4.579  0.00  0.00    +0.154 HD
ENDBRANCH   1  20
BRANCH   4  23
ATOM     23  N   UNL     1       0.116  -0.212  -0.109  0.00  0.00    -0.216 N 
ATOM     24  H   UNL     1      -0.053  -0.674  -0.945  0.00  0.00    +0.174 HD
BRANCH  23  25
ATOM     25  S   UNL     1      -0.284   1.388   0.046  0.00  0.00    +0.072 S 
ATOM     26  O   UNL     1      -0.836   1.792  -1.199  0.00  0.00    -0.150 OA
ATOM     27  O   UNL     1      -0.995   1.511   1.271  0.00  0.00    -0.150 OA
BRANCH  25  28
ATOM     28  C   UNL     1       1.220   2.284   0.245  0.00  0.00    +0.111 A 
ATOM     29  C   UNL     1       1.836   2.852  -0.855  0.00  0.00    +0.029 A 
ATOM     30  C   UNL     1       3.016   3.555  -0.700  0.00  0.00    +0.005 A 
ATOM     31  C   UNL     1       3.581   3.692   0.554  0.00  0.00    +0.038 A 
ATOM     32  C   UNL     1       2.965   3.123   1.656  0.00  0.00    +0.125 A 
ATOM     33  C   UNL     1       1.780   2.424   1.501  0.00  0.00    +0.067 A 
ATOM     34  F   UNL     1       3.516   3.256   2.882  0.00  0.00    -0.205 F 
ENDBRANCH  25  28
ENDBRANCH  23  25
ENDBRANCH   4  23
TORSDOF 4
