REMARK  Name = ZINC64202311
REMARK  8 active torsions:
REMARK  status: ('A' for Active; 'I' for Inactive)
REMARK    1  A    between atoms: C_1  and  C_2
REMARK    2  A    between atoms: C_2  and  C_3
REMARK    3  A    between atoms: C_7  and  N_9
REMARK    4  A    between atoms: C_10  and  C_12
REMARK    5  A    between atoms: C_12  and  C_14
REMARK    6  A    between atoms: C_12  and  N_24
REMARK    7  A    between atoms: C_14  and  C_15
REMARK    8  A    between atoms: C_25  and  C_27
REMARK                            x       y       z     vdW  Elec       q    Type
REMARK                         _______ _______ _______ _____ _____    ______ ____
ROOT
ATOM      1  C   UNL     1       6.302  -3.709   1.071  0.00  0.00    +0.168 C 
ENDROOT
BRANCH   1   2
ATOM      2  N   UNL     1       7.141  -2.513   1.180  0.00  0.00    -0.299 N 
ATOM      3  C   UNL     1       7.052  -1.724   2.268  0.00  0.00    +0.251 C 
ATOM      4  O   UNL     1       6.274  -2.004   3.161  0.00  0.00    -0.270 OA
ATOM      5  H   UNL     1       7.762  -2.290   0.468  0.00  0.00    +0.150 HD
BRANCH   3   6
ATOM      6  C   UNL     1       7.892  -0.527   2.377  0.00  0.00    +0.074 A 
ATOM      7  C   UNL     1       7.958   0.404   3.402  0.00  0.00    +0.021 A 
ATOM      8  C   UNL     1       8.852   1.431   3.219  0.00  0.00    +0.008 A 
ATOM      9  C   UNL     1       9.590   1.468   2.082  0.00  0.00    +0.046 A 
ATOM     10  S   UNL     1       9.100   0.106   1.229  0.00  0.00    -0.092 S 
ENDBRANCH   3   6
ENDBRANCH   1   2
BRANCH   1  12
ATOM     11  N   UNL     1       4.522  -2.050   1.131  0.00  0.00    -0.184 NA
ATOM     12  C   UNL     1       4.850  -3.309   1.112  0.00  0.00    +0.269 C 
ATOM     13  O   UNL     1       3.890  -4.256   1.129  0.00  0.00    -0.269 OA
BRANCH  11  17
ATOM     14  C   UNL     1       0.742  -0.511   1.242  0.00  0.00    +0.154 C 
ATOM     15  N   UNL     1       0.871  -1.985   1.226  0.00  0.00    -0.253 N 
ATOM     16  N   UNL     1       2.162  -2.463   1.189  0.00  0.00    -0.159 NA
ATOM     17  C   UNL     1       3.207  -1.687   1.168  0.00  0.00    +0.209 C 
ATOM     18  S   UNL     1       2.520  -0.038   1.200  0.00  0.00    -0.061 S 
ATOM     19  H   UNL     1       0.100  -2.574   1.242  0.00  0.00    +0.169 HD
BRANCH  14  21
ATOM     20  C   UNL     1      -0.019   1.526   0.010  0.00  0.00    +0.006 C 
ATOM     21  C   UNL     1       0.002  -0.004   0.002  0.00  0.00    +0.032 C 
ENDBRANCH  14  21
ENDBRANCH  11  17
ENDBRANCH   1  12
BRANCH   1  22
ATOM     22  C   UNL     1       6.604  -4.652   2.238  0.00  0.00    +0.065 C 
BRANCH  22  23
ATOM     23  C   UNL     1       8.023  -5.149   2.127  0.00  0.00    -0.039 C 
ATOM     24  C   UNL     1       9.114  -4.635   2.739  0.00  0.00    -0.001 A 
ATOM     25  C   UNL     1       9.301  -3.502   3.653  0.00  0.00    +0.010 A 
ATOM     26  C   UNL     1      10.544  -3.225   4.109  0.00  0.00    +0.001 A 
ATOM     27  C   UNL     1      11.655  -3.991   3.731  0.00  0.00    +0.002 A 
ATOM     28  C   UNL     1      11.563  -5.046   2.895  0.00  0.00    +0.026 A 
ATOM     29  C   UNL     1      10.304  -5.428   2.355  0.00  0.00    +0.043 A 
ATOM     30  N   UNL     1       9.961  -6.394   1.538  0.00  0.00    -0.380 N 
ATOM     31  C   UNL     1       8.513  -6.327   1.316  0.00  0.00    +0.144 C 
ATOM     32  H   UNL     1      10.564  -7.047   1.149  0.00  0.00    +0.160 HD
ENDBRANCH  22  23
ENDBRANCH   1  22
TORSDOF 7
