REMARK  Name = ZINC06909445
REMARK  3 active torsions:
REMARK  status: ('A' for Active; 'I' for Inactive)
REMARK    1  A    between atoms: C_4  and  N_7
REMARK    2  A    between atoms: C_14  and  C_16
REMARK    3  A    between atoms: C_17  and  C_18
REMARK                            x       y       z     vdW  Elec       q    Type
REMARK                         _______ _______ _______ _____ _____    ______ ____
ROOT
ATOM      1  N   UNL     1       3.623  -0.651  -0.036  0.00  0.00    -0.282 N 
ATOM      2  C   UNL     1       3.636  -2.022   0.055  0.00  0.00    +0.161 A 
ATOM      3  C   UNL     1       4.895  -2.626   0.032  0.00  0.00    +0.122 A 
ATOM      4  C   UNL     1       5.051  -4.007   0.117  0.00  0.00    +0.268 A 
ATOM      5  O   UNL     1       6.161  -4.514   0.096  0.00  0.00    -0.267 OA
ATOM      6  N   UNL     1       3.938  -4.772   0.225  0.00  0.00    -0.306 N 
ATOM      7  H   UNL     1       4.007  -5.738   0.287  0.00  0.00    +0.170 HD
ATOM      8  C   UNL     1       2.715  -4.158   0.245  0.00  0.00    +0.136 A 
ATOM      9  N   UNL     1       2.575  -2.856   0.165  0.00  0.00    -0.211 NA
ATOM     10  S   UNL     1       6.004  -1.248  -0.116  0.00  0.00    -0.055 S 
ATOM     11  C   UNL     1       4.772   0.045  -0.147  0.00  0.00    +0.132 A 
ATOM     12  S   UNL     1       4.994   1.738  -0.279  0.00  0.00    -0.024 S 
ENDROOT
BRANCH   1  16
ATOM     13  C   UNL     1      -0.016   1.379   0.011  0.00  0.00    +0.000 A 
ATOM     14  C   UNL     1       0.648   1.126   1.197  0.00  0.00    +0.002 A 
ATOM     15  C   UNL     1       1.854   0.454   1.184  0.00  0.00    +0.026 A 
ATOM     16  C   UNL     1       2.400   0.031  -0.021  0.00  0.00    +0.050 A 
ATOM     17  C   UNL     1       1.730   0.286  -1.210  0.00  0.00    +0.026 A 
ATOM     18  C   UNL     1       0.524   0.960  -1.191  0.00  0.00    +0.002 A 
ENDBRANCH   1  16
BRANCH   8  19
ATOM     19  C   UNL     1       1.514  -4.988   0.361  0.00  0.00    +0.047 C 
ATOM     20  C   UNL     1       0.296  -4.411   0.384  0.00  0.00    +0.011 C 
BRANCH  20  21
ATOM     21  C   UNL     1      -0.911  -5.245   0.500  0.00  0.00    -0.025 A 
ATOM     22  C   UNL     1      -0.798  -6.636   0.594  0.00  0.00    +0.009 A 
ATOM     23  C   UNL     1      -1.933  -7.411   0.703  0.00  0.00    +0.020 A 
ATOM     24  C   UNL     1      -3.183  -6.815   0.720  0.00  0.00    +0.041 A 
ATOM     25  C   UNL     1      -3.303  -5.438   0.628  0.00  0.00    +0.020 A 
ATOM     26  C   UNL     1      -2.177  -4.650   0.524  0.00  0.00    +0.009 A 
ATOM     27 CL   UNL     1      -4.607  -7.799   0.858  0.00  0.00    -0.084 Cl
ENDBRANCH  20  21
ENDBRANCH   8  19
TORSDOF 3
