REMARK  Name = ZINC39694330
REMARK  6 active torsions:
REMARK  status: ('A' for Active; 'I' for Inactive)
REMARK    1  A    between atoms: C_1  and  C_2
REMARK    2  A    between atoms: C_5  and  C_10
REMARK    3  A    between atoms: C_14  and  C_23
REMARK    4  A    between atoms: N_25  and  C_26
REMARK    5  A    between atoms: C_26  and  C_27
REMARK    6  A    between atoms: C_32  and  N_33
REMARK                            x       y       z     vdW  Elec       q    Type
REMARK                         _______ _______ _______ _____ _____    ______ ____
ROOT
ATOM      1  C   UNL     1      -0.035  -4.719   0.064  0.00  0.00    +0.250 C 
ATOM      2  O   UNL     1       0.224  -5.388   1.045  0.00  0.00    -0.270 OA
ATOM      3  N   UNL     1      -0.035  -5.287  -1.159  0.00  0.00    -0.296 N 
ATOM      4  C   UNL     1      -0.220  -4.622  -2.470  0.00  0.00    +0.121 C 
ATOM      5  C   UNL     1       0.779  -5.332  -3.412  0.00  0.00    +0.100 C 
ATOM      6  C   UNL     1       1.015  -6.708  -2.767  0.00  0.00    -0.004 C 
ATOM      7  C   UNL     1       0.156  -6.719  -1.495  0.00  0.00    +0.115 C 
ATOM      8  C   UNL     1       2.487  -6.875  -2.403  0.00  0.00    -0.010 C 
ATOM      9  C   UNL     1       2.708  -8.272  -1.817  0.00  0.00    -0.082 C 
ATOM     10  N   UNL     1       2.309  -9.286  -2.800  0.00  0.00    +0.379 N 
ATOM     11  C   UNL     1       0.871  -9.178  -3.075  0.00  0.00    -0.082 C 
ATOM     12  C   UNL     1       0.572  -7.819  -3.714  0.00  0.00    -0.010 C 
ATOM     13  H   UNL     1       2.825  -9.145  -3.655  0.00  0.00    -0.086 HD
ATOM     14  H   UNL     1       2.512 -10.205  -2.435  0.00  0.00    -0.086 HD
ENDROOT
BRANCH   1  19
ATOM     15  C   UNL     1      -1.269   0.875   0.630  0.00  0.00    +0.047 C 
ATOM     16  C   UNL     1      -0.944  -0.589   0.484  0.00  0.00    -0.012 A 
ATOM     17  C   UNL     1      -1.574  -1.339  -0.495  0.00  0.00    +0.007 A 
ATOM     18  C   UNL     1      -1.283  -2.680  -0.636  0.00  0.00    +0.016 A 
ATOM     19  C   UNL     1      -0.350  -3.283   0.210  0.00  0.00    +0.075 A 
ATOM     20  C   UNL     1       0.284  -2.523   1.196  0.00  0.00    +0.171 A 
ATOM     21  C   UNL     1      -0.014  -1.175   1.323  0.00  0.00    +0.162 A 
ATOM     22  F   UNL     1       0.600  -0.435   2.272  0.00  0.00    -0.202 F 
ATOM     23  F   UNL     1       1.188  -3.098   2.020  0.00  0.00    -0.202 F 
ENDBRANCH   1  19
BRANCH   5  24
ATOM     24  C   UNL     1       0.182  -5.489  -4.786  0.00  0.00    +0.218 C 
ATOM     25  O   UNL     1      -0.977  -5.825  -4.910  0.00  0.00    -0.275 OA
ATOM     26  N   UNL     1       0.936  -5.257  -5.879  0.00  0.00    -0.311 N 
ATOM     27  H   UNL     1       1.863  -4.989  -5.780  0.00  0.00    +0.149 HD
BRANCH  26  28
ATOM     28  C   UNL     1       0.356  -5.410  -7.215  0.00  0.00    +0.141 C 
BRANCH  28  29
ATOM     29  C   UNL     1       1.400  -5.095  -8.255  0.00  0.00    -0.009 A 
ATOM     30  C   UNL     1       1.416  -3.856  -8.865  0.00  0.00    +0.007 A 
ATOM     31  C   UNL     1       2.373  -3.565  -9.820  0.00  0.00    +0.000 A 
ATOM     32  C   UNL     1       3.318  -4.514 -10.167  0.00  0.00    +0.002 A 
ATOM     33  C   UNL     1       3.309  -5.754  -9.561  0.00  0.00    +0.023 A 
ATOM     34  C   UNL     1       2.351  -6.047  -8.597  0.00  0.00    +0.035 A 
BRANCH  34  35
ATOM     35  N   UNL     1       2.342  -7.299  -7.978  0.00  0.00    -0.325 N 
ATOM     36  C   UNL     1       1.577  -8.420  -8.547  0.00  0.00    +0.133 C 
ATOM     37  C   UNL     1       2.503  -9.637  -8.646  0.00  0.00    +0.178 C 
ATOM     38  O   UNL     1       3.115  -9.867  -7.375  0.00  0.00    -0.377 OA
ATOM     39  C   UNL     1       3.950  -8.797  -6.925  0.00  0.00    +0.178 C 
ATOM     40  C   UNL     1       3.102  -7.538  -6.741  0.00  0.00    +0.133 C 
ENDBRANCH  34  35
ENDBRANCH  28  29
ENDBRANCH  26  28
ENDBRANCH   5  24
TORSDOF 5
