REMARK  Name = ZINC39635455
REMARK  8 active torsions:
REMARK  status: ('A' for Active; 'I' for Inactive)
REMARK    1  A    between atoms: C_1  and  C_2
REMARK    2  A    between atoms: C_2  and  C_3
REMARK    3  A    between atoms: C_3  and  C_4
REMARK    4  A    between atoms: C_4  and  C_6
REMARK    5  A    between atoms: C_4  and  C_7
REMARK    6  A    between atoms: C_11  and  C_20
REMARK    7  A    between atoms: N_22  and  C_23
REMARK    8  A    between atoms: C_23  and  C_24
REMARK                            x       y       z     vdW  Elec       q    Type
REMARK                         _______ _______ _______ _____ _____    ______ ____
ROOT
ATOM      1  C   UNL     1       1.778  -2.439  -2.209  0.00  0.00    +0.218 C 
ATOM      2  O   UNL     1       2.458  -1.707  -2.896  0.00  0.00    -0.275 OA
ATOM      3  N   UNL     1       1.728  -3.759  -2.475  0.00  0.00    -0.300 N 
ATOM      4  C   UNL     1       0.876  -4.785  -1.828  0.00  0.00    +0.121 C 
ATOM      5  C   UNL     1       0.438  -5.713  -2.983  0.00  0.00    +0.100 C 
ATOM      6  C   UNL     1       1.518  -5.532  -4.063  0.00  0.00    -0.004 C 
ATOM      7  C   UNL     1       2.510  -4.513  -3.485  0.00  0.00    +0.115 C 
ATOM      8  C   UNL     1       2.220  -6.858  -4.336  0.00  0.00    -0.010 C 
ATOM      9  C   UNL     1       3.248  -6.666  -5.454  0.00  0.00    -0.082 C 
ATOM     10  N   UNL     1       2.573  -6.189  -6.666  0.00  0.00    +0.379 N 
ATOM     11  C   UNL     1       1.979  -4.869  -6.422  0.00  0.00    -0.082 C 
ATOM     12  C   UNL     1       0.896  -4.986  -5.345  0.00  0.00    -0.010 C 
ATOM     13  H   UNL     1       3.242  -6.121  -7.418  0.00  0.00    -0.086 HD
ATOM     14  H   UNL     1       1.847  -6.841  -6.923  0.00  0.00    -0.086 HD
ENDROOT
BRANCH   5  15
ATOM     15  C   UNL     1      -0.910  -5.293  -3.510  0.00  0.00    +0.218 C 
ATOM     16  O   UNL     1      -1.278  -4.144  -3.389  0.00  0.00    -0.275 OA
ATOM     17  N   UNL     1      -1.708  -6.196  -4.116  0.00  0.00    -0.311 N 
ATOM     18  H   UNL     1      -1.413  -7.115  -4.213  0.00  0.00    +0.149 HD
BRANCH  17  19
ATOM     19  C   UNL     1      -3.018  -5.788  -4.628  0.00  0.00    +0.139 C 
BRANCH  19  20
ATOM     20  C   UNL     1      -3.704  -6.975  -5.255  0.00  0.00    -0.029 A 
ATOM     21  C   UNL     1      -3.517  -7.253  -6.596  0.00  0.00    +0.005 A 
ATOM     22  C   UNL     1      -4.146  -8.341  -7.171  0.00  0.00    +0.002 A 
ATOM     23  C   UNL     1      -4.962  -9.152  -6.405  0.00  0.00    +0.020 A 
ATOM     24  C   UNL     1      -5.149  -8.875  -5.063  0.00  0.00    +0.041 A 
ATOM     25  C   UNL     1      -4.515  -7.788  -4.486  0.00  0.00    +0.025 A 
ATOM     26 CL   UNL     1      -6.174  -9.893  -4.100  0.00  0.00    -0.084 Cl
ENDBRANCH  19  20
ENDBRANCH  17  19
ENDBRANCH   5  15
BRANCH   1  27
ATOM     27  C   UNL     1       0.988  -1.872  -1.057  0.00  0.00    +0.072 C 
ATOM     28  C   UNL     1       0.494  -0.470  -1.418  0.00  0.00    +0.017 C 
BRANCH  27  29
ATOM     29  C   UNL     1       1.880  -1.795   0.184  0.00  0.00    +0.012 C 
BRANCH  29  31
ATOM     30  C   UNL     1       1.938  -1.260   2.624  0.00  0.00    +0.004 C 
ATOM     31  C   UNL     1       1.047  -1.338   1.383  0.00  0.00    -0.003 C 
ENDBRANCH  29  31
ENDBRANCH  27  29
ENDBRANCH   1  27
TORSDOF 6
