REMARK  Name = ZINC14167178
REMARK  10 active torsions:
REMARK  status: ('A' for Active; 'I' for Inactive)
REMARK    1  A    between atoms: C_1  and  C_2
REMARK    2  A    between atoms: C_5  and  C_9
REMARK    3  A    between atoms: C_9  and  C_10
REMARK    4  A    between atoms: C_10  and  C_11
REMARK    5  A    between atoms: N_13  and  C_14
REMARK    6  A    between atoms: C_14  and  C_15
REMARK    7  A    between atoms: N_17  and  C_18
REMARK    8  A    between atoms: C_19  and  C_26
REMARK    9  A    between atoms: C_21  and  C_25
REMARK   10  A    between atoms: C_23  and  C_24
REMARK                            x       y       z     vdW  Elec       q    Type
REMARK                         _______ _______ _______ _____ _____    ______ ____
ROOT
ATOM      1  C   UNL     1      -7.260   3.314  -1.369  0.00  0.00    +0.214 C 
ATOM      2  O   UNL     1      -7.562   4.472  -1.175  0.00  0.00    -0.276 OA
ATOM      3  N   UNL     1      -5.999   2.898  -1.138  0.00  0.00    -0.307 N 
ATOM      4  H   UNL     1      -5.758   1.972  -1.293  0.00  0.00    +0.149 HD
ENDROOT
BRANCH   1   5
ATOM      5  C   UNL     1      -8.295   2.339  -1.868  0.00  0.00    +0.100 C 
BRANCH   5   6
ATOM      6  C   UNL     1      -9.632   3.061  -2.047  0.00  0.00    +0.044 C 
BRANCH   6  11
ATOM      7  C   UNL     1     -13.602  -0.676  -3.964  0.00  0.00    +0.045 C 
ATOM      8  C   UNL     1     -12.567   0.298  -3.464  0.00  0.00    -0.032 A 
ATOM      9  C   UNL     1     -11.797   1.012  -4.364  0.00  0.00    +0.005 A 
ATOM     10  C   UNL     1     -10.851   1.909  -3.905  0.00  0.00    +0.004 A 
ATOM     11  C   UNL     1     -10.667   2.087  -2.546  0.00  0.00    -0.046 A 
ATOM     12  C   UNL     1     -11.436   1.374  -1.646  0.00  0.00    +0.024 A 
ATOM     13  C   UNL     1     -12.387   0.479  -2.104  0.00  0.00    +0.044 A 
ATOM     14 CL   UNL     1     -13.352  -0.417  -0.974  0.00  0.00    -0.083 Cl
ENDBRANCH   6  11
ENDBRANCH   5   6
ENDBRANCH   1   5
BRANCH   3  15
ATOM     15  C   UNL     1      -4.993   3.846  -0.653  0.00  0.00    +0.200 C 
BRANCH  15  16
ATOM     16  C   UNL     1      -3.676   3.135  -0.477  0.00  0.00    +0.234 C 
ATOM     17  O   UNL     1      -3.587   1.952  -0.732  0.00  0.00    -0.274 OA
ATOM     18  N   UNL     1      -2.598   3.812  -0.036  0.00  0.00    -0.284 N 
ATOM     19  H   UNL     1      -2.685   4.739   0.234  0.00  0.00    +0.155 HD
BRANCH  18  20
ATOM     20  C   UNL     1      -1.352   3.178   0.031  0.00  0.00    +0.039 A 
ATOM     21  C   UNL     1      -0.728   2.745  -1.132  0.00  0.00    -0.029 A 
ATOM     22  C   UNL     1       0.499   2.114  -1.062  0.00  0.00    +0.008 A 
ATOM     23  C   UNL     1       1.110   1.923   0.163  0.00  0.00    -0.050 A 
ATOM     24  C   UNL     1       0.494   2.357   1.323  0.00  0.00    +0.008 A 
ATOM     25  C   UNL     1      -0.735   2.984   1.260  0.00  0.00    -0.029 A 
ATOM     26  C   UNL     1      -1.406   3.457   2.523  0.00  0.00    +0.045 C 
ATOM     27  C   UNL     1       2.452   1.240   0.236  0.00  0.00    +0.044 C 
ATOM     28  C   UNL     1      -1.391   2.959  -2.468  0.00  0.00    +0.045 C 
ENDBRANCH  18  20
ENDBRANCH  15  16
ENDBRANCH   3  15
TORSDOF 6
