REMARK  Name = ZINC67560229
REMARK  5 active torsions:
REMARK  status: ('A' for Active; 'I' for Inactive)
REMARK    1  A    between atoms: C_1  and  C_2
REMARK    2  A    between atoms: C_7  and  C_10
REMARK    3  A    between atoms: N_18  and  C_19
REMARK    4  A    between atoms: C_24  and  S_25
REMARK    5  A    between atoms: S_25  and  C_26
REMARK                            x       y       z     vdW  Elec       q    Type
REMARK                         _______ _______ _______ _____ _____    ______ ____
ROOT
ATOM      1  C   UNL     1       0.176   1.970   0.560  0.00  0.00    +0.039 C 
ATOM      2  C   UNL     1       0.206   0.471   0.255  0.00  0.00    +0.133 C 
ATOM      3  C   UNL     1      -1.225  -0.037   0.046  0.00  0.00    +0.140 C 
ATOM      4  N   UNL     1      -1.937   0.041   1.332  0.00  0.00    -0.280 N 
ATOM      5  C   UNL     1      -1.293  -0.551   2.516  0.00  0.00    +0.145 C 
ATOM      6  C   UNL     1       0.141  -0.018   2.603  0.00  0.00    +0.166 C 
ATOM      7  O   UNL     1       0.800  -0.228   1.351  0.00  0.00    -0.366 OA
ATOM      8  C   UNL     1      -3.142   0.637   1.423  0.00  0.00    +0.307 C 
ATOM      9  O   UNL     1      -3.616   1.201   0.456  0.00  0.00    -0.252 OA
ATOM     10  N   UNL     1      -3.823   0.607   2.586  0.00  0.00    -0.268 N 
ATOM     11  H   UNL     1      -3.418   0.214   3.375  0.00  0.00    +0.156 HD
ENDROOT
BRANCH   6  12
ATOM     12  C   UNL     1       0.884  -0.748   3.692  0.00  0.00    -0.017 A 
ATOM     13  C   UNL     1       1.497  -1.957   3.420  0.00  0.00    +0.006 A 
ATOM     14  C   UNL     1       2.179  -2.627   4.418  0.00  0.00    +0.000 A 
ATOM     15  C   UNL     1       2.247  -2.088   5.690  0.00  0.00    +0.000 A 
ATOM     16  C   UNL     1       1.635  -0.879   5.962  0.00  0.00    +0.000 A 
ATOM     17  C   UNL     1       0.957  -0.207   4.962  0.00  0.00    +0.006 A 
ENDBRANCH   6  12
BRANCH  10  18
ATOM     18  C   UNL     1      -5.116   1.144   2.655  0.00  0.00    +0.048 A 
ATOM     19  C   UNL     1      -5.840   1.365   1.494  0.00  0.00    +0.024 A 
ATOM     20  C   UNL     1      -7.115   1.895   1.564  0.00  0.00    +0.002 A 
ATOM     21  C   UNL     1      -7.673   2.206   2.791  0.00  0.00    +0.001 A 
ATOM     22  C   UNL     1      -6.958   1.989   3.954  0.00  0.00    +0.017 A 
ATOM     23  C   UNL     1      -5.680   1.452   3.893  0.00  0.00    +0.034 A 
BRANCH  23  24
ATOM     24  S   UNL     1      -4.770   1.167   5.375  0.00  0.00    -0.054 S 
BRANCH  24  25
ATOM     25  C   UNL     1      -5.893   1.711   6.691  0.00  0.00    +0.404 C 
ATOM     26  F   UNL     1      -6.199   3.064   6.513  0.00  0.00    -0.197 F 
ATOM     27  F   UNL     1      -7.069   0.956   6.642  0.00  0.00    -0.197 F 
ENDBRANCH  24  25
ENDBRANCH  23  24
ENDBRANCH  10  18
TORSDOF 4
