REMARK  Name = ZINC39467128
REMARK  4 active torsions:
REMARK  status: ('A' for Active; 'I' for Inactive)
REMARK    1  A    between atoms: C_4  and  O_33
REMARK    2  A    between atoms: C_5  and  C_7
REMARK    3  A    between atoms: P_16  and  C_26
REMARK    4  A    between atoms: C_31  and  O_32
REMARK                            x       y       z     vdW  Elec       q    Type
REMARK                         _______ _______ _______ _____ _____    ______ ____
ROOT
ATOM      1  C   UNL     1       1.245  -2.165  -0.023  0.00  0.00    -0.004 C 
ATOM      2  C   UNL     1       0.950  -2.844  -1.145  0.00  0.00    -0.013 C 
ATOM      3  C   UNL     1       0.973  -4.348  -1.125  0.00  0.00    +0.016 C 
ATOM      4  C   UNL     1       0.102  -4.913  -2.239  0.00  0.00    -0.003 C 
ATOM      5  C   UNL     1      -1.372  -4.553  -2.013  0.00  0.00    -0.020 C 
ATOM      6  C   UNL     1      -2.170  -5.185  -3.161  0.00  0.00    +0.157 C 
ATOM      7  O   UNL     1      -3.560  -4.839  -3.027  0.00  0.00    -0.316 OA
ATOM      8  P   UNL     1      -4.265  -5.086  -1.581  0.00  0.00    +0.291 P 
ATOM      9  O   UNL     1      -4.638  -6.511  -1.429  0.00  0.00    -0.269 OA
ATOM     10  N   UNL     1      -3.120  -4.672  -0.467  0.00  0.00    -0.288 NA
ATOM     11  N   UNL     1      -1.818  -5.056  -0.712  0.00  0.00    +0.398 N 
ATOM     12  C   UNL     1      -1.013  -4.465   0.369  0.00  0.00    -0.046 C 
ATOM     13  C   UNL     1       0.442  -4.849   0.221  0.00  0.00    +0.005 C 
ATOM     14  C   UNL     1       1.218  -4.182   1.332  0.00  0.00    -0.009 C 
ATOM     15  C   UNL     1       1.601  -2.915   1.202  0.00  0.00    +0.022 C 
ATOM     16 BR   UNL     1       2.589  -2.073   2.577  0.00  0.00    -0.050 Br
ATOM     17  H   UNL     1      -3.356  -4.177   0.334  0.00  0.00    +0.111 HD
ATOM     18  H   UNL     1      -1.748  -6.062  -0.694  0.00  0.00    -0.055 HD
ENDROOT
BRANCH   1  23
ATOM     19  C   UNL     1      -0.017   1.376   0.010  0.00  0.00    +0.001 A 
ATOM     20  C   UNL     1       1.169   2.089   0.002  0.00  0.00    +0.004 A 
ATOM     21  C   UNL     1       2.382   1.426  -0.013  0.00  0.00    +0.046 A 
ATOM     22  C   UNL     1       2.415   0.041  -0.022  0.00  0.00    +0.125 A 
ATOM     23  C   UNL     1       1.219  -0.683  -0.014  0.00  0.00    +0.024 A 
ATOM     24  C   UNL     1       0.002  -0.004   0.002  0.00  0.00    +0.012 A 
BRANCH  22  25
ATOM     25  O   UNL     1       3.607  -0.612  -0.038  0.00  0.00    -0.506 OA
ATOM     26  H   UNL     1       3.961  -0.806   0.841  0.00  0.00    +0.292 HD
ENDBRANCH  22  25
ENDBRANCH   1  23
BRANCH   8  27
ATOM     27  C   UNL     1      -5.730  -4.031  -1.406  0.00  0.00    +0.091 A 
ATOM     28  C   UNL     1      -5.609  -2.765  -0.867  0.00  0.00    +0.018 A 
ATOM     29  C   UNL     1      -6.726  -1.961  -0.733  0.00  0.00    +0.001 A 
ATOM     30  C   UNL     1      -7.965  -2.421  -1.138  0.00  0.00    +0.004 A 
ATOM     31  C   UNL     1      -8.091  -3.686  -1.678  0.00  0.00    +0.046 A 
ATOM     32  C   UNL     1      -6.971  -4.493  -1.819  0.00  0.00    +0.131 A 
BRANCH  32  33
ATOM     33  O   UNL     1      -7.091  -5.736  -2.355  0.00  0.00    -0.506 OA
ATOM     34  H   UNL     1      -7.269  -6.429  -1.705  0.00  0.00    +0.292 HD
ENDBRANCH  32  33
ENDBRANCH   8  27
TORSDOF 4
