REMARK  Name = ZINC33312826
REMARK  8 active torsions:
REMARK  status: ('A' for Active; 'I' for Inactive)
REMARK    1  A    between atoms: C_1  and  C_2
REMARK    2  A    between atoms: C_2  and  O_3
REMARK    3  A    between atoms: O_3  and  C_4
REMARK    4  A    between atoms: C_9  and  C_10
REMARK    5  A    between atoms: C_10  and  N_11
REMARK    6  A    between atoms: C_12  and  C_14
REMARK    7  A    between atoms: C_14  and  N_15
REMARK    8  A    between atoms: C_24  and  C_26
REMARK                            x       y       z     vdW  Elec       q    Type
REMARK                         _______ _______ _______ _____ _____    ______ ____
ROOT
ATOM      1  N   UNL     1       2.402   1.060   0.152  0.00  0.00    +0.396 N 
ATOM      2  C   UNL     1       3.676   1.780   0.002  0.00  0.00    -0.072 C 
ATOM      3  C   UNL     1       3.829   2.193  -1.463  0.00  0.00    +0.017 C 
ATOM      4  C   UNL     1       2.578   2.889  -1.935  0.00  0.00    -0.047 A 
ATOM      5  C   UNL     1       2.639   3.642  -3.098  0.00  0.00    +0.004 A 
ATOM      6  C   UNL     1       1.515   4.289  -3.569  0.00  0.00    +0.000 A 
ATOM      7  C   UNL     1       0.322   4.187  -2.878  0.00  0.00    +0.000 A 
ATOM      8  C   UNL     1       0.261   3.439  -1.719  0.00  0.00    +0.003 A 
ATOM      9  C   UNL     1       1.390   2.789  -1.243  0.00  0.00    -0.049 A 
ATOM     10  C   UNL     1       1.274   1.989   0.028  0.00  0.00    +0.051 C 
ATOM     11  H   UNL     1       2.324   0.314  -0.652  0.00  0.00    -0.080 HD
ENDROOT
BRANCH  10  12
ATOM     12  C   UNL     1      -0.014   1.209   0.009  0.00  0.00    +0.206 C 
ATOM     13  O   UNL     1      -0.070   0.144  -0.570  0.00  0.00    -0.277 OA
ATOM     14  N   UNL     1      -1.107   1.696   0.630  0.00  0.00    -0.303 N 
ATOM     15  C   UNL     1      -1.087   3.032   1.240  0.00  0.00    +0.107 C 
ATOM     16  C   UNL     1      -2.268   3.841   0.682  0.00  0.00    +0.019 C 
ATOM     17  C   UNL     1      -3.566   3.064   0.914  0.00  0.00    +0.003 C 
ATOM     18  C   UNL     1      -3.502   1.729   0.169  0.00  0.00    +0.019 C 
ATOM     19  C   UNL     1      -2.337   0.898   0.716  0.00  0.00    +0.107 C 
ENDBRANCH  10  12
BRANCH   1  20
ATOM     20  C   UNL     1       2.352   0.342   1.433  0.00  0.00    +0.020 C 
BRANCH  20  22
ATOM     21  N   UNL     1       3.505  -1.567   2.503  0.00  0.00    -0.313 N 
ATOM     22  C   UNL     1       3.370  -0.770   1.425  0.00  0.00    +0.197 C 
ATOM     23  O   UNL     1       4.068  -0.946   0.449  0.00  0.00    -0.278 OA
ATOM     24  H   UNL     1       2.872  -1.408   3.388  0.00  0.00    +0.149 HD
BRANCH  21  25
ATOM     25  C   UNL     1       4.495  -2.647   2.496  0.00  0.00    +0.143 C 
BRANCH  25  31
ATOM     26  C   UNL     1       3.460  -4.335   4.034  0.00  0.00    +0.125 A 
ATOM     27  C   UNL     1       3.417  -5.012   5.245  0.00  0.00    +0.046 A 
ATOM     28  C   UNL     1       4.353  -4.738   6.222  0.00  0.00    +0.004 A 
ATOM     29  C   UNL     1       5.334  -3.790   5.995  0.00  0.00    +0.001 A 
ATOM     30  C   UNL     1       5.382  -3.117   4.788  0.00  0.00    +0.009 A 
ATOM     31  C   UNL     1       4.445  -3.384   3.809  0.00  0.00    +0.011 A 
BRANCH  26  32
ATOM     32  O   UNL     1       2.540  -4.603   3.071  0.00  0.00    -0.492 OA
BRANCH  32  34
ATOM     33  C   UNL     1       0.613  -5.757   2.177  0.00  0.00    +0.048 C 
ATOM     34  C   UNL     1       1.555  -5.594   3.372  0.00  0.00    +0.225 C 
ENDBRANCH  32  34
ENDBRANCH  26  32
ENDBRANCH  25  31
ENDBRANCH  21  25
ENDBRANCH  20  22
ENDBRANCH   1  20
TORSDOF 7
