REMARK  Name = ZINC02190949
REMARK  11 active torsions:
REMARK  status: ('A' for Active; 'I' for Inactive)
REMARK    1  A    between atoms: C_1  and  C_2
REMARK    2  A    between atoms: C_2  and  S_3
REMARK    3  A    between atoms: S_3  and  C_4
REMARK    4  A    between atoms: C_4  and  C_5
REMARK    5  A    between atoms: C_5  and  O_6
REMARK    6  A    between atoms: O_6  and  C_7
REMARK    7  A    between atoms: C_7  and  C_9
REMARK    8  A    between atoms: C_10  and  C_37
REMARK    9  A    between atoms: C_14  and  C_16
REMARK   10  A    between atoms: C_19  and  C_22
REMARK   11  A    between atoms: C_29  and  C_32
REMARK                            x       y       z     vdW  Elec       q    Type
REMARK                         _______ _______ _______ _____ _____    ______ ____
ROOT
ATOM      1  C   UNL     1       4.506   7.718   1.349  0.00  0.00    +0.065 C 
ATOM      2  C   UNL     1       4.164   7.040   2.458  0.00  0.00    +0.016 C 
ATOM      3  N   UNL     1       3.203   6.070   2.409  0.00  0.00    -0.321 N 
ATOM      4  C   UNL     1       2.853   5.492   1.218  0.00  0.00    +0.016 C 
ATOM      5  C   UNL     1       3.145   6.102   0.050  0.00  0.00    +0.024 C 
ATOM      6  C   UNL     1       3.843   7.439   0.031  0.00  0.00    +0.092 C 
ATOM      7  C   UNL     1       2.805   5.513  -1.181  0.00  0.00    +0.162 C 
ATOM      8  O   UNL     1       3.075   6.092  -2.214  0.00  0.00    -0.292 OA
ATOM      9  C   UNL     1       2.113   4.178  -1.241  0.00  0.00    +0.088 C 
ATOM     10  C   UNL     1       2.498   3.360  -0.004  0.00  0.00    +0.039 C 
ATOM     11  C   UNL     1       2.138   4.164   1.247  0.00  0.00    +0.060 C 
ATOM     12  C   UNL     1       4.847   7.353   3.765  0.00  0.00    +0.061 C 
ATOM     13  H   UNL     1       2.701   5.746   3.333  0.00  0.00    +0.152 HD
ENDROOT
BRANCH   6  14
ATOM     14  C   UNL     1       2.833   8.520  -0.254  0.00  0.00    -0.035 A 
ATOM     15  C   UNL     1       1.760   8.706   0.597  0.00  0.00    +0.005 A 
ATOM     16  C   UNL     1       0.836   9.701   0.338  0.00  0.00    +0.012 A 
ATOM     17  C   UNL     1       0.981  10.504  -0.778  0.00  0.00    +0.055 A 
ATOM     18  C   UNL     1       2.051  10.316  -1.632  0.00  0.00    +0.012 A 
ATOM     19  C   UNL     1       2.978   9.324  -1.370  0.00  0.00    +0.005 A 
BRANCH  17  20
ATOM     20  C   UNL     1      -0.030  11.585  -1.064  0.00  0.00    +0.417 C 
ATOM     21  F   UNL     1      -1.056  11.065  -1.859  0.00  0.00    -0.166 F 
ATOM     22  F   UNL     1      -0.565  12.054   0.141  0.00  0.00    -0.166 F 
ATOM     23  F   UNL     1       0.594  12.640  -1.739  0.00  0.00    -0.166 F 
ENDBRANCH  17  20
ENDBRANCH   6  14
BRANCH  10  24
ATOM     24  C   UNL     1       1.742   2.057  -0.004  0.00  0.00    -0.006 A 
ATOM     25  C   UNL     1       2.223   0.790  -0.015  0.00  0.00    +0.011 A 
ATOM     26  C   UNL     1       1.332  -0.266  -0.012  0.00  0.00    +0.008 A 
ATOM     27  C   UNL     1       0.002  -0.004   0.002  0.00  0.00    +0.045 A 
ATOM     28  S   UNL     1      -0.022   1.781   0.012  0.00  0.00    -0.101 S 
ENDBRANCH  10  24
BRANCH   1  29
ATOM     29  C   UNL     1       5.508   8.713   1.424  0.00  0.00    +0.338 C 
ATOM     30  O   UNL     1       6.053   8.948   2.486  0.00  0.00    -0.245 OA
BRANCH  29  31
ATOM     31  O   UNL     1       5.861   9.400   0.318  0.00  0.00    -0.460 OA
BRANCH  31  32
ATOM     32  C   UNL     1       6.881  10.390   0.467  0.00  0.00    +0.243 C 
BRANCH  32  33
ATOM     33  C   UNL     1       7.143  11.059  -0.884  0.00  0.00    +0.110 C 
BRANCH  33  34
ATOM     34  S   UNL     1       8.438  12.316  -0.695  0.00  0.00    -0.158 S 
BRANCH  34  36
ATOM     35  C   UNL     1       9.704  14.092  -2.345  0.00  0.00    +0.015 C 
ATOM     36  C   UNL     1       8.627  13.005  -2.362  0.00  0.00    +0.066 C 
ENDBRANCH  34  36
ENDBRANCH  33  34
ENDBRANCH  32  33
ENDBRANCH  31  32
ENDBRANCH  29  31
ENDBRANCH   1  29
TORSDOF 9
