REMARK  Name = ZINC62038984
REMARK  10 active torsions:
REMARK  status: ('A' for Active; 'I' for Inactive)
REMARK    1  A    between atoms: C_1  and  C_2
REMARK    2  A    between atoms: C_5  and  O_33
REMARK    3  A    between atoms: C_6  and  C_8
REMARK    4  A    between atoms: C_16  and  S_18
REMARK    5  A    between atoms: S_18  and  C_19
REMARK    6  A    between atoms: C_19  and  C_20
REMARK    7  A    between atoms: N_22  and  C_23
REMARK    8  A    between atoms: C_25  and  N_30
REMARK    9  A    between atoms: C_28  and  O_29
REMARK   10  A    between atoms: O_33  and  C_34
REMARK                            x       y       z     vdW  Elec       q    Type
REMARK                         _______ _______ _______ _____ _____    ______ ____
ROOT
ATOM      1  C   UNL     1       0.019  -2.904   2.435  0.00  0.00    +0.007 A 
ATOM      2  C   UNL     1      -1.039  -2.853   3.280  0.00  0.00    +0.056 A 
ATOM      3  S   UNL     1      -0.530  -3.893   4.635  0.00  0.00    -0.078 S 
ATOM      4  C   UNL     1       1.071  -4.364   4.038  0.00  0.00    +0.093 A 
ATOM      5  C   UNL     1       1.174  -3.713   2.807  0.00  0.00    +0.080 A 
ATOM      6  C   UNL     1       2.440  -3.941   2.074  0.00  0.00    +0.283 A 
ATOM      7  O   UNL     1       2.628  -3.412   0.989  0.00  0.00    -0.265 OA
ATOM      8  N   UNL     1       3.375  -4.731   2.610  0.00  0.00    -0.185 NA
ATOM      9  C   UNL     1       3.215  -5.321   3.775  0.00  0.00    +0.171 A 
ATOM     10  N   UNL     1       2.079  -5.148   4.509  0.00  0.00    -0.328 N 
ATOM     11  H   UNL     1       1.985  -5.594   5.365  0.00  0.00    +0.168 HD
ENDROOT
BRANCH   1  17
ATOM     12  C   UNL     1      -0.077   1.434  -0.032  0.00  0.00    +0.044 C 
ATOM     13  C   UNL     1      -0.046  -0.072  -0.036  0.00  0.00    -0.050 A 
ATOM     14  C   UNL     1      -0.034  -0.758  -1.238  0.00  0.00    +0.007 A 
ATOM     15  C   UNL     1      -0.005  -2.140  -1.252  0.00  0.00    +0.046 A 
ATOM     16  C   UNL     1       0.012  -2.846  -0.061  0.00  0.00    +0.128 A 
ATOM     17  C   UNL     1       0.001  -2.156   1.155  0.00  0.00    +0.025 A 
ATOM     18  C   UNL     1      -0.023  -0.763   1.158  0.00  0.00    +0.015 A 
BRANCH  16  19
ATOM     19  O   UNL     1       0.040  -4.205  -0.074  0.00  0.00    -0.495 OA
ATOM     20  C   UNL     1       0.049  -4.841  -1.353  0.00  0.00    +0.277 C 
ENDBRANCH  16  19
ENDBRANCH   1  17
BRANCH   9  21
ATOM     21  S   UNL     1       4.501  -6.347   4.406  0.00  0.00    -0.078 S 
BRANCH  21  22
ATOM     22  C   UNL     1       5.787  -6.273   3.129  0.00  0.00    +0.173 C 
BRANCH  22  23
ATOM     23  C   UNL     1       6.961  -7.120   3.549  0.00  0.00    +0.228 C 
ATOM     24  O   UNL     1       6.933  -7.715   4.606  0.00  0.00    -0.275 OA
ATOM     25  N   UNL     1       8.043  -7.216   2.751  0.00  0.00    -0.282 N 
ATOM     26  H   UNL     1       8.040  -6.793   1.877  0.00  0.00    +0.155 HD
BRANCH  25  27
ATOM     27  C   UNL     1       9.171  -7.926   3.181  0.00  0.00    +0.078 A 
ATOM     28  C   UNL     1       9.021  -9.057   3.971  0.00  0.00    +0.059 A 
ATOM     29  C   UNL     1      10.135  -9.756   4.395  0.00  0.00    +0.128 A 
ATOM     30  C   UNL     1      11.401  -9.332   4.034  0.00  0.00    +0.036 A 
ATOM     31  C   UNL     1      11.558  -8.206   3.248  0.00  0.00    +0.049 A 
ATOM     32  C   UNL     1      10.446  -7.503   2.813  0.00  0.00    +0.138 A 
BRANCH  29  33
ATOM     33  N   UNL     1       9.974 -10.962   5.238  0.00  0.00    +0.056 N 
ATOM     34  O   UNL     1       8.868 -11.334   5.555  0.00  0.00    -0.126 OA
ATOM     35  O   UNL     1      10.947 -11.575   5.610  0.00  0.00    -0.126 OA
ENDBRANCH  29  33
BRANCH  32  36
ATOM     36  O   UNL     1      10.599  -6.398   2.035  0.00  0.00    -0.505 OA
ATOM     37  H   UNL     1      10.684  -5.574   2.534  0.00  0.00    +0.292 HD
ENDBRANCH  32  36
ENDBRANCH  25  27
ENDBRANCH  22  23
ENDBRANCH  21  22
ENDBRANCH   9  21
TORSDOF 8
