REMARK  Name = ZINC63209034
REMARK  5 active torsions:
REMARK  status: ('A' for Active; 'I' for Inactive)
REMARK    1  A    between atoms: C_7  and  C_10
REMARK    2  A    between atoms: C_10  and  C_11
REMARK    3  A    between atoms: N_15  and  C_19
REMARK    4  A    between atoms: C_19  and  C_20
REMARK    5  A    between atoms: C_28  and  C_30
REMARK                            x       y       z     vdW  Elec       q    Type
REMARK                         _______ _______ _______ _____ _____    ______ ____
ROOT
ATOM      1  C   UNL     1      -4.486  -2.818  -0.128  0.00  0.00    +0.165 C 
ATOM      2  C   UNL     1      -4.915  -4.209  -0.552  0.00  0.00    +0.244 C 
ATOM      3  O   UNL     1      -6.040  -4.584  -0.802  0.00  0.00    -0.273 OA
ATOM      4  N   UNL     1      -3.784  -4.942  -0.592  0.00  0.00    -0.216 N 
ATOM      5  C   UNL     1      -2.713  -4.215  -0.257  0.00  0.00    +0.310 C 
ATOM      6  O   UNL     1      -1.581  -4.656  -0.221  0.00  0.00    -0.252 OA
ATOM      7  N   UNL     1      -3.027  -2.936   0.035  0.00  0.00    -0.287 N 
ATOM      8  H   UNL     1      -2.415  -2.232   0.301  0.00  0.00    +0.151 HD
ENDROOT
BRANCH   1   9
ATOM      9  C   UNL     1      -5.147  -2.432   1.197  0.00  0.00    +0.065 C 
BRANCH   9  16
ATOM     10  C   UNL     1      -7.194   1.617   0.508  0.00  0.00    +0.001 A 
ATOM     11  C   UNL     1      -6.473   2.705   1.017  0.00  0.00    +0.002 A 
ATOM     12  C   UNL     1      -5.289   2.564   1.650  0.00  0.00    +0.026 A 
ATOM     13  C   UNL     1      -4.717   1.273   1.825  0.00  0.00    +0.043 A 
ATOM     14  N   UNL     1      -3.602   0.882   2.392  0.00  0.00    -0.380 N 
ATOM     15  C   UNL     1      -3.511  -0.579   2.287  0.00  0.00    +0.144 C 
ATOM     16  C   UNL     1      -4.760  -1.021   1.558  0.00  0.00    -0.039 C 
ATOM     17  C   UNL     1      -5.460   0.107   1.296  0.00  0.00    -0.001 A 
ATOM     18  C   UNL     1      -6.741   0.348   0.622  0.00  0.00    +0.010 A 
ATOM     19  H   UNL     1      -2.946   1.462   2.811  0.00  0.00    +0.160 HD
ENDBRANCH   9  16
ENDBRANCH   1   9
BRANCH   4  20
ATOM     20  C   UNL     1      -3.735  -6.359  -0.958  0.00  0.00    +0.213 C 
BRANCH  20  21
ATOM     21  C   UNL     1      -3.536  -6.487  -2.446  0.00  0.00    +0.234 C 
ATOM     22  O   UNL     1      -3.443  -5.493  -3.134  0.00  0.00    -0.274 OA
ATOM     23  N   UNL     1      -3.459  -7.708  -3.013  0.00  0.00    -0.297 N 
ATOM     24  C   UNL     1      -3.576  -8.922  -2.194  0.00  0.00    +0.127 C 
ATOM     25  C   UNL     1      -4.704  -9.791  -2.763  0.00  0.00    +0.127 C 
ATOM     26  N   UNL     1      -4.504  -9.931  -4.212  0.00  0.00    -0.294 N 
ATOM     27  C   UNL     1      -4.388  -8.717  -5.031  0.00  0.00    +0.127 C 
ATOM     28  C   UNL     1      -3.265  -7.848  -4.463  0.00  0.00    +0.127 C 
ATOM     29  C   UNL     1      -4.428 -11.152  -4.779  0.00  0.00    +0.253 C 
ATOM     30  O   UNL     1      -4.377 -11.258  -5.990  0.00  0.00    -0.269 OA
BRANCH  29  31
ATOM     31  C   UNL     1      -4.406 -12.351  -3.937  0.00  0.00    +0.074 A 
ATOM     32  C   UNL     1      -4.873 -13.626  -4.219  0.00  0.00    +0.021 A 
ATOM     33  C   UNL     1      -4.712 -14.555  -3.220  0.00  0.00    +0.008 A 
ATOM     34  C   UNL     1      -4.125 -14.178  -2.057  0.00  0.00    +0.046 A 
ATOM     35  S   UNL     1      -3.766 -12.553  -2.285  0.00  0.00    -0.092 S 
ENDBRANCH  29  31
ENDBRANCH  20  21
ENDBRANCH   4  20
TORSDOF 5
