REMARK  Name = ZINC40729631
REMARK  4 active torsions:
REMARK  status: ('A' for Active; 'I' for Inactive)
REMARK    1  A    between atoms: C_4  and  C_7
REMARK    2  A    between atoms: C_7  and  C_8
REMARK    3  A    between atoms: C_15  and  N_29
REMARK    4  A    between atoms: C_16  and  N_20
REMARK                            x       y       z     vdW  Elec       q    Type
REMARK                         _______ _______ _______ _____ _____    ______ ____
ROOT
ATOM      1  C   UNL     1       4.472  -0.525   1.836  0.00  0.00    -0.004 C 
ATOM      2  C   UNL     1       3.418  -1.458   2.437  0.00  0.00    +0.023 C 
ATOM      3  C   UNL     1       3.849  -1.865   3.850  0.00  0.00    +0.107 C 
ATOM      4  N   UNL     1       5.199  -2.441   3.786  0.00  0.00    -0.314 N 
ATOM      5  C   UNL     1       6.269  -1.664   3.146  0.00  0.00    +0.107 C 
ATOM      6  C   UNL     1       5.811  -1.260   1.740  0.00  0.00    +0.023 C 
ATOM      7  C   UNL     1       5.459  -3.697   4.321  0.00  0.00    +0.148 A 
ATOM      8  C   UNL     1       5.956  -3.826   5.622  0.00  0.00    +0.110 A 
ATOM      9  C   UNL     1       6.199  -5.109   6.109  0.00  0.00    +0.182 A 
ATOM     10  N   UNL     1       5.950  -6.154   5.324  0.00  0.00    -0.215 NA
ATOM     11  C   UNL     1       5.482  -5.990   4.105  0.00  0.00    +0.225 A 
ATOM     12  N   UNL     1       5.233  -4.795   3.606  0.00  0.00    -0.219 NA
ENDROOT
BRANCH   9  13
ATOM     13  N   UNL     1       6.696  -5.295   7.401  0.00  0.00    -0.192 N 
ATOM     14  C   UNL     1       7.096  -6.485   7.966  0.00  0.00    +0.096 A 
ATOM     15  C   UNL     1       7.149  -7.799   7.515  0.00  0.00    +0.030 A 
ATOM     16  C   UNL     1       7.614  -8.789   8.352  0.00  0.00    +0.002 A 
ATOM     17  C   UNL     1       8.030  -8.483   9.641  0.00  0.00    +0.002 A 
ATOM     18  C   UNL     1       7.985  -7.200  10.103  0.00  0.00    +0.032 A 
ATOM     19  C   UNL     1       7.517  -6.175   9.271  0.00  0.00    +0.113 A 
ATOM     20  N   UNL     1       7.360  -4.841   9.445  0.00  0.00    -0.129 NA
ATOM     21  N   UNL     1       6.890  -4.304   8.375  0.00  0.00    -0.058 NA
ENDBRANCH   9  13
BRANCH   8  22
ATOM     22  N   UNL     1       6.204  -2.696   6.413  0.00  0.00    -0.352 N 
ATOM     23  H   UNL     1       5.951  -1.815   6.095  0.00  0.00    +0.143 HD
ATOM     24  H   UNL     1       6.628  -2.794   7.280  0.00  0.00    +0.143 HD
ENDBRANCH   8  22
BRANCH   1  25
ATOM     25  C   UNL     1       4.029  -0.090   0.438  0.00  0.00    +0.038 C 
BRANCH  25  29
ATOM     26  C   UNL     1       0.473   2.259   0.737  0.00  0.00    +0.000 A 
ATOM     27  C   UNL     1       1.712   2.871   0.788  0.00  0.00    +0.000 A 
ATOM     28  C   UNL     1       2.863   2.111   0.692  0.00  0.00    +0.003 A 
ATOM     29  C   UNL     1       2.775   0.739   0.544  0.00  0.00    -0.047 A 
ATOM     30  C   UNL     1       1.536   0.127   0.493  0.00  0.00    +0.003 A 
ATOM     31  C   UNL     1       0.385   0.887   0.589  0.00  0.00    +0.000 A 
ENDBRANCH  25  29
ENDBRANCH   1  25
TORSDOF 4
