REMARK  Name = ZINC23039922
REMARK  4 active torsions:
REMARK  status: ('A' for Active; 'I' for Inactive)
REMARK    1  A    between atoms: C_4  and  C_7
REMARK    2  A    between atoms: N_16  and  C_17
REMARK    3  A    between atoms: C_17  and  C_18
REMARK    4  A    between atoms: N_20  and  C_21
REMARK                            x       y       z     vdW  Elec       q    Type
REMARK                         _______ _______ _______ _____ _____    ______ ____
ROOT
ATOM      1  C   UNL     1      -2.612   5.110  -8.384  0.00  0.00    -0.005 C 
ATOM      2  C   UNL     1      -2.360   4.103  -9.503  0.00  0.00    -0.047 A 
ATOM      3  C   UNL     1      -3.005   4.135 -10.737  0.00  0.00    +0.010 A 
ATOM      4  C   UNL     1      -2.722   3.200 -11.673  0.00  0.00    +0.045 A 
ATOM      5  S   UNL     1      -1.499   2.200 -10.838  0.00  0.00    -0.101 S 
ATOM      6  C   UNL     1      -1.457   3.100  -9.314  0.00  0.00    -0.010 A 
ATOM      7  C   UNL     1      -0.640   2.854  -8.088  0.00  0.00    +0.024 C 
ATOM      8  C   UNL     1      -0.723   4.114  -7.210  0.00  0.00    -0.072 C 
ATOM      9  N   UNL     1      -2.127   4.539  -7.121  0.00  0.00    +0.393 N 
ATOM     10  H   UNL     1      -2.727   3.638  -6.923  0.00  0.00    -0.080 HD
ENDROOT
BRANCH   1  14
ATOM     11  C   UNL     1      -6.796   5.917  -8.083  0.00  0.00    +0.000 A 
ATOM     12  C   UNL     1      -5.964   6.811  -8.732  0.00  0.00    +0.000 A 
ATOM     13  C   UNL     1      -4.610   6.550  -8.829  0.00  0.00    +0.002 A 
ATOM     14  C   UNL     1      -4.088   5.395  -8.278  0.00  0.00    -0.057 A 
ATOM     15  C   UNL     1      -4.920   4.498  -7.634  0.00  0.00    +0.002 A 
ATOM     16  C   UNL     1      -6.273   4.762  -7.532  0.00  0.00    +0.000 A 
ENDBRANCH   1  14
BRANCH   9  17
ATOM     17  C   UNL     1      -2.325   5.478  -6.009  0.00  0.00    +0.020 C 
BRANCH  17  18
ATOM     18  C   UNL     1      -2.049   4.776  -4.704  0.00  0.00    +0.201 C 
ATOM     19  O   UNL     1      -1.721   3.609  -4.701  0.00  0.00    -0.278 OA
ATOM     20  N   UNL     1      -2.167   5.446  -3.541  0.00  0.00    -0.286 N 
ATOM     21  H   UNL     1      -2.537   6.482  -3.538  0.00  0.00    +0.155 HD
BRANCH  20  22
ATOM     22  C   UNL     1      -1.821   4.823  -2.335  0.00  0.00    +0.051 A 
ATOM     23  C   UNL     1      -2.049   3.464  -2.165  0.00  0.00    +0.073 A 
ATOM     24  C   UNL     1      -1.706   2.847  -0.972  0.00  0.00    +0.164 A 
ATOM     25  C   UNL     1      -1.131   3.591   0.053  0.00  0.00    +0.163 A 
ATOM     26  C   UNL     1      -0.904   4.948  -0.120  0.00  0.00    +0.066 A 
ATOM     27  C   UNL     1      -1.247   5.563  -1.309  0.00  0.00    +0.043 A 
ATOM     28 BR   UNL     1      -0.937   7.414  -1.540  0.00  0.00    -0.048 Br
ATOM     29  O   UNL     1      -0.783   3.001   1.230  0.00  0.00    -0.485 OA
ATOM     30  C   UNL     1      -1.365   1.722   1.507  0.00  0.00    +0.270 C 
ATOM     31  C   UNL     1      -1.244   0.857   0.245  0.00  0.00    +0.270 C 
ATOM     32  O   UNL     1      -1.939   1.515  -0.819  0.00  0.00    -0.485 OA
ENDBRANCH  20  22
ENDBRANCH  17  18
ENDBRANCH   9  17
TORSDOF 4
