REMARK  Name = ZINC12009173
REMARK  4 active torsions:
REMARK  status: ('A' for Active; 'I' for Inactive)
REMARK    1  A    between atoms: C_4  and  C_7
REMARK    2  A    between atoms: C_16  and  N_25
REMARK    3  A    between atoms: C_18  and  C_20
REMARK    4  A    between atoms: C_26  and  C_28
REMARK                            x       y       z     vdW  Elec       q    Type
REMARK                         _______ _______ _______ _____ _____    ______ ____
ROOT
ATOM      1  C   UNL     1       2.517   7.736   1.187  0.00  0.00    +0.080 A 
ATOM      2  C   UNL     1       1.936   8.300   0.062  0.00  0.00    +0.098 A 
ATOM      3  C   UNL     1       2.409   7.917  -1.204  0.00  0.00    +0.253 A 
ATOM      4  O   UNL     1       1.923   8.391  -2.218  0.00  0.00    -0.268 OA
ATOM      5  N   UNL     1       3.413   7.019  -1.278  0.00  0.00    -0.291 N 
ATOM      6  H   UNL     1       3.755   6.745  -2.143  0.00  0.00    +0.172 HD
ATOM      7  C   UNL     1       3.944   6.492  -0.142  0.00  0.00    +0.234 A 
ATOM      8  N   UNL     1       3.509   6.845   1.046  0.00  0.00    -0.212 NA
ATOM      9  N   UNL     1       4.969   5.570  -0.239  0.00  0.00    -0.184 N 
ATOM     10  C   UNL     1       4.830   4.211  -0.228  0.00  0.00    +0.133 A 
ATOM     11  C   UNL     1       6.068   3.669  -0.352  0.00  0.00    +0.077 A 
ATOM     12  C   UNL     1       6.996   4.729  -0.435  0.00  0.00    +0.130 A 
ATOM     13  N   UNL     1       6.332   5.865  -0.364  0.00  0.00    -0.159 NA
ENDROOT
BRANCH   1  17
ATOM     14  C   UNL     1       1.164   8.829   5.065  0.00  0.00    +0.000 A 
ATOM     15  C   UNL     1       2.255   7.990   4.927  0.00  0.00    +0.001 A 
ATOM     16  C   UNL     1       2.699   7.632   3.671  0.00  0.00    +0.010 A 
ATOM     17  C   UNL     1       2.045   8.117   2.539  0.00  0.00    +0.001 A 
ATOM     18  C   UNL     1       0.949   8.966   2.684  0.00  0.00    +0.010 A 
ATOM     19  C   UNL     1       0.511   9.313   3.946  0.00  0.00    +0.001 A 
ENDBRANCH   1  17
BRANCH  12  20
ATOM     20  C   UNL     1       8.461   4.588  -0.577  0.00  0.00    +0.155 A 
ATOM     21  C   UNL     1       9.355   5.609  -0.663  0.00  0.00    +0.051 A 
ATOM     22  C   UNL     1      10.630   5.021  -0.784  0.00  0.00    +0.042 A 
ATOM     23  C   UNL     1      10.452   3.686  -0.775  0.00  0.00    +0.196 A 
ATOM     24  O   UNL     1       9.140   3.428  -0.650  0.00  0.00    -0.461 OA
ENDBRANCH  12  20
BRANCH  10  25
ATOM     25  N   UNL     1       3.633   3.509  -0.117  0.00  0.00    -0.266 N 
ATOM     26  C   UNL     1       3.648   2.165  -0.013  0.00  0.00    +0.249 C 
ATOM     27  O   UNL     1       4.706   1.574   0.082  0.00  0.00    -0.270 OA
ATOM     28  H   UNL     1       2.789   3.986  -0.114  0.00  0.00    +0.157 HD
BRANCH  26  29
ATOM     29  C   UNL     1       2.378   1.410  -0.016  0.00  0.00    +0.040 A 
ATOM     30  C   UNL     1       1.159   2.091  -0.020  0.00  0.00    +0.016 A 
ATOM     31  C   UNL     1      -0.024   1.382  -0.022  0.00  0.00    +0.042 A 
ATOM     32  C   UNL     1      -0.005  -0.004  -0.021  0.00  0.00    +0.158 A 
ATOM     33  C   UNL     1       1.204  -0.686  -0.018  0.00  0.00    +0.159 A 
ATOM     34  C   UNL     1       2.393   0.014  -0.015  0.00  0.00    +0.054 A 
ATOM     35  F   UNL     1       1.215  -2.037  -0.017  0.00  0.00    -0.202 F 
ATOM     36  F   UNL     1      -1.168  -0.693  -0.023  0.00  0.00    -0.202 F 
ENDBRANCH  26  29
ENDBRANCH  10  25
TORSDOF 4
