REMARK  Name = ZINC11663376
REMARK  9 active torsions:
REMARK  status: ('A' for Active; 'I' for Inactive)
REMARK    1  A    between atoms: C_1  and  O_2
REMARK    2  A    between atoms: O_2  and  C_3
REMARK    3  A    between atoms: C_8  and  C_13
REMARK    4  A    between atoms: C_14  and  C_19
REMARK    5  A    between atoms: C_19  and  N_57
REMARK    6  A    between atoms: C_23  and  C_26
REMARK    7  A    between atoms: C_26  and  C_27
REMARK    8  A    between atoms: C_27  and  C_28
REMARK    9  A    between atoms: C_28  and  O_29
REMARK                            x       y       z     vdW  Elec       q    Type
REMARK                         _______ _______ _______ _____ _____    ______ ____
ROOT
ATOM      1  C   UNL     1       5.220  -2.832   0.232  0.00  0.00    +0.094 A 
ATOM      2  C   UNL     1       4.037  -2.151   0.581  0.00  0.00    -0.019 A 
ATOM      3  C   UNL     1       4.176  -0.862   0.204  0.00  0.00    +0.107 A 
ATOM      4  N   UNL     1       5.390  -0.723  -0.370  0.00  0.00    -0.284 N 
ATOM      5  H   UNL     1       5.767   0.122  -0.748  0.00  0.00    +0.188 HD
ATOM      6  N   UNL     1       6.030  -1.968  -0.343  0.00  0.00    -0.174 NA
ENDROOT
BRANCH   1  12
ATOM      7  C   UNL     1       6.865  -9.068   0.184  0.00  0.00    +0.121 A 
ATOM      8  C   UNL     1       7.209  -8.493  -1.043  0.00  0.00    +0.046 A 
ATOM      9  C   UNL     1       6.966  -7.179  -1.291  0.00  0.00    +0.012 A 
ATOM     10  C   UNL     1       6.361  -6.382  -0.303  0.00  0.00    -0.017 A 
ATOM     11  C   UNL     1       6.097  -5.022  -0.529  0.00  0.00    +0.018 A 
ATOM     12  C   UNL     1       5.501  -4.270   0.466  0.00  0.00    +0.003 A 
ATOM     13  C   UNL     1       5.159  -4.856   1.696  0.00  0.00    +0.011 A 
ATOM     14  C   UNL     1       5.405  -6.170   1.934  0.00  0.00    +0.009 A 
ATOM     15  C   UNL     1       6.010  -6.963   0.943  0.00  0.00    -0.014 A 
ATOM     16  C   UNL     1       6.280  -8.323   1.168  0.00  0.00    +0.054 A 
BRANCH   7  18
ATOM     17  C   UNL     1       7.737 -11.111  -0.661  0.00  0.00    +0.277 C 
ATOM     18  O   UNL     1       7.120 -10.385   0.403  0.00  0.00    -0.495 OA
ENDBRANCH   7  18
ENDBRANCH   1  12
BRANCH   2  19
ATOM     19  C   UNL     1       2.833  -2.754   1.258  0.00  0.00    -0.039 C 
BRANCH  19  25
ATOM     20  C   UNL     1       1.418  -2.748  -0.705  0.00  0.00    -0.078 C 
ATOM     21  C   UNL     1       0.781  -3.643  -1.771  0.00  0.00    -0.018 C 
ATOM     22  C   UNL     1      -0.223  -4.587  -1.104  0.00  0.00    -0.000 C 
ATOM     23  C   UNL     1       0.496  -5.410  -0.031  0.00  0.00    -0.028 C 
ATOM     24  C   UNL     1       1.141  -4.463   0.984  0.00  0.00    -0.075 C 
ATOM     25  N   UNL     1       2.114  -3.599   0.282  0.00  0.00    +0.383 N 
ATOM     26  H   UNL     1       2.793  -4.192  -0.209  0.00  0.00    -0.081 HD
BRANCH  23  27
ATOM     27  C   UNL     1      -0.512  -6.313   0.681  0.00  0.00    +0.004 C 
BRANCH  27  28
ATOM     28  C   UNL     1      -1.065  -7.341  -0.308  0.00  0.00    +0.028 C 
BRANCH  28  29
ATOM     29  C   UNL     1      -2.073  -8.244   0.405  0.00  0.00    +0.156 C 
BRANCH  29  30
ATOM     30  O   UNL     1      -2.589  -9.204  -0.519  0.00  0.00    -0.395 OA
ATOM     31  H   UNL     1      -3.236  -9.812  -0.135  0.00  0.00    +0.209 HD
ENDBRANCH  29  30
ENDBRANCH  28  29
ENDBRANCH  27  28
ENDBRANCH  23  27
ENDBRANCH  19  25
ENDBRANCH   2  19
TORSDOF 8
