REMARK  Name = ZINC16610578
REMARK  6 active torsions:
REMARK  status: ('A' for Active; 'I' for Inactive)
REMARK    1  A    between atoms: C_1  and  C_2
REMARK    2  A    between atoms: C_2  and  C_3
REMARK    3  A    between atoms: C_3  and  C_5
REMARK    4  A    between atoms: C_3  and  C_6
REMARK    5  A    between atoms: C_13  and  C_15
REMARK    6  A    between atoms: C_18  and  N_22
REMARK                            x       y       z     vdW  Elec       q    Type
REMARK                         _______ _______ _______ _____ _____    ______ ____
ROOT
ATOM      1  C   UNL     1      -1.226   1.748   0.017  0.00  0.00    -0.042 A 
ATOM      2  C   UNL     1      -0.013   1.076   0.008  0.00  0.00    +0.007 A 
ATOM      3  C   UNL     1       1.176   1.777   0.000  0.00  0.00    +0.049 A 
ATOM      4  C   UNL     1       1.161   3.163   0.008  0.00  0.00    +0.156 A 
ATOM      5  C   UNL     1      -0.065   3.847   0.023  0.00  0.00    +0.110 A 
ATOM      6  C   UNL     1      -1.261   3.124   0.030  0.00  0.00    +0.035 A 
ATOM      7  N   UNL     1       0.228   5.173   0.028  0.00  0.00    -0.209 NA
ATOM      8  C   UNL     1       1.530   5.316   0.017  0.00  0.00    +0.228 A 
ATOM      9  O   UNL     1       2.126   4.109   0.004  0.00  0.00    -0.435 OA
ENDROOT
BRANCH   8  10
ATOM     10  C   UNL     1       2.240   6.611   0.018  0.00  0.00    +0.039 A 
ATOM     11  C   UNL     1       1.516   7.806   0.026  0.00  0.00    +0.030 A 
ATOM     12  C   UNL     1       2.181   9.013   0.031  0.00  0.00    +0.040 A 
ATOM     13  C   UNL     1       3.572   9.042   0.018  0.00  0.00    +0.053 A 
ATOM     14  C   UNL     1       4.296   7.854   0.005  0.00  0.00    +0.040 A 
ATOM     15  C   UNL     1       3.636   6.644   0.005  0.00  0.00    +0.030 A 
ATOM     16 BR   UNL     1       6.186   7.899  -0.012  0.00  0.00    -0.048 Br
ATOM     17 BR   UNL     1       1.202  10.630   0.049  0.00  0.00    -0.048 Br
BRANCH  13  18
ATOM     18  N   UNL     1       4.242  10.265   0.018  0.00  0.00    -0.356 N 
ATOM     19  H   UNL     1       5.212  10.286   0.009  0.00  0.00    +0.142 HD
ATOM     20  H   UNL     1       3.739  11.094   0.027  0.00  0.00    +0.142 HD
ENDBRANCH  13  18
ENDBRANCH   8  10
BRANCH   1  21
ATOM     21  C   UNL     1      -2.515   0.966   0.019  0.00  0.00    +0.016 C 
ATOM     22  C   UNL     1      -2.582   0.092  -1.235  0.00  0.00    +0.012 C 
BRANCH  21  24
ATOM     23  C   UNL     1      -3.930  -0.621   1.330  0.00  0.00    +0.004 C 
ATOM     24  C   UNL     1      -2.571   0.078   1.263  0.00  0.00    +0.004 C 
ENDBRANCH  21  24
ENDBRANCH   1  21
TORSDOF 4
