REMARK  Name = ZINC08558957
REMARK  6 active torsions:
REMARK  status: ('A' for Active; 'I' for Inactive)
REMARK    1  A    between atoms: C_1  and  C_2
REMARK    2  A    between atoms: C_4  and  C_33
REMARK    3  A    between atoms: C_9  and  C_25
REMARK    4  A    between atoms: C_15  and  C_20
REMARK    5  A    between atoms: C_29  and  O_31
REMARK    6  A    between atoms: O_31  and  C_32
REMARK                            x       y       z     vdW  Elec       q    Type
REMARK                         _______ _______ _______ _____ _____    ______ ____
ROOT
ATOM      1  C   UNL     1       0.413   3.856   4.924  0.00  0.00    +0.066 C 
ATOM      2  C   UNL     1      -0.607   4.678   4.180  0.00  0.00    +0.044 A 
ATOM      3  C   UNL     1      -1.702   5.206   4.846  0.00  0.00    +0.046 A 
ATOM      4  C   UNL     1      -2.617   5.957   4.124  0.00  0.00    +0.044 A 
ATOM      5  N   UNL     1      -2.418   6.146   2.830  0.00  0.00    -0.218 NA
ATOM      6  C   UNL     1      -1.361   5.627   2.224  0.00  0.00    +0.236 A 
ATOM      7  N   UNL     1      -0.470   4.901   2.884  0.00  0.00    -0.218 NA
ATOM      8  N   UNL     1      -1.184   5.845   0.869  0.00  0.00    -0.209 N 
ATOM      9  C   UNL     1      -0.076   5.351   0.030  0.00  0.00    +0.162 C 
ATOM     10  C   UNL     1      -0.388   5.879  -1.342  0.00  0.00    +0.040 C 
ATOM     11  C   UNL     1      -1.546   6.592  -1.250  0.00  0.00    +0.031 C 
ATOM     12  N   UNL     1      -2.023   6.578   0.013  0.00  0.00    -0.264 N 
ATOM     13  C   UNL     1      -2.151   7.282  -2.455  0.00  0.00    +0.064 C 
ATOM     14  C   UNL     1      -1.016   7.617  -3.429  0.00  0.00    +0.068 C 
ATOM     15  C   UNL     1      -0.238   6.351  -3.790  0.00  0.00    +0.091 C 
ATOM     16  C   UNL     1       0.325   5.718  -2.537  0.00  0.00    +0.164 C 
ATOM     17  O   UNL     1       1.364   5.088  -2.566  0.00  0.00    -0.292 OA
ATOM     18  C   UNL     1      -3.823   6.551   4.806  0.00  0.00    +0.066 C 
ATOM     19  H   UNL     1      -2.841   7.019   0.294  0.00  0.00    +0.170 HD
ENDROOT
BRANCH   9  20
ATOM     20  C   UNL     1      -0.051   3.844   0.022  0.00  0.00    -0.017 A 
ATOM     21  C   UNL     1      -1.237   3.133   0.030  0.00  0.00    +0.006 A 
ATOM     22  C   UNL     1      -1.218   1.751   0.017  0.00  0.00    +0.004 A 
ATOM     23  C   UNL     1      -0.013   1.076   0.008  0.00  0.00    +0.045 A 
ATOM     24  C   UNL     1       1.179   1.786   0.000  0.00  0.00    +0.120 A 
ATOM     25  C   UNL     1       1.157   3.174   0.008  0.00  0.00    +0.051 A 
BRANCH  24  26
ATOM     26  O   UNL     1       2.366   1.125  -0.014  0.00  0.00    -0.495 OA
ATOM     27  C   UNL     1       2.312  -0.303  -0.020  0.00  0.00    +0.277 C 
ENDBRANCH  24  26
ENDBRANCH   9  20
BRANCH  14  28
ATOM     28  C   UNL     1      -1.596   8.217  -4.684  0.00  0.00    +0.109 A 
ATOM     29  C   UNL     1      -1.329   9.444  -5.165  0.00  0.00    +0.045 A 
ATOM     30  C   UNL     1      -2.081   9.591  -6.353  0.00  0.00    +0.041 A 
ATOM     31  C   UNL     1      -2.769   8.448  -6.523  0.00  0.00    +0.195 A 
ATOM     32  O   UNL     1      -2.471   7.619  -5.509  0.00  0.00    -0.468 OA
ENDBRANCH  14  28
TORSDOF 3
