REMARK  Name = ZINC11582553
REMARK  6 active torsions:
REMARK  status: ('A' for Active; 'I' for Inactive)
REMARK    1  A    between atoms: C_1  and  C_2
REMARK    2  A    between atoms: C_2  and  O_4
REMARK    3  A    between atoms: O_4  and  C_5
REMARK    4  A    between atoms: C_8  and  N_11
REMARK    5  A    between atoms: C_16  and  C_31
REMARK    6  A    between atoms: N_18  and  C_24
REMARK                            x       y       z     vdW  Elec       q    Type
REMARK                         _______ _______ _______ _____ _____    ______ ____
ROOT
ATOM      1  N   UNL     1      -0.797  -6.198   0.394  0.00  0.00    -0.208 N 
ATOM      2  C   UNL     1      -1.864  -7.000   0.296  0.00  0.00    +0.235 C 
ATOM      3  O   UNL     1      -3.006  -6.630   0.126  0.00  0.00    -0.274 OA
ATOM      4  C   UNL     1      -1.423  -8.439   0.429  0.00  0.00    +0.145 C 
ATOM      5  C   UNL     1      -1.965  -9.020   1.755  0.00  0.00    +0.157 C 
ATOM      6  N   UNL     1      -0.767  -9.667   2.343  0.00  0.00    -0.244 N 
ATOM      7  O   UNL     1       0.308  -8.780   2.034  0.00  0.00    -0.257 OA
ATOM      8  C   UNL     1       0.108  -8.326   0.663  0.00  0.00    +0.249 C 
ATOM      9  C   UNL     1       0.362  -6.837   0.587  0.00  0.00    +0.259 C 
ATOM     10  O   UNL     1       1.447  -6.304   0.688  0.00  0.00    -0.272 OA
ENDROOT
BRANCH   6  11
ATOM     11  C   UNL     1      -0.705 -10.876   3.042  0.00  0.00    +0.065 A 
ATOM     12  C   UNL     1      -1.859 -11.620   3.249  0.00  0.00    +0.029 A 
ATOM     13  C   UNL     1      -1.794 -12.814   3.941  0.00  0.00    +0.022 A 
ATOM     14  C   UNL     1      -0.581 -13.268   4.427  0.00  0.00    +0.041 A 
ATOM     15  C   UNL     1       0.571 -12.528   4.223  0.00  0.00    +0.022 A 
ATOM     16  C   UNL     1       0.513 -11.337   3.527  0.00  0.00    +0.029 A 
ATOM     17 CL   UNL     1      -0.503 -14.769   5.297  0.00  0.00    -0.084 Cl
ENDBRANCH   6  11
BRANCH   5  18
ATOM     18  C   UNL     1      -2.477  -7.921   2.651  0.00  0.00    -0.019 A 
ATOM     19  C   UNL     1      -1.601  -7.156   3.406  0.00  0.00    +0.023 A 
ATOM     20  C   UNL     1      -2.106  -6.156   4.216  0.00  0.00    +0.083 A 
ATOM     21  N   UNL     1      -3.404  -5.928   4.275  0.00  0.00    -0.367 N 
ATOM     22  C   UNL     1      -4.265  -6.635   3.571  0.00  0.00    +0.083 A 
ATOM     23  C   UNL     1      -3.833  -7.647   2.734  0.00  0.00    +0.023 A 
ATOM     24  H   UNL     1      -3.733  -5.221   4.852  0.00  0.00    +0.165 HD
ENDBRANCH   5  18
BRANCH   1  28
ATOM     25  C   UNL     1      -1.066  -2.045   0.106  0.00  0.00    +0.132 A 
ATOM     26  C   UNL     1      -1.332  -2.836  -1.003  0.00  0.00    +0.048 A 
ATOM     27  C   UNL     1      -1.243  -4.210  -0.908  0.00  0.00    +0.027 A 
ATOM     28  C   UNL     1      -0.887  -4.801   0.297  0.00  0.00    +0.044 A 
ATOM     29  C   UNL     1      -0.620  -4.009   1.406  0.00  0.00    +0.027 A 
ATOM     30  C   UNL     1      -0.705  -2.635   1.308  0.00  0.00    +0.048 A 
BRANCH  25  31
ATOM     31  O   UNL     1      -1.153  -0.691   0.012  0.00  0.00    -0.426 OA
BRANCH  31  33
ATOM     32  C   UNL     1      -2.522   1.364   0.034  0.00  0.00    +0.136 C 
ATOM     33  C   UNL     1      -2.375  -0.136   0.024  0.00  0.00    +0.309 C 
ATOM     34  O   UNL     1      -3.358  -0.839   0.026  0.00  0.00    -0.251 OA
ENDBRANCH  31  33
ENDBRANCH  25  31
ENDBRANCH   1  28
TORSDOF 5
