REMARK  Name = ZINC08836704
REMARK  10 active torsions:
REMARK  status: ('A' for Active; 'I' for Inactive)
REMARK    1  A    between atoms: C_1  and  C_2
REMARK    2  A    between atoms: C_2  and  C_3
REMARK    3  A    between atoms: C_2  and  O_4
REMARK    4  A    between atoms: O_4  and  C_5
REMARK    5  A    between atoms: C_5  and  C_6
REMARK    6  A    between atoms: C_6  and  C_7
REMARK    7  A    between atoms: C_7  and  N_8
REMARK    8  A    between atoms: C_9  and  C_11
REMARK    9  A    between atoms: N_22  and  C_25
REMARK   10  A    between atoms: C_23  and  N_24
REMARK                            x       y       z     vdW  Elec       q    Type
REMARK                         _______ _______ _______ _____ _____    ______ ____
ROOT
ATOM      1  C   UNL     1      -3.248   2.817   0.740  0.00  0.00    +0.104 A 
ATOM      2  C   UNL     1      -3.002   3.395  -0.592  0.00  0.00    +0.123 A 
ATOM      3  C   UNL     1      -1.692   2.883  -1.002  0.00  0.00    +0.166 A 
ATOM      4  N   UNL     1      -1.200   3.227  -2.173  0.00  0.00    -0.225 NA
ATOM      5  C   UNL     1      -1.893   4.048  -2.972  0.00  0.00    +0.092 A 
ATOM      6  C   UNL     1      -1.372   4.427  -4.223  0.00  0.00    +0.030 A 
ATOM      7  C   UNL     1      -2.084   5.261  -5.029  0.00  0.00    +0.002 A 
ATOM      8  C   UNL     1      -3.328   5.751  -4.634  0.00  0.00    +0.002 A 
ATOM      9  C   UNL     1      -3.864   5.408  -3.432  0.00  0.00    +0.030 A 
ATOM     10  C   UNL     1      -3.158   4.547  -2.571  0.00  0.00    +0.090 A 
ATOM     11  N   UNL     1      -3.676   4.202  -1.386  0.00  0.00    -0.241 NA
ATOM     12  N   UNL     1      -1.239   2.070   0.019  0.00  0.00    -0.280 N 
ATOM     13  C   UNL     1      -2.142   2.030   1.040  0.00  0.00    +0.117 A 
ENDROOT
BRANCH  12  14
ATOM     14  C   UNL     1      -0.017   1.385   0.010  0.00  0.00    +0.051 A 
ATOM     15  C   UNL     1       0.002  -0.004   0.002  0.00  0.00    +0.026 A 
ATOM     16  C   UNL     1       1.208  -0.677  -0.013  0.00  0.00    +0.003 A 
ATOM     17  C   UNL     1       2.396   0.030  -0.021  0.00  0.00    +0.015 A 
ATOM     18  C   UNL     1       2.381   1.413  -0.013  0.00  0.00    +0.020 A 
ATOM     19  C   UNL     1       1.177   2.092   0.002  0.00  0.00    +0.041 A 
ATOM     20 BR   UNL     1       4.009   2.376  -0.023  0.00  0.00    -0.050 Br
ENDBRANCH  12  14
BRANCH   1  22
ATOM     21  N   UNL     1      -5.486   2.206   1.473  0.00  0.00    -0.311 N 
ATOM     22  C   UNL     1      -4.424   3.029   1.580  0.00  0.00    +0.250 C 
ATOM     23  O   UNL     1      -4.445   3.948   2.378  0.00  0.00    -0.270 OA
ATOM     24  H   UNL     1      -5.470   1.473   0.837  0.00  0.00    +0.149 HD
BRANCH  21  25
ATOM     25  C   UNL     1      -6.665   2.417   2.316  0.00  0.00    +0.107 C 
BRANCH  25  26
ATOM     26  C   UNL     1      -7.718   1.354   1.997  0.00  0.00    +0.047 C 
BRANCH  26  27
ATOM     27  C   UNL     1      -8.950   1.575   2.878  0.00  0.00    +0.161 C 
BRANCH  27  28
ATOM     28  O   UNL     1      -9.933   0.582   2.580  0.00  0.00    -0.377 OA
BRANCH  28  30
ATOM     29  C   UNL     1     -12.123   1.603   2.619  0.00  0.00    +0.037 C 
ATOM     30  C   UNL     1     -11.130   0.699   3.352  0.00  0.00    +0.112 C 
ATOM     31  C   UNL     1     -11.749  -0.687   3.546  0.00  0.00    +0.037 C 
ENDBRANCH  28  30
ENDBRANCH  27  28
ENDBRANCH  26  27
ENDBRANCH  25  26
ENDBRANCH  21  25
ENDBRANCH   1  22
BRANCH  13  32
ATOM     32  N   UNL     1      -1.981   1.317   2.199  0.00  0.00    -0.343 N 
ATOM     33  H   UNL     1      -1.178   0.790   2.336  0.00  0.00    +0.144 HD
ATOM     34  H   UNL     1      -2.670   1.338   2.881  0.00  0.00    +0.144 HD
ENDBRANCH  13  32
TORSDOF 8
