REMARK  Name = ZINC08984734
REMARK  6 active torsions:
REMARK  status: ('A' for Active; 'I' for Inactive)
REMARK    1  A    between atoms: C_6  and  C_7
REMARK    2  A    between atoms: C_7  and  C_8
REMARK    3  A    between atoms: C_7  and  N_66
REMARK    4  A    between atoms: C_20  and  C_22
REMARK    5  A    between atoms: C_22  and  C_23
REMARK    6  A    between atoms: C_23  and  N_24
REMARK                            x       y       z     vdW  Elec       q    Type
REMARK                         _______ _______ _______ _____ _____    ______ ____
ROOT
ATOM      1  C   UNL     1      -1.286   0.464  -4.492  0.00  0.00    -0.058 C 
ATOM      2  C   UNL     1      -1.081   1.507  -3.389  0.00  0.00    +0.089 C 
ATOM      3  N   UNL     1      -0.597   0.821  -2.181  0.00  0.00    -0.305 N 
ATOM      4  C   UNL     1       0.563  -0.074  -2.307  0.00  0.00    +0.089 C 
ATOM      5  C   UNL     1       0.289  -1.060  -3.454  0.00  0.00    -0.058 C 
ATOM      6  C   UNL     1      -1.197   1.012  -0.990  0.00  0.00    +0.217 C 
ATOM      7  O   UNL     1      -2.150   1.758  -0.903  0.00  0.00    -0.276 OA
ATOM      8  N   UNL     1      -0.026  -0.288  -4.675  0.00  0.00    +0.389 N 
ATOM      9  H   UNL     1       0.736   0.377  -4.854  0.00  0.00    -0.080 HD
ENDROOT
BRANCH   8  10
ATOM     10  C   UNL     1      -0.147  -1.201  -5.831  0.00  0.00    -0.007 C 
BRANCH  10  16
ATOM     11  C   UNL     1       0.443   0.755  -7.277  0.00  0.00    +0.005 A 
ATOM     12  C   UNL     1       0.286   1.506  -8.427  0.00  0.00    +0.038 A 
ATOM     13  C   UNL     1      -0.645   1.128  -9.379  0.00  0.00    +0.123 A 
ATOM     14  C   UNL     1      -1.415  -0.006  -9.180  0.00  0.00    +0.038 A 
ATOM     15  C   UNL     1      -1.252  -0.759  -8.032  0.00  0.00    +0.005 A 
ATOM     16  C   UNL     1      -0.322  -0.380  -7.082  0.00  0.00    -0.057 A 
ATOM     17  F   UNL     1      -0.803   1.864 -10.501  0.00  0.00    -0.205 F 
ENDBRANCH  10  16
BRANCH  10  18
ATOM     18  C   UNL     1       1.113  -2.021  -5.941  0.00  0.00    -0.057 A 
ATOM     19  C   UNL     1       2.347  -1.414  -5.804  0.00  0.00    +0.005 A 
ATOM     20  C   UNL     1       3.502  -2.167  -5.900  0.00  0.00    +0.038 A 
ATOM     21  C   UNL     1       3.423  -3.527  -6.145  0.00  0.00    +0.123 A 
ATOM     22  C   UNL     1       2.186  -4.133  -6.288  0.00  0.00    +0.038 A 
ATOM     23  C   UNL     1       1.032  -3.380  -6.186  0.00  0.00    +0.005 A 
ATOM     24  F   UNL     1       4.552  -4.263  -6.244  0.00  0.00    -0.205 F 
ENDBRANCH  10  18
ENDBRANCH   8  10
BRANCH   6  25
ATOM     25  C   UNL     1      -0.685   0.299   0.235  0.00  0.00    +0.115 C 
BRANCH  25  26
ATOM     26  C   UNL     1      -1.537   0.688   1.445  0.00  0.00    +0.127 C 
BRANCH  26  27
ATOM     27  N   UNL     1      -1.039  -0.005   2.636  0.00  0.00    -0.224 N 
ATOM     28  C   UNL     1      -0.093   0.490   3.463  0.00  0.00    +0.247 C 
ATOM     29  O   UNL     1       0.485   1.552   3.367  0.00  0.00    -0.273 OA
ATOM     30  C   UNL     1       0.090  -0.558   4.530  0.00  0.00    +0.113 C 
ATOM     31  C   UNL     1      -0.229   0.008   5.920  0.00  0.00    +0.035 C 
ATOM     32  C   UNL     1       0.776  -0.710   6.858  0.00  0.00    +0.003 C 
ATOM     33  C   UNL     1       2.057  -0.794   5.990  0.00  0.00    +0.003 C 
ATOM     34  C   UNL     1       1.532  -1.071   4.564  0.00  0.00    +0.035 C 
ATOM     35  N   UNL     1      -0.847  -1.622   4.165  0.00  0.00    -0.285 N 
ATOM     36  C   UNL     1      -1.470  -1.206   3.043  0.00  0.00    +0.309 C 
ATOM     37  O   UNL     1      -2.323  -1.850   2.465  0.00  0.00    -0.252 OA
ATOM     38  H   UNL     1      -0.994  -2.456   4.637  0.00  0.00    +0.151 HD
ENDBRANCH  26  27
ENDBRANCH  25  26
ENDBRANCH   6  25
TORSDOF 6
