REMARK  Name = ZINC01501691
REMARK  5 active torsions:
REMARK  status: ('A' for Active; 'I' for Inactive)
REMARK    1  A    between atoms: C_1  and  O_2
REMARK    2  A    between atoms: O_2  and  C_3
REMARK    3  A    between atoms: C_6  and  N_13
REMARK    4  A    between atoms: C_14  and  C_15
REMARK    5  A    between atoms: C_20  and  O_21
REMARK                            x       y       z     vdW  Elec       q    Type
REMARK                         _______ _______ _______ _____ _____    ______ ____
ROOT
ATOM      1  C   UNL     1       3.551  -2.197  -0.278  0.00  0.00    +0.128 A 
ATOM      2  C   UNL     1       3.564  -0.824  -0.181  0.00  0.00    +0.048 A 
ATOM      3  C   UNL     1       2.390  -0.090  -0.088  0.00  0.00    +0.032 A 
ATOM      4  C   UNL     1       1.155  -0.727  -0.090  0.00  0.00    +0.072 A 
ATOM      5  C   UNL     1       1.113  -2.184  -0.187  0.00  0.00    +0.011 A 
ATOM      6  C   UNL     1       2.330  -2.901  -0.286  0.00  0.00    +0.026 A 
ATOM      7  C   UNL     1       2.296  -4.302  -0.384  0.00  0.00    +0.012 A 
ATOM      8  C   UNL     1       1.097  -4.948  -0.388  0.00  0.00    +0.001 A 
ATOM      9  C   UNL     1      -0.099  -4.240  -0.296  0.00  0.00    +0.001 A 
ATOM     10  C   UNL     1      -0.102  -2.881  -0.199  0.00  0.00    +0.011 A 
ENDROOT
BRANCH   1  12
ATOM     11  C   UNL     1       5.925  -2.105  -0.354  0.00  0.00    +0.277 C 
ATOM     12  O   UNL     1       4.723  -2.877  -0.367  0.00  0.00    -0.495 OA
ENDBRANCH   1  12
BRANCH   4  13
ATOM     13  N   UNL     1       0.002  -0.004   0.002  0.00  0.00    -0.254 NA
ATOM     14  C   UNL     1      -0.176   1.041  -0.759  0.00  0.00    +0.123 C 
BRANCH  14  15
ATOM     15  C   UNL     1      -1.368   1.883  -0.585  0.00  0.00    +0.036 A 
ATOM     16  C   UNL     1      -1.560   3.007  -1.395  0.00  0.00    +0.028 A 
ATOM     17  C   UNL     1      -2.683   3.790  -1.228  0.00  0.00    +0.019 A 
ATOM     18  C   UNL     1      -3.618   3.473  -0.255  0.00  0.00    +0.019 A 
ATOM     19  C   UNL     1      -3.438   2.368   0.554  0.00  0.00    +0.047 A 
ATOM     20  C   UNL     1      -2.318   1.567   0.399  0.00  0.00    +0.125 A 
ATOM     21 BR   UNL     1      -2.946   5.306  -2.328  0.00  0.00    -0.050 Br
BRANCH  20  22
ATOM     22  O   UNL     1      -2.140   0.481   1.194  0.00  0.00    -0.506 OA
ATOM     23  H   UNL     1      -1.651   0.665   2.007  0.00  0.00    +0.292 HD
ENDBRANCH  20  22
ENDBRANCH  14  15
ENDBRANCH   4  13
TORSDOF 4
