REMARK  Name = ZINC22864339
REMARK  12 active torsions:
REMARK  status: ('A' for Active; 'I' for Inactive)
REMARK    1  A    between atoms: C_1  and  C_2
REMARK    2  A    between atoms: C_11  and  N_32
REMARK    3  A    between atoms: C_13  and  S_15
REMARK    4  A    between atoms: S_15  and  C_16
REMARK    5  A    between atoms: C_16  and  C_17
REMARK    6  A    between atoms: N_19  and  C_20
REMARK    7  A    between atoms: C_22  and  O_30
REMARK    8  A    between atoms: C_23  and  O_28
REMARK    9  A    between atoms: C_24  and  O_26
REMARK   10  A    between atoms: O_26  and  C_27
REMARK   11  A    between atoms: O_28  and  C_29
REMARK   12  A    between atoms: O_30  and  C_31
REMARK                            x       y       z     vdW  Elec       q    Type
REMARK                         _______ _______ _______ _____ _____    ______ ____
ROOT
ATOM      1  S   UNL     1      -0.510  -0.460  -0.331  0.00  0.00    -0.077 S 
ENDROOT
BRANCH   1  13
ATOM      2  C   UNL     1       6.873  -1.283  -7.368  0.00  0.00    +0.008 C 
ATOM      3  C   UNL     1       5.993  -0.928  -6.167  0.00  0.00    -0.009 C 
ATOM      4  C   UNL     1       4.924   0.083  -6.594  0.00  0.00    +0.008 C 
ATOM      5  C   UNL     1       4.203   0.627  -5.361  0.00  0.00    +0.037 C 
ATOM      6  C   UNL     1       3.703  -0.547  -4.524  0.00  0.00    -0.025 A 
ATOM      7  C   UNL     1       4.220  -1.780  -4.690  0.00  0.00    -0.004 A 
ATOM      8  S   UNL     1       3.353  -2.805  -3.531  0.00  0.00    -0.073 S 
ATOM      9  C   UNL     1       2.294  -1.571  -2.822  0.00  0.00    +0.115 A 
ATOM     10  C   UNL     1       2.651  -0.397  -3.515  0.00  0.00    +0.051 A 
ATOM     11  C   UNL     1       1.941   0.778  -3.140  0.00  0.00    +0.129 A 
ATOM     12  N   UNL     1       1.015   0.700  -2.199  0.00  0.00    -0.207 NA
ATOM     13  C   UNL     1       0.732  -0.440  -1.581  0.00  0.00    +0.191 A 
ATOM     14  N   UNL     1       1.362  -1.566  -1.890  0.00  0.00    -0.214 NA
ATOM     15  C   UNL     1       5.295  -2.193  -5.648  0.00  0.00    +0.046 C 
BRANCH  11  16
ATOM     16  N   UNL     1       2.212   1.986  -3.756  0.00  0.00    -0.343 N 
ATOM     17  H   UNL     1       1.659   2.890  -3.461  0.00  0.00    +0.144 HD
ATOM     18  H   UNL     1       2.980   2.042  -4.542  0.00  0.00    +0.144 HD
ENDBRANCH  11  16
ENDBRANCH   1  13
BRANCH   1  19
ATOM     19  C   UNL     1      -0.996   1.283  -0.343  0.00  0.00    +0.173 C 
BRANCH  19  20
ATOM     20  C   UNL     1      -2.081   1.510   0.679  0.00  0.00    +0.227 C 
ATOM     21  O   UNL     1      -2.486   0.583   1.349  0.00  0.00    -0.275 OA
ATOM     22  N   UNL     1      -2.601   2.741   0.848  0.00  0.00    -0.285 N 
ATOM     23  H   UNL     1      -2.298   3.563   0.182  0.00  0.00    +0.155 HD
BRANCH  22  24
ATOM     24  C   UNL     1      -3.529   2.975   1.871  0.00  0.00    +0.041 A 
ATOM     25  C   UNL     1      -4.541   3.909   1.690  0.00  0.00    +0.073 A 
ATOM     26  C   UNL     1      -5.462   4.138   2.699  0.00  0.00    +0.167 A 
ATOM     27  C   UNL     1      -5.366   3.440   3.898  0.00  0.00    +0.204 A 
ATOM     28  C   UNL     1      -4.350   2.510   4.080  0.00  0.00    +0.167 A 
ATOM     29  C   UNL     1      -3.433   2.278   3.067  0.00  0.00    +0.073 A 
BRANCH  28  30
ATOM     30  O   UNL     1      -4.255   1.827   5.253  0.00  0.00    -0.491 OA
ATOM     31  C   UNL     1      -3.186   0.887   5.371  0.00  0.00    +0.277 C 
ENDBRANCH  28  30
BRANCH  27  32
ATOM     32  O   UNL     1      -6.268   3.668   4.892  0.00  0.00    -0.488 OA
ATOM     33  C   UNL     1      -5.946   4.690   5.838  0.00  0.00    +0.277 C 
ENDBRANCH  27  32
BRANCH  26  34
ATOM     34  O   UNL     1      -6.456   5.048   2.520  0.00  0.00    -0.491 OA
ATOM     35  C   UNL     1      -6.494   5.728   1.264  0.00  0.00    +0.277 C 
ENDBRANCH  26  34
ENDBRANCH  22  24
ENDBRANCH  19  20
ENDBRANCH   1  19
TORSDOF 8
