REMARK  Name = ZINC35744166
REMARK  15 active torsions:
REMARK  status: ('A' for Active; 'I' for Inactive)
REMARK    1  A    between atoms: C_1  and  C_2
REMARK    2  A    between atoms: C_2  and  C_3
REMARK    3  A    between atoms: C_3  and  N_4
REMARK    4  A    between atoms: N_4  and  C_5
REMARK    5  A    between atoms: N_4  and  C_16
REMARK    6  A    between atoms: C_5  and  C_6
REMARK    7  A    between atoms: C_9  and  O_14
REMARK    8  A    between atoms: C_10  and  O_12
REMARK    9  A    between atoms: O_12  and  C_13
REMARK   10  A    between atoms: O_14  and  C_15
REMARK   11  A    between atoms: C_16  and  C_17
REMARK   12  A    between atoms: C_20  and  C_22
REMARK   13  A    between atoms: C_22  and  C_23
REMARK   14  A    between atoms: C_22  and  C_30
REMARK   15  A    between atoms: C_22  and  O_37
REMARK                            x       y       z     vdW  Elec       q    Type
REMARK                         _______ _______ _______ _____ _____    ______ ____
ROOT
ATOM      1  C   UNL     1      -0.745  -2.271   4.184  0.00  0.00    +0.089 A 
ATOM      2  C   UNL     1      -1.798  -2.663   4.924  0.00  0.00    +0.043 A 
ATOM      3  C   UNL     1      -2.042  -1.638   5.866  0.00  0.00    +0.048 A 
ATOM      4  C   UNL     1      -1.124  -0.679   5.646  0.00  0.00    +0.146 A 
ATOM      5  O   UNL     1      -0.338  -1.071   4.630  0.00  0.00    -0.463 OA
ENDROOT
BRANCH   1   6
ATOM      6  C   UNL     1      -0.125  -3.048   3.052  0.00  0.00    -0.003 C 
BRANCH   6   7
ATOM      7  N   UNL     1      -0.777  -2.678   1.789  0.00  0.00    +0.387 N 
ATOM      8  H   UNL     1      -1.774  -2.816   1.873  0.00  0.00    -0.081 HD
BRANCH   7   9
ATOM      9  C   UNL     1      -0.501  -1.267   1.489  0.00  0.00    -0.078 C 
BRANCH   9  11
ATOM     10  C   UNL     1      -1.122   0.660   0.025  0.00  0.00    +0.002 C 
ATOM     11  C   UNL     1      -1.298  -0.842   0.254  0.00  0.00    -0.022 C 
ENDBRANCH   9  11
ENDBRANCH   7   9
BRANCH   7  12
ATOM     12  C   UNL     1      -0.257  -3.521   0.704  0.00  0.00    -0.042 C 
BRANCH  12  13
ATOM     13  C   UNL     1      -0.660  -4.953   0.942  0.00  0.00    -0.060 A 
ATOM     14  C   UNL     1       0.217  -5.822   1.564  0.00  0.00    +0.005 A 
ATOM     15  C   UNL     1      -0.148  -7.137   1.785  0.00  0.00    +0.049 A 
ATOM     16  C   UNL     1      -1.395  -7.587   1.383  0.00  0.00    +0.161 A 
ATOM     17  C   UNL     1      -2.278  -6.712   0.758  0.00  0.00    +0.162 A 
ATOM     18  C   UNL     1      -1.908  -5.394   0.544  0.00  0.00    +0.051 A 
BRANCH  17  19
ATOM     19  O   UNL     1      -3.504  -7.148   0.361  0.00  0.00    -0.491 OA
ATOM     20  C   UNL     1      -4.358  -6.195  -0.274  0.00  0.00    +0.277 C 
ENDBRANCH  17  19
BRANCH  16  21
ATOM     21  O   UNL     1      -1.756  -8.880   1.599  0.00  0.00    -0.491 OA
ATOM     22  C   UNL     1      -0.799  -9.721   2.246  0.00  0.00    +0.277 C 
ENDBRANCH  16  21
ENDBRANCH  12  13
ENDBRANCH   7  12
ENDBRANCH   6   7
ENDBRANCH   1   6
BRANCH   4  23
ATOM     23  C   UNL     1      -0.997   0.612   6.412  0.00  0.00    +0.174 C 
BRANCH  23  24
ATOM     24  C   UNL     1       0.446   1.047   6.427  0.00  0.00    -0.002 A 
ATOM     25  C   UNL     1       1.147   1.076   7.618  0.00  0.00    +0.007 A 
ATOM     26  C   UNL     1       2.470   1.475   7.633  0.00  0.00    +0.003 A 
ATOM     27  C   UNL     1       3.094   1.845   6.457  0.00  0.00    +0.038 A 
ATOM     28  C   UNL     1       2.394   1.816   5.263  0.00  0.00    +0.124 A 
ATOM     29  C   UNL     1       1.070   1.410   5.248  0.00  0.00    +0.045 A 
ATOM     30  F   UNL     1       3.002   2.178   4.113  0.00  0.00    -0.205 F 
ENDBRANCH  23  24
BRANCH  23  31
ATOM     31  C   UNL     1      -1.835   1.674   5.750  0.00  0.00    -0.002 A 
ATOM     32  C   UNL     1      -1.870   1.767   4.370  0.00  0.00    +0.007 A 
ATOM     33  C   UNL     1      -2.639   2.741   3.761  0.00  0.00    +0.003 A 
ATOM     34  C   UNL     1      -3.373   3.624   4.531  0.00  0.00    +0.038 A 
ATOM     35  C   UNL     1      -3.338   3.533   5.912  0.00  0.00    +0.124 A 
ATOM     36  C   UNL     1      -2.573   2.552   6.521  0.00  0.00    +0.045 A 
ATOM     37  F   UNL     1      -4.055   4.396   6.664  0.00  0.00    -0.205 F 
ENDBRANCH  23  31
BRANCH  23  38
ATOM     38  O   UNL     1      -1.449   0.416   7.754  0.00  0.00    -0.372 OA
ATOM     39  H   UNL     1      -0.953  -0.256   8.242  0.00  0.00    +0.212 HD
ENDBRANCH  23  38
ENDBRANCH   4  23
TORSDOF 12
