REMARK  Name = ZINC17273323
REMARK  9 active torsions:
REMARK  status: ('A' for Active; 'I' for Inactive)
REMARK    1  A    between atoms: C_1  and  C_2
REMARK    2  A    between atoms: C_2  and  C_4
REMARK    3  A    between atoms: C_2  and  S_17
REMARK    4  A    between atoms: N_6  and  C_7
REMARK    5  A    between atoms: C_11  and  N_13
REMARK    6  A    between atoms: S_17  and  C_18
REMARK    7  A    between atoms: C_21  and  C_26
REMARK    8  A    between atoms: N_22  and  C_23
REMARK    9  A    between atoms: C_26  and  C_27
REMARK                            x       y       z     vdW  Elec       q    Type
REMARK                         _______ _______ _______ _____ _____    ______ ____
ROOT
ATOM      1  C   UNL     1       2.566  -5.009  -5.392  0.00  0.00    +0.029 C 
ATOM      2  C   UNL     1       1.580  -3.935  -5.856  0.00  0.00    +0.137 C 
ENDROOT
BRANCH   2   3
ATOM      3  C   UNL     1       1.045  -4.298  -7.217  0.00  0.00    +0.230 C 
ATOM      4  O   UNL     1      -0.048  -4.813  -7.321  0.00  0.00    -0.274 OA
ATOM      5  N   UNL     1       1.781  -4.051  -8.319  0.00  0.00    -0.285 N 
ATOM      6  H   UNL     1       2.624  -3.578  -8.242  0.00  0.00    +0.155 HD
BRANCH   5   7
ATOM      7  C   UNL     1       1.327  -4.475  -9.574  0.00  0.00    +0.036 A 
ATOM      8  C   UNL     1       2.236  -4.904 -10.533  0.00  0.00    +0.026 A 
ATOM      9  C   UNL     1       1.786  -5.328 -11.768  0.00  0.00    +0.042 A 
ATOM     10  C   UNL     1       0.431  -5.314 -12.054  0.00  0.00    +0.154 A 
ATOM     11  C   UNL     1      -0.476  -4.882 -11.101  0.00  0.00    +0.163 A 
ATOM     12  C   UNL     1      -0.030  -4.463  -9.863  0.00  0.00    +0.059 A 
ATOM     13  F   UNL     1      -0.006  -5.724 -13.265  0.00  0.00    -0.203 F 
BRANCH  11  14
ATOM     14  N   UNL     1      -1.923  -4.870 -11.410  0.00  0.00    +0.059 N 
ATOM     15  O   UNL     1      -2.721  -4.490 -10.572  0.00  0.00    -0.126 OA
ATOM     16  O   UNL     1      -2.316  -5.239 -12.502  0.00  0.00    -0.126 OA
ENDBRANCH  11  14
ENDBRANCH   5   7
ENDBRANCH   2   3
BRANCH   2  17
ATOM     17  S   UNL     1       0.210  -3.825  -4.679  0.00  0.00    -0.074 S 
BRANCH  17  18
ATOM     18  C   UNL     1       1.075  -3.255  -3.254  0.00  0.00    +0.193 A 
ATOM     19  N   UNL     1       2.362  -3.007  -3.169  0.00  0.00    -0.122 NA
ATOM     20  N   UNL     1       2.653  -2.607  -1.983  0.00  0.00    -0.133 NA
ATOM     21  C   UNL     1       1.579  -2.575  -1.246  0.00  0.00    +0.139 A 
ATOM     22  N   UNL     1       0.536  -2.991  -2.027  0.00  0.00    -0.303 N 
BRANCH  22  23
ATOM     23  C   UNL     1      -0.868  -3.124  -1.632  0.00  0.00    +0.091 C 
ATOM     24  C   UNL     1      -1.778  -3.966  -2.528  0.00  0.00    +0.027 C 
ATOM     25  C   UNL     1      -1.917  -2.442  -2.512  0.00  0.00    +0.027 C 
ENDBRANCH  22  23
BRANCH  21  26
ATOM     26  C   UNL     1       1.500  -2.162   0.201  0.00  0.00    +0.118 C 
BRANCH  26  27
ATOM     27  C   UNL     1       1.242  -0.680   0.287  0.00  0.00    -0.003 A 
ATOM     28  C   UNL     1       0.059  -0.021   0.332  0.00  0.00    +0.011 A 
ATOM     29  C   UNL     1       0.062   1.359   0.411  0.00  0.00    +0.008 A 
ATOM     30  C   UNL     1       1.250   2.013   0.442  0.00  0.00    +0.045 A 
ATOM     31  S   UNL     1       2.416   0.663   0.358  0.00  0.00    -0.101 S 
ENDBRANCH  26  27
ENDBRANCH  21  26
ENDBRANCH  17  18
ENDBRANCH   2  17
TORSDOF 8
