REMARK  Name = ZINC06551175
REMARK  7 active torsions:
REMARK  status: ('A' for Active; 'I' for Inactive)
REMARK    1  A    between atoms: C_1  and  C_2
REMARK    2  A    between atoms: N_14  and  C_15
REMARK    3  A    between atoms: C_15  and  C_17
REMARK    4  A    between atoms: C_15  and  C_18
REMARK    5  A    between atoms: C_18  and  C_19
REMARK    6  A    between atoms: C_19  and  C_20
REMARK    7  A    between atoms: C_20  and  C_21
REMARK                            x       y       z     vdW  Elec       q    Type
REMARK                         _______ _______ _______ _____ _____    ______ ____
ROOT
ATOM      1  C   UNL     1      -0.759   1.596  -1.227  0.00  0.00    +0.008 C 
ATOM      2  C   UNL     1      -0.013   1.086   0.008  0.00  0.00    -0.009 C 
ATOM      3  C   UNL     1       1.423   1.619  -0.003  0.00  0.00    +0.010 C 
ATOM      4  C   UNL     1       2.250   0.924   1.080  0.00  0.00    +0.056 C 
ATOM      5  C   UNL     1       1.518   1.048   2.412  0.00  0.00    +0.054 A 
ATOM      6  C   UNL     1       0.194   1.347   2.439  0.00  0.00    +0.015 A 
ATOM      7  S   UNL     1      -0.163   1.375   4.175  0.00  0.00    -0.057 S 
ATOM      8  C   UNL     1       1.441   0.997   4.728  0.00  0.00    +0.166 A 
ATOM      9  N   UNL     1       2.103   0.881   3.595  0.00  0.00    -0.229 NA
ATOM     10  N   UNL     1       1.906   0.853   6.030  0.00  0.00    -0.248 N 
ATOM     11  C   UNL     1       3.200   0.554   6.255  0.00  0.00    +0.306 C 
ATOM     12  O   UNL     1       3.962   0.409   5.318  0.00  0.00    -0.252 OA
ATOM     13  N   UNL     1       3.651   0.415   7.517  0.00  0.00    -0.297 N 
ATOM     14  C   UNL     1      -0.715   1.585   1.281  0.00  0.00    +0.047 C 
ATOM     15  H   UNL     1       1.298   0.968   6.777  0.00  0.00    +0.158 HD
ATOM     16  H   UNL     1       3.043   0.530   8.264  0.00  0.00    +0.151 HD
ENDROOT
BRANCH  13  17
ATOM     17  C   UNL     1       5.058   0.089   7.761  0.00  0.00    +0.071 C 
ATOM     18  C   UNL     1       5.886   1.376   7.764  0.00  0.00    +0.028 C 
BRANCH  17  19
ATOM     19  C   UNL     1       5.193  -0.607   9.117  0.00  0.00    +0.022 C 
BRANCH  19  20
ATOM     20  C   UNL     1       4.468  -1.953   9.074  0.00  0.00    +0.006 C 
BRANCH  20  21
ATOM     21  C   UNL     1       4.603  -2.649  10.430  0.00  0.00    +0.035 C 
BRANCH  21  22
ATOM     22  C   UNL     1       3.889  -3.975  10.387  0.00  0.00    -0.047 A 
ATOM     23  C   UNL     1       2.556  -4.055  10.745  0.00  0.00    +0.003 A 
ATOM     24  C   UNL     1       1.900  -5.271  10.701  0.00  0.00    +0.000 A 
ATOM     25  C   UNL     1       2.579  -6.409  10.309  0.00  0.00    +0.000 A 
ATOM     26  C   UNL     1       3.913  -6.330   9.956  0.00  0.00    +0.000 A 
ATOM     27  C   UNL     1       4.568  -5.114   9.995  0.00  0.00    +0.003 A 
ENDBRANCH  21  22
ENDBRANCH  20  21
ENDBRANCH  19  20
ENDBRANCH  17  19
ENDBRANCH  13  17
TORSDOF 5
