REMARK  Name = ZINC61700352
REMARK  7 active torsions:
REMARK  status: ('A' for Active; 'I' for Inactive)
REMARK    1  A    between atoms: C_1  and  C_2
REMARK    2  A    between atoms: C_5  and  S_8
REMARK    3  A    between atoms: S_8  and  C_9
REMARK    4  A    between atoms: C_12  and  C_16
REMARK    5  A    between atoms: C_16  and  C_18
REMARK    6  A    between atoms: C_16  and  N_19
REMARK    7  A    between atoms: N_19  and  C_20
REMARK                            x       y       z     vdW  Elec       q    Type
REMARK                         _______ _______ _______ _____ _____    ______ ____
ROOT
ATOM      1  C   UNL     1      -5.104   2.511  -1.732  0.00  0.00    +0.030 A 
ATOM      2  C   UNL     1      -4.647   2.153  -0.469  0.00  0.00    +0.016 A 
ATOM      3  C   UNL     1      -5.543   2.011   0.573  0.00  0.00    +0.003 A 
ATOM      4  C   UNL     1      -6.893   2.226   0.361  0.00  0.00    -0.061 A 
ATOM      5  C   UNL     1      -7.351   2.583  -0.894  0.00  0.00    +0.018 A 
ATOM      6  C   UNL     1      -6.460   2.732  -1.940  0.00  0.00    +0.032 A 
ATOM      7 BR   UNL     1      -7.086   3.228  -3.654  0.00  0.00    -0.049 Br
ENDROOT
BRANCH   4   8
ATOM      8  C   UNL     1      -7.867   2.070   1.500  0.00  0.00    -0.044 C 
ATOM      9  C   UNL     1      -8.552   0.706   1.402  0.00  0.00    -0.009 C 
BRANCH   8  10
ATOM     10  N   UNL     1      -8.879   3.133   1.428  0.00  0.00    +0.382 N 
ATOM     11  C   UNL     1      -9.756   3.054   2.603  0.00  0.00    -0.100 C 
ATOM     12  H   UNL     1      -8.421   4.032   1.410  0.00  0.00    -0.085 HD
ATOM     13  H   UNL     1      -9.428   3.018   0.590  0.00  0.00    -0.085 HD
ENDBRANCH   8  10
ENDBRANCH   4   8
BRANCH   1  14
ATOM     14  S   UNL     1      -3.964   2.693  -3.063  0.00  0.00    -0.049 S 
BRANCH  14  19
ATOM     15  C   UNL     1      -5.639  -2.023  -4.671  0.00  0.00    +0.090 C 
ATOM     16  C   UNL     1      -4.896  -0.712  -4.668  0.00  0.00    +0.149 A 
ATOM     17  N   UNL     1      -4.967   0.215  -3.712  0.00  0.00    -0.206 NA
ATOM     18  H   UNL     1      -2.983   1.524  -5.692  0.00  0.00    +0.191 HD
ATOM     19  C   UNL     1      -4.193   1.233  -4.023  0.00  0.00    +0.189 A 
ATOM     20  N   UNL     1      -3.606   0.960  -5.208  0.00  0.00    -0.253 N 
ATOM     21  N   UNL     1      -4.075  -0.305  -5.599  0.00  0.00    -0.157 NA
ENDBRANCH  14  19
ENDBRANCH   1  14
TORSDOF 4
