REMARK  Name = ZINC14157357
REMARK  7 active torsions:
REMARK  status: ('A' for Active; 'I' for Inactive)
REMARK    1  A    between atoms: C_1  and  O_2
REMARK    2  A    between atoms: O_2  and  C_3
REMARK    3  A    between atoms: C_6  and  C_9
REMARK    4  A    between atoms: C_9  and  C_11
REMARK    5  A    between atoms: C_9  and  N_17
REMARK    6  A    between atoms: C_18  and  C_20
REMARK    7  A    between atoms: C_20  and  N_21
REMARK                            x       y       z     vdW  Elec       q    Type
REMARK                         _______ _______ _______ _____ _____    ______ ____
ROOT
ATOM      1  N   UNL     1       1.858   5.093   1.678  0.00  0.00    -0.303 N 
ATOM      2  C   UNL     1       1.603   3.794   1.427  0.00  0.00    +0.232 C 
ATOM      3  O   UNL     1       1.462   3.015   2.347  0.00  0.00    -0.274 OA
ATOM      4  H   UNL     1       1.971   5.716   0.943  0.00  0.00    +0.150 HD
ENDROOT
BRANCH   1   5
ATOM      5  C   UNL     1       1.965   5.566   3.060  0.00  0.00    +0.134 C 
BRANCH   5   9
ATOM      6  C   UNL     1       1.042   9.735   3.216  0.00  0.00    +0.120 A 
ATOM      7  C   UNL     1       0.589   8.885   4.215  0.00  0.00    +0.046 A 
ATOM      8  C   UNL     1       0.889   7.538   4.162  0.00  0.00    +0.009 A 
ATOM      9  C   UNL     1       1.639   7.036   3.115  0.00  0.00    -0.023 A 
ATOM     10  C   UNL     1       2.097   7.882   2.122  0.00  0.00    +0.009 A 
ATOM     11  C   UNL     1       1.795   9.229   2.167  0.00  0.00    +0.046 A 
BRANCH   6  13
ATOM     12  C   UNL     1       1.247  11.876   2.204  0.00  0.00    +0.277 C 
ATOM     13  O   UNL     1       0.748  11.061   3.266  0.00  0.00    -0.495 OA
ENDBRANCH   6  13
ENDBRANCH   5   9
BRANCH   5  14
ATOM     14  C   UNL     1       3.369   5.343   3.560  0.00  0.00    -0.023 A 
ATOM     15  C   UNL     1       4.445   5.572   2.724  0.00  0.00    +0.006 A 
ATOM     16  C   UNL     1       5.733   5.373   3.184  0.00  0.00    +0.000 A 
ATOM     17  C   UNL     1       5.945   4.934   4.478  0.00  0.00    +0.000 A 
ATOM     18  C   UNL     1       4.869   4.700   5.313  0.00  0.00    +0.000 A 
ATOM     19  C   UNL     1       3.580   4.904   4.854  0.00  0.00    +0.006 A 
ENDBRANCH   5  14
ENDBRANCH   1   5
BRANCH   2  20
ATOM     20  C   UNL     1       1.493   3.308   0.005  0.00  0.00    +0.213 C 
BRANCH  20  21
ATOM     21  N   UNL     1       1.214   1.870   0.001  0.00  0.00    -0.215 N 
ATOM     22  C   UNL     1       2.165   0.913  -0.013  0.00  0.00    +0.251 C 
ATOM     23  O   UNL     1       3.366   1.073  -0.024  0.00  0.00    -0.272 OA
ATOM     24  C   UNL     1       1.417  -0.402  -0.013  0.00  0.00    +0.138 C 
ATOM     25  C   UNL     1       1.734  -1.190  -1.278  0.00  0.00    +0.040 C 
ATOM     26  C   UNL     1       1.113  -2.587  -1.149  0.00  0.00    +0.008 C 
ATOM     27  C   UNL     1       1.874  -3.355  -0.070  0.00  0.00    +0.035 C 
ATOM     28  C   UNL     1       1.955  -2.550   1.200  0.00  0.00    -0.042 A 
ATOM     29  C   UNL     1       1.750  -1.187   1.224  0.00  0.00    -0.012 A 
ATOM     30  C   UNL     1       1.850  -0.499   2.426  0.00  0.00    +0.006 A 
ATOM     31  C   UNL     1       2.149  -1.169   3.595  0.00  0.00    +0.000 A 
ATOM     32  C   UNL     1       2.351  -2.536   3.570  0.00  0.00    +0.000 A 
ATOM     33  C   UNL     1       2.254  -3.222   2.377  0.00  0.00    +0.004 A 
ATOM     34  N   UNL     1       0.002  -0.004   0.002  0.00  0.00    -0.281 N 
ATOM     35  C   UNL     1      -0.016   1.342   0.009  0.00  0.00    +0.310 C 
ATOM     36  O   UNL     1      -1.035   2.004   0.018  0.00  0.00    -0.252 OA
ATOM     37  H   UNL     1      -0.767  -0.595   0.006  0.00  0.00    +0.152 HD
ENDBRANCH  20  21
ENDBRANCH   2  20
TORSDOF 6
