REMARK  Name = ZINC12342299
REMARK  6 active torsions:
REMARK  status: ('A' for Active; 'I' for Inactive)
REMARK    1  A    between atoms: C_4  and  C_7
REMARK    2  A    between atoms: C_10  and  C_26
REMARK    3  A    between atoms: N_12  and  C_13
REMARK    4  A    between atoms: C_13  and  C_15
REMARK    5  A    between atoms: C_13  and  C_17
REMARK    6  A    between atoms: C_21  and  N_23
REMARK                            x       y       z     vdW  Elec       q    Type
REMARK                         _______ _______ _______ _____ _____    ______ ____
ROOT
ATOM      1  C   UNL     1      -0.811   1.622  -1.197  0.00  0.00    +0.130 C 
ATOM      2  C   UNL     1      -0.013   1.086   0.008  0.00  0.00    +0.086 C 
ATOM      3  C   UNL     1      -0.773   1.599   1.210  0.00  0.00    +0.068 C 
ATOM      4  N   UNL     1      -1.792   2.283   0.811  0.00  0.00    -0.186 NA
ATOM      5  N   UNL     1      -1.917   2.367  -0.574  0.00  0.00    -0.226 N 
ENDROOT
BRANCH   1   9
ATOM      6  C   UNL     1       1.610   4.228  -3.563  0.00  0.00    +0.000 A 
ATOM      7  C   UNL     1       1.392   2.926  -3.972  0.00  0.00    +0.000 A 
ATOM      8  C   UNL     1       0.609   2.083  -3.207  0.00  0.00    +0.005 A 
ATOM      9  C   UNL     1       0.043   2.542  -2.032  0.00  0.00    -0.025 A 
ATOM     10  C   UNL     1       0.257   3.846  -1.625  0.00  0.00    +0.005 A 
ATOM     11  C   UNL     1       1.043   4.688  -2.389  0.00  0.00    +0.000 A 
ENDBRANCH   1   9
BRANCH   3  12
ATOM     12  C   UNL     1      -0.405   1.355   2.617  0.00  0.00    -0.002 A 
ATOM     13  C   UNL     1       0.723   0.590   2.925  0.00  0.00    +0.010 A 
ATOM     14  C   UNL     1       1.064   0.370   4.244  0.00  0.00    +0.001 A 
ATOM     15  C   UNL     1       0.285   0.895   5.260  0.00  0.00    +0.000 A 
ATOM     16  C   UNL     1      -0.837   1.649   4.962  0.00  0.00    +0.001 A 
ATOM     17  C   UNL     1      -1.186   1.882   3.648  0.00  0.00    +0.010 A 
ENDBRANCH   3  12
BRANCH   5  18
ATOM     18  C   UNL     1      -2.976   3.080  -1.293  0.00  0.00    +0.225 C 
BRANCH  18  19
ATOM     19  C   UNL     1      -4.315   2.498  -0.921  0.00  0.00    -0.010 A 
ATOM     20  C   UNL     1      -4.569   2.129   0.387  0.00  0.00    +0.006 A 
ATOM     21  C   UNL     1      -5.800   1.599   0.729  0.00  0.00    +0.003 A 
ATOM     22  C   UNL     1      -6.772   1.430  -0.239  0.00  0.00    +0.033 A 
ATOM     23  C   UNL     1      -6.516   1.794  -1.548  0.00  0.00    +0.127 A 
ATOM     24  C   UNL     1      -5.287   2.328  -1.889  0.00  0.00    +0.039 A 
BRANCH  23  25
ATOM     25  N   UNL     1      -7.558   1.612  -2.584  0.00  0.00    +0.056 N 
ATOM     26  O   UNL     1      -7.332   1.933  -3.737  0.00  0.00    -0.126 OA
ATOM     27  O   UNL     1      -8.640   1.141  -2.283  0.00  0.00    -0.126 OA
ENDBRANCH  23  25
ENDBRANCH  18  19
BRANCH  18  28
ATOM     28  C   UNL     1      -2.942   4.505  -0.929  0.00  0.00    +0.091 C 
ATOM     29  N   UNL     1      -2.916   5.606  -0.648  0.00  0.00    -0.194 NA
ENDBRANCH  18  28
ENDBRANCH   5  18
TORSDOF 6
