REMARK  Name = ZINC38610801
REMARK  12 active torsions:
REMARK  status: ('A' for Active; 'I' for Inactive)
REMARK    1  A    between atoms: C_1  and  C_2
REMARK    2  A    between atoms: C_2  and  O_3
REMARK    3  A    between atoms: O_3  and  C_4
REMARK    4  A    between atoms: C_4  and  C_6
REMARK    5  A    between atoms: C_8  and  N_18
REMARK    6  A    between atoms: C_11  and  O_16
REMARK    7  A    between atoms: O_16  and  C_17
REMARK    8  A    between atoms: C_19  and  C_21
REMARK    9  A    between atoms: C_21  and  C_22
REMARK   10  A    between atoms: C_22  and  N_23
REMARK   11  A    between atoms: C_27  and  C_29
REMARK   12  A    between atoms: C_27  and  C_30
REMARK                            x       y       z     vdW  Elec       q    Type
REMARK                         _______ _______ _______ _____ _____    ______ ____
ROOT
ATOM      1  C   UNL     1      -3.905  -3.832  -1.633  0.00  0.00    +0.234 C 
ATOM      2  C   UNL     1      -3.428  -2.403  -1.508  0.00  0.00    +0.053 C 
ATOM      3  C   UNL     1      -2.711  -2.348  -0.326  0.00  0.00    +0.021 A 
ATOM      4  C   UNL     1      -2.025  -1.294   0.327  0.00  0.00    +0.057 A 
ATOM      5  C   UNL     1      -1.391  -1.533   1.505  0.00  0.00    +0.121 A 
ATOM      6  C   UNL     1      -1.398  -2.803   2.097  0.00  0.00    +0.047 A 
ATOM      7  C   UNL     1      -2.034  -3.854   1.526  0.00  0.00    +0.029 A 
ATOM      8  C   UNL     1      -2.718  -3.684   0.295  0.00  0.00    +0.045 A 
ATOM      9  N   UNL     1      -3.399  -4.534  -0.450  0.00  0.00    -0.367 N 
ATOM     10  H   UNL     1      -3.542  -5.472  -0.247  0.00  0.00    +0.161 HD
ENDROOT
BRANCH   2  11
ATOM     11  N   UNL     1      -3.657  -1.379  -2.380  0.00  0.00    -0.286 N 
ATOM     12  C   UNL     1      -4.261  -1.621  -3.560  0.00  0.00    +0.215 C 
ATOM     13  O   UNL     1      -4.695  -2.727  -3.803  0.00  0.00    -0.276 OA
ATOM     14  H   UNL     1      -3.385  -0.477  -2.150  0.00  0.00    +0.155 HD
BRANCH  12  15
ATOM     15  C   UNL     1      -4.398  -0.518  -4.577  0.00  0.00    +0.077 C 
BRANCH  15  16
ATOM     16  C   UNL     1      -5.115  -1.054  -5.818  0.00  0.00    -0.070 C 
BRANCH  16  17
ATOM     17  N   UNL     1      -5.248   0.022  -6.809  0.00  0.00    +0.380 N 
ATOM     18  C   UNL     1      -3.915   0.430  -7.268  0.00  0.00    -0.079 C 
ATOM     19  C   UNL     1      -4.043   1.605  -8.240  0.00  0.00    -0.018 C 
ATOM     20  C   UNL     1      -4.889   1.175  -9.442  0.00  0.00    +0.003 C 
ATOM     21  C   UNL     1      -6.250   0.681  -8.946  0.00  0.00    -0.050 C 
ATOM     22  C   UNL     1      -6.040  -0.459  -7.947  0.00  0.00    -0.072 C 
ATOM     23  C   UNL     1      -7.074   0.176 -10.132  0.00  0.00    +0.009 C 
ATOM     24  C   UNL     1      -6.992   1.831  -8.260  0.00  0.00    +0.009 C 
ATOM     25  H   UNL     1      -5.713   0.812  -6.387  0.00  0.00    -0.082 HD
ENDBRANCH  16  17
ENDBRANCH  15  16
ENDBRANCH  12  15
ENDBRANCH   2  11
BRANCH   1  26
ATOM     26  C   UNL     1      -5.412  -3.877  -1.658  0.00  0.00    +0.336 C 
ATOM     27  O   UNL     1      -6.038  -3.712  -0.638  0.00  0.00    -0.248 OA
BRANCH  26  28
ATOM     28  O   UNL     1      -6.058  -4.099  -2.813  0.00  0.00    -0.463 OA
BRANCH  28  30
ATOM     29  C   UNL     1      -8.040  -4.392  -4.165  0.00  0.00    +0.048 C 
ATOM     30  C   UNL     1      -7.486  -4.128  -2.763  0.00  0.00    +0.229 C 
ENDBRANCH  28  30
ENDBRANCH  26  28
ENDBRANCH   1  26
BRANCH   5  31
ATOM     31  O   UNL     1      -0.736  -0.515   2.125  0.00  0.00    -0.495 OA
ATOM     32  C   UNL     1      -0.086  -0.819   3.361  0.00  0.00    +0.277 C 
ENDBRANCH   5  31
TORSDOF 8
