REMARK  Name = ZINC37063178
REMARK  7 active torsions:
REMARK  status: ('A' for Active; 'I' for Inactive)
REMARK    1  A    between atoms: C_1  and  C_2
REMARK    2  A    between atoms: C_5  and  C_22
REMARK    3  A    between atoms: N_8  and  S_10
REMARK    4  A    between atoms: S_10  and  C_13
REMARK    5  A    between atoms: C_16  and  N_21
REMARK    6  A    between atoms: C_18  and  O_19
REMARK    7  A    between atoms: O_19  and  C_20
REMARK                            x       y       z     vdW  Elec       q    Type
REMARK                         _______ _______ _______ _____ _____    ______ ____
ROOT
ATOM      1  S   UNL     1       1.993  -2.886   1.829  0.00  0.00    +0.064 S 
ATOM      2  O   UNL     1       1.815  -4.207   1.337  0.00  0.00    -0.153 OA
ATOM      3  O   UNL     1       3.059  -2.050   1.400  0.00  0.00    -0.153 OA
ENDROOT
BRANCH   1   9
ATOM      4  C   UNL     1      -0.203   1.173  -0.284  0.00  0.00    +0.009 C 
ATOM      5  C   UNL     1      -0.093  -0.338  -0.074  0.00  0.00    +0.002 C 
ATOM      6  C   UNL     1      -1.493  -0.954  -0.049  0.00  0.00    +0.009 C 
ATOM      7  C   UNL     1      -1.383  -2.470   0.128  0.00  0.00    +0.002 C 
ATOM      8  C   UNL     1      -0.697  -2.776   1.464  0.00  0.00    +0.112 C 
ATOM      9  N   UNL     1       0.590  -2.067   1.507  0.00  0.00    -0.176 NA
ATOM     10  C   UNL     1       0.609  -0.619   1.259  0.00  0.00    +0.112 C 
ATOM     11  C   UNL     1      -0.557  -3.060  -1.017  0.00  0.00    +0.009 C 
ENDBRANCH   1   9
BRANCH   1  12
ATOM     12  C   UNL     1       2.129  -3.016   3.582  0.00  0.00    +0.147 A 
ATOM     13  C   UNL     1       2.066  -4.256   4.189  0.00  0.00    +0.034 A 
ATOM     14  C   UNL     1       2.173  -4.362   5.561  0.00  0.00    +0.025 A 
ATOM     15  C   UNL     1       2.344  -3.221   6.336  0.00  0.00    +0.028 A 
ATOM     16  C   UNL     1       2.408  -1.975   5.728  0.00  0.00    +0.070 A 
ATOM     17  C   UNL     1       2.305  -1.873   4.349  0.00  0.00    +0.148 A 
BRANCH  15  18
ATOM     18  N   UNL     1       2.452  -3.328   7.724  0.00  0.00    -0.358 N 
ATOM     19  H   UNL     1       2.407  -4.199   8.149  0.00  0.00    +0.142 HD
ATOM     20  H   UNL     1       2.571  -2.531   8.264  0.00  0.00    +0.142 HD
ENDBRANCH  15  18
BRANCH  17  21
ATOM     21  O   UNL     1       2.372  -0.655   3.751  0.00  0.00    -0.493 OA
ATOM     22  C   UNL     1       2.427   0.487   4.607  0.00  0.00    +0.277 C 
ENDBRANCH  17  21
ENDBRANCH   1  12
TORSDOF 4
