REMARK  Name = ZINC40016480
REMARK  8 active torsions:
REMARK  status: ('A' for Active; 'I' for Inactive)
REMARK    1  A    between atoms: C_1  and  C_2
REMARK    2  A    between atoms: C_7  and  C_12
REMARK    3  A    between atoms: C_19  and  C_36
REMARK    4  A    between atoms: C_20  and  C_30
REMARK    5  A    between atoms: C_21  and  C_23
REMARK    6  A    between atoms: C_30  and  O_32
REMARK    7  A    between atoms: O_32  and  C_33
REMARK    8  A    between atoms: C_33  and  C_34
REMARK                            x       y       z     vdW  Elec       q    Type
REMARK                         _______ _______ _______ _____ _____    ______ ____
ROOT
ATOM      1  C   UNL     1      -2.503  -5.211   1.999  0.00  0.00    +0.028 C 
ATOM      2  C   UNL     1      -2.026  -6.171   2.833  0.00  0.00    +0.081 A 
ATOM      3  C   UNL     1      -2.520  -7.536   3.063  0.00  0.00    +0.268 A 
ATOM      4  O   UNL     1      -3.493  -7.960   2.467  0.00  0.00    -0.266 OA
ATOM      5  N   UNL     1      -1.867  -8.299   3.949  0.00  0.00    -0.275 N 
ATOM      6  C   UNL     1      -0.774  -7.772   4.596  0.00  0.00    +0.178 A 
ATOM      7  N   UNL     1      -0.060  -8.423   5.480  0.00  0.00    -0.228 NA
ATOM      8  C   UNL     1      -0.292  -9.670   5.870  0.00  0.00    +0.053 C 
ATOM      9  C   UNL     1      -1.337 -10.379   5.347  0.00  0.00    +0.085 C 
ATOM     10  C   UNL     1      -2.213  -9.701   4.319  0.00  0.00    +0.164 C 
ATOM     11  C   UNL     1       0.605 -10.310   6.898  0.00  0.00    +0.066 C 
ATOM     12  S   UNL     1      -0.626  -6.122   3.940  0.00  0.00    -0.046 S 
ENDROOT
BRANCH   1  18
ATOM     13  C   UNL     1       1.367   0.785   3.956  0.00  0.00    +0.052 C 
ATOM     14  C   UNL     1       0.057   0.029   3.730  0.00  0.00    +0.175 C 
ATOM     15  C   UNL     1       0.184  -1.440   4.199  0.00  0.00    +0.083 C 
ATOM     16  C   UNL     1      -0.651  -2.172   3.166  0.00  0.00    -0.002 A 
ATOM     17  C   UNL     1      -1.179  -3.438   3.141  0.00  0.00    +0.015 A 
ATOM     18  C   UNL     1      -1.933  -3.858   2.036  0.00  0.00    -0.023 A 
ATOM     19  C   UNL     1      -2.136  -2.976   0.968  0.00  0.00    +0.011 A 
ATOM     20  C   UNL     1      -1.598  -1.712   1.004  0.00  0.00    +0.046 A 
ATOM     21  C   UNL     1      -0.845  -1.294   2.103  0.00  0.00    +0.124 A 
ATOM     22  O   UNL     1      -0.219  -0.103   2.325  0.00  0.00    -0.488 OA
ENDBRANCH   1  18
BRANCH  10  23
ATOM     23  C   UNL     1      -2.181 -10.533   3.063  0.00  0.00    +0.015 A 
ATOM     24  C   UNL     1      -3.188 -11.446   2.813  0.00  0.00    +0.009 A 
ATOM     25  C   UNL     1      -3.159 -12.209   1.661  0.00  0.00    +0.001 A 
ATOM     26  C   UNL     1      -2.123 -12.060   0.757  0.00  0.00    +0.003 A 
ATOM     27  C   UNL     1      -1.116 -11.147   1.004  0.00  0.00    +0.039 A 
ATOM     28  C   UNL     1      -1.147 -10.378   2.156  0.00  0.00    +0.129 A 
ATOM     29  F   UNL     1      -0.165  -9.482   2.397  0.00  0.00    -0.205 F 
ENDBRANCH  10  23
BRANCH   9  30
ATOM     30  C   UNL     1      -1.589 -11.699   5.754  0.00  0.00    +0.340 C 
ATOM     31  O   UNL     1      -0.811 -12.266   6.500  0.00  0.00    -0.245 OA
BRANCH  30  32
ATOM     32  O   UNL     1      -2.695 -12.341   5.317  0.00  0.00    -0.457 OA
BRANCH  32  33
ATOM     33  C   UNL     1      -2.889 -13.682   5.770  0.00  0.00    +0.259 C 
BRANCH  33  34
ATOM     34  C   UNL     1      -4.164 -14.231   5.185  0.00  0.00    +0.006 C 
ATOM     35  C   UNL     1      -4.185 -15.438   4.676  0.00  0.00    +0.007 C 
ENDBRANCH  33  34
ENDBRANCH  32  33
ENDBRANCH  30  32
ENDBRANCH   9  30
TORSDOF 6
