REMARK  Name = ZINC53830477
REMARK  9 active torsions:
REMARK  status: ('A' for Active; 'I' for Inactive)
REMARK    1  A    between atoms: C_1  and  N_2
REMARK    2  A    between atoms: N_2  and  C_3
REMARK    3  A    between atoms: C_3  and  C_5
REMARK    4  A    between atoms: C_3  and  C_12
REMARK    5  A    between atoms: C_5  and  C_6
REMARK    6  A    between atoms: C_14  and  O_21
REMARK    7  A    between atoms: C_15  and  O_19
REMARK    8  A    between atoms: O_19  and  C_20
REMARK    9  A    between atoms: O_21  and  C_22
REMARK                            x       y       z     vdW  Elec       q    Type
REMARK                         _______ _______ _______ _____ _____    ______ ____
ROOT
ATOM      1  C   UNL     1       0.750  -0.586  -1.408  0.00  0.00    -0.036 C 
ENDROOT
BRANCH   1   2
ATOM      2  C   UNL     1       0.583  -2.077  -1.549  0.00  0.00    -0.056 A 
ATOM      3  C   UNL     1       0.582  -2.655  -2.806  0.00  0.00    +0.051 A 
ATOM      4  C   UNL     1       0.428  -4.026  -2.938  0.00  0.00    +0.163 A 
ATOM      5  C   UNL     1       0.275  -4.818  -1.805  0.00  0.00    +0.180 A 
ATOM      6  C   UNL     1       0.278  -4.234  -0.548  0.00  0.00    +0.086 A 
ATOM      7  C   UNL     1       0.437  -2.865  -0.423  0.00  0.00    +0.026 A 
ATOM      8 CL   UNL     1       0.087  -5.219   0.869  0.00  0.00    -0.080 Cl
BRANCH   5   9
ATOM      9  O   UNL     1       0.124  -6.164  -1.930  0.00  0.00    -0.490 OA
ATOM     10  C   UNL     1       1.314  -6.955  -1.923  0.00  0.00    +0.277 C 
ENDBRANCH   5   9
BRANCH   4  11
ATOM     11  O   UNL     1       0.426  -4.595  -4.173  0.00  0.00    -0.491 OA
ATOM     12  C   UNL     1       0.587  -3.719  -5.291  0.00  0.00    +0.277 C 
ENDBRANCH   4  11
ENDBRANCH   1   2
BRANCH   1  14
ATOM     13  C   UNL     1      -1.539  -0.282  -0.758  0.00  0.00    -0.100 C 
ATOM     14  N   UNL     1      -0.141  -0.092  -0.349  0.00  0.00    +0.382 N 
ATOM     15  H   UNL     1       0.034   0.889  -0.194  0.00  0.00    -0.085 HD
ATOM     16  H   UNL     1       0.033  -0.604   0.503  0.00  0.00    -0.085 HD
ENDBRANCH   1  14
BRANCH   1  17
ATOM     17  C   UNL     1       2.201  -0.268  -1.043  0.00  0.00    +0.031 C 
BRANCH  17  18
ATOM     18  C   UNL     1       2.400   1.226  -1.031  0.00  0.00    -0.010 A 
ATOM     19  C   UNL     1       2.353   2.085   0.017  0.00  0.00    +0.012 A 
ATOM     20  C   UNL     1       2.569   3.431  -0.210  0.00  0.00    +0.023 A 
ATOM     21  C   UNL     1       2.822   3.853  -1.474  0.00  0.00    +0.055 A 
ATOM     22  S   UNL     1       2.767   2.322  -2.391  0.00  0.00    -0.086 S 
ATOM     23 BR   UNL     1       3.154   5.606  -2.100  0.00  0.00    -0.043 Br
ENDBRANCH  17  18
ENDBRANCH   1  17
TORSDOF 6
