REMARK  Name = ZINC00655993
REMARK  12 active torsions:
REMARK  status: ('A' for Active; 'I' for Inactive)
REMARK    1  A    between atoms: C_1  and  C_2
REMARK    2  A    between atoms: C_2  and  C_4
REMARK    3  A    between atoms: C_2  and  S_16
REMARK    4  A    between atoms: N_6  and  N_7
REMARK    5  A    between atoms: C_8  and  C_9
REMARK    6  A    between atoms: C_13  and  O_15
REMARK    7  A    between atoms: S_16  and  C_17
REMARK    8  A    between atoms: C_20  and  C_25
REMARK    9  A    between atoms: N_21  and  C_22
REMARK   10  A    between atoms: C_22  and  C_23
REMARK   11  A    between atoms: C_25  and  N_26
REMARK   12  A    between atoms: N_26  and  C_27
REMARK                            x       y       z     vdW  Elec       q    Type
REMARK                         _______ _______ _______ _____ _____    ______ ____
ROOT
ATOM      1  S   UNL     1      -3.986  10.089   0.811  0.00  0.00    -0.073 S 
ENDROOT
BRANCH   1   2
ATOM      2  C   UNL     1      -3.690  11.826   0.833  0.00  0.00    +0.193 A 
ATOM      3  N   UNL     1      -2.607  12.439   0.412  0.00  0.00    -0.122 NA
ATOM      4  N   UNL     1      -2.733  13.707   0.575  0.00  0.00    -0.132 NA
ATOM      5  C   UNL     1      -3.889  13.977   1.112  0.00  0.00    +0.152 A 
ATOM      6  N   UNL     1      -4.540  12.789   1.295  0.00  0.00    -0.301 N 
BRANCH   6   7
ATOM      7  C   UNL     1      -5.873  12.590   1.869  0.00  0.00    +0.152 C 
BRANCH   7   8
ATOM      8  C   UNL     1      -5.756  12.407   3.360  0.00  0.00    -0.013 C 
ATOM      9  C   UNL     1      -6.437  13.179   4.170  0.00  0.00    +0.005 C 
ENDBRANCH   7   8
ENDBRANCH   6   7
BRANCH   5  10
ATOM     10  C   UNL     1      -4.412  15.346   1.465  0.00  0.00    +0.178 C 
BRANCH  10  11
ATOM     11  N   UNL     1      -4.023  15.678   2.837  0.00  0.00    -0.337 N 
ATOM     12  H   UNL     1      -3.506  15.046   3.362  0.00  0.00    +0.147 HD
BRANCH  11  13
ATOM     13  C   UNL     1      -4.396  16.905   3.392  0.00  0.00    +0.027 A 
ATOM     14  C   UNL     1      -5.131  17.813   2.641  0.00  0.00    +0.023 A 
ATOM     15  C   UNL     1      -5.503  19.023   3.193  0.00  0.00    +0.002 A 
ATOM     16  C   UNL     1      -5.135  19.335   4.489  0.00  0.00    +0.000 A 
ATOM     17  C   UNL     1      -4.399  18.435   5.238  0.00  0.00    +0.002 A 
ATOM     18  C   UNL     1      -4.029  17.221   4.693  0.00  0.00    +0.023 A 
ENDBRANCH  11  13
ENDBRANCH  10  11
ENDBRANCH   5  10
ENDBRANCH   1   2
BRANCH   1  20
ATOM     19  C   UNL     1      -2.333  10.035  -1.363  0.00  0.00    +0.029 C 
ATOM     20  C   UNL     1      -2.436   9.515   0.073  0.00  0.00    +0.139 C 
BRANCH  20  21
ATOM     21  C   UNL     1      -2.411   8.008   0.065  0.00  0.00    +0.245 C 
ATOM     22  O   UNL     1      -3.452   7.385   0.071  0.00  0.00    -0.273 OA
ATOM     23  N   UNL     1      -1.233   7.354   0.051  0.00  0.00    -0.206 N 
ATOM     24  H   UNL     1      -0.401   7.853   0.045  0.00  0.00    +0.177 HD
BRANCH  23  25
ATOM     25  N   UNL     1      -1.210   5.953   0.043  0.00  0.00    -0.188 NA
ATOM     26  C   UNL     1      -0.076   5.323   0.029  0.00  0.00    +0.138 C 
BRANCH  26  27
ATOM     27  C   UNL     1      -0.051   3.849   0.022  0.00  0.00    -0.002 A 
ATOM     28  C   UNL     1      -1.248   3.127   0.030  0.00  0.00    +0.010 A 
ATOM     29  C   UNL     1      -1.221   1.748   0.017  0.00  0.00    +0.004 A 
ATOM     30  C   UNL     1      -0.013   1.076   0.008  0.00  0.00    +0.045 A 
ATOM     31  C   UNL     1       1.182   1.784   0.000  0.00  0.00    +0.117 A 
ATOM     32  C   UNL     1       1.167   3.168   0.007  0.00  0.00    +0.054 A 
BRANCH  31  33
ATOM     33  O   UNL     1       2.366   1.117  -0.014  0.00  0.00    -0.507 OA
ATOM     34  H   UNL     1       2.700   0.928  -0.902  0.00  0.00    +0.292 HD
ENDBRANCH  31  33
ENDBRANCH  26  27
ENDBRANCH  23  25
ENDBRANCH  20  21
ENDBRANCH   1  20
TORSDOF 11
