REMARK  Name = ZINC08440712
REMARK  12 active torsions:
REMARK  status: ('A' for Active; 'I' for Inactive)
REMARK    1  A    between atoms: C_1  and  C_2
REMARK    2  A    between atoms: C_2  and  O_3
REMARK    3  A    between atoms: O_3  and  C_4
REMARK    4  A    between atoms: C_4  and  C_6
REMARK    5  A    between atoms: C_7  and  C_36
REMARK    6  A    between atoms: C_11  and  C_13
REMARK    7  A    between atoms: C_16  and  O_21
REMARK    8  A    between atoms: C_17  and  O_19
REMARK    9  A    between atoms: O_19  and  C_20
REMARK   10  A    between atoms: C_25  and  C_28
REMARK   11  A    between atoms: C_31  and  O_34
REMARK   12  A    between atoms: O_34  and  C_35
REMARK                            x       y       z     vdW  Elec       q    Type
REMARK                         _______ _______ _______ _____ _____    ______ ____
ROOT
ATOM      1  C   UNL     1       2.445   0.272   1.200  0.00  0.00    +0.154 C 
ATOM      2  C   UNL     1       2.266  -1.060   1.214  0.00  0.00    +0.031 C 
ATOM      3  N   UNL     1       2.104  -1.750   0.045  0.00  0.00    -0.260 NA
ATOM      4  C   UNL     1       2.506  -1.207  -1.146  0.00  0.00    +0.049 C 
ATOM      5  C   UNL     1       2.692   0.124  -1.263  0.00  0.00    +0.025 C 
ATOM      6  C   UNL     1       2.468   1.041  -0.087  0.00  0.00    +0.073 C 
ATOM      7  C   UNL     1       3.099   0.694  -2.482  0.00  0.00    +0.162 C 
ATOM      8  O   UNL     1       3.271   1.895  -2.551  0.00  0.00    -0.292 OA
ATOM      9  C   UNL     1       3.326  -0.157  -3.702  0.00  0.00    +0.088 C 
ATOM     10  C   UNL     1       2.427  -1.395  -3.620  0.00  0.00    +0.032 C 
ATOM     11  C   UNL     1       2.734  -2.130  -2.317  0.00  0.00    +0.064 C 
ATOM     12  C   UNL     1       2.245  -1.799   2.528  0.00  0.00    +0.061 C 
ENDROOT
BRANCH   6  13
ATOM     13  C   UNL     1       1.147   1.748  -0.255  0.00  0.00    -0.035 A 
ATOM     14  C   UNL     1      -0.023   1.016  -0.326  0.00  0.00    +0.008 A 
ATOM     15  C   UNL     1      -1.236   1.659  -0.485  0.00  0.00    +0.049 A 
ATOM     16  C   UNL     1      -1.282   3.042  -0.565  0.00  0.00    +0.158 A 
ATOM     17  C   UNL     1      -0.103   3.779  -0.494  0.00  0.00    +0.162 A 
ATOM     18  C   UNL     1       1.110   3.127  -0.339  0.00  0.00    +0.053 A 
BRANCH  17  19
ATOM     19  O   UNL     1      -0.142   5.136  -0.577  0.00  0.00    -0.491 OA
ATOM     20  C   UNL     1       1.106   5.827  -0.498  0.00  0.00    +0.277 C 
ENDBRANCH  17  19
BRANCH  16  21
ATOM     21  O   UNL     1      -2.475   3.677  -0.716  0.00  0.00    -0.503 OA
ATOM     22  H   UNL     1      -2.735   3.809  -1.638  0.00  0.00    +0.292 HD
ENDBRANCH  16  21
ENDBRANCH   6  13
BRANCH  10  23
ATOM     23  C   UNL     1       2.707  -2.302  -4.791  0.00  0.00    -0.043 A 
ATOM     24  C   UNL     1       3.976  -2.818  -4.977  0.00  0.00    +0.007 A 
ATOM     25  C   UNL     1       4.233  -3.654  -6.046  0.00  0.00    +0.046 A 
ATOM     26  C   UNL     1       3.219  -3.967  -6.940  0.00  0.00    +0.120 A 
ATOM     27  C   UNL     1       1.948  -3.443  -6.754  0.00  0.00    +0.046 A 
ATOM     28  C   UNL     1       1.694  -2.612  -5.680  0.00  0.00    +0.007 A 
BRANCH  26  29
ATOM     29  O   UNL     1       3.471  -4.785  -7.996  0.00  0.00    -0.495 OA
ATOM     30  C   UNL     1       4.802  -5.287  -8.124  0.00  0.00    +0.277 C 
ENDBRANCH  26  29
ENDBRANCH  10  23
BRANCH   1  31
ATOM     31  C   UNL     1       2.619   0.962   2.423  0.00  0.00    +0.317 C 
ATOM     32  O   UNL     1       3.721   1.369   2.740  0.00  0.00    -0.250 OA
BRANCH  31  33
ATOM     33  O   UNL     1       1.563   1.168   3.237  0.00  0.00    -0.464 OA
BRANCH  33  35
ATOM     34  C   UNL     1       0.505   2.008   5.241  0.00  0.00    +0.048 C 
ATOM     35  C   UNL     1       1.811   1.871   4.456  0.00  0.00    +0.229 C 
ENDBRANCH  33  35
ENDBRANCH  31  33
ENDBRANCH   1  31
TORSDOF 8
