REMARK  Name = ZINC44260821
REMARK  6 active torsions:
REMARK  status: ('A' for Active; 'I' for Inactive)
REMARK    1  A    between atoms: C_3  and  O_25
REMARK    2  A    between atoms: C_6  and  C_7
REMARK    3  A    between atoms: C_7  and  C_9
REMARK    4  A    between atoms: C_7  and  O_24
REMARK    5  A    between atoms: C_9  and  N_10
REMARK    6  A    between atoms: O_25  and  C_26
REMARK                            x       y       z     vdW  Elec       q    Type
REMARK                         _______ _______ _______ _____ _____    ______ ____
ROOT
ATOM      1  N   UNL     1      -2.908  -1.896   1.458  0.00  0.00    -0.221 N 
ATOM      2  C   UNL     1      -4.143  -1.351   1.530  0.00  0.00    +0.247 C 
ATOM      3  O   UNL     1      -4.478  -0.221   1.274  0.00  0.00    -0.273 OA
ATOM      4  C   UNL     1      -5.017  -2.477   2.055  0.00  0.00    +0.113 C 
ATOM      5  C   UNL     1      -4.885  -2.522   3.576  0.00  0.00    +0.035 C 
ATOM      6  C   UNL     1      -6.008  -3.337   4.217  0.00  0.00    +0.003 C 
ATOM      7  C   UNL     1      -5.726  -4.850   4.201  0.00  0.00    +0.000 C 
ATOM      8  C   UNL     1      -5.986  -5.378   2.779  0.00  0.00    +0.000 C 
ATOM      9  C   UNL     1      -7.263  -4.747   2.221  0.00  0.00    +0.000 C 
ATOM     10  C   UNL     1      -6.953  -3.762   1.100  0.00  0.00    +0.003 C 
ATOM     11  C   UNL     1      -6.456  -2.406   1.600  0.00  0.00    +0.035 C 
ATOM     12  N   UNL     1      -4.311  -3.608   1.418  0.00  0.00    -0.285 N 
ATOM     13  C   UNL     1      -3.013  -3.227   1.356  0.00  0.00    +0.309 C 
ATOM     14  O   UNL     1      -2.082  -3.987   1.224  0.00  0.00    -0.252 OA
ATOM     15  H   UNL     1      -4.661  -4.400   1.011  0.00  0.00    +0.151 HD
ENDROOT
BRANCH   1  16
ATOM     16  C   UNL     1      -1.653  -1.150   1.449  0.00  0.00    +0.154 C 
BRANCH  16  17
ATOM     17  C   UNL     1      -1.293  -0.774   0.011  0.00  0.00    +0.162 C 
BRANCH  17  23
ATOM     18  C   UNL     1      -0.017   1.378   0.010  0.00  0.00    +0.010 A 
ATOM     19  C   UNL     1       1.169   2.087   0.002  0.00  0.00    +0.046 A 
ATOM     20  C   UNL     1       2.380   1.409  -0.013  0.00  0.00    +0.127 A 
ATOM     21  C   UNL     1       2.396   0.022  -0.021  0.00  0.00    +0.046 A 
ATOM     22  C   UNL     1       1.207  -0.681  -0.013  0.00  0.00    +0.010 A 
ATOM     23  C   UNL     1       0.002  -0.004   0.002  0.00  0.00    -0.017 A 
BRANCH  20  24
ATOM     24  O   UNL     1       3.548   2.104  -0.021  0.00  0.00    -0.434 OA
BRANCH  24  25
ATOM     25  C   UNL     1       4.756   1.341  -0.036  0.00  0.00    +0.541 C 
ATOM     26  F   UNL     1       4.810   0.528   1.101  0.00  0.00    -0.166 F 
ATOM     27  F   UNL     1       4.787   0.540  -1.183  0.00  0.00    -0.166 F 
ENDBRANCH  24  25
ENDBRANCH  20  24
ENDBRANCH  17  23
BRANCH  17  28
ATOM     28  O   UNL     1      -1.147  -1.962  -0.770  0.00  0.00    -0.386 OA
ATOM     29  H   UNL     1      -0.457  -2.560  -0.450  0.00  0.00    +0.210 HD
ENDBRANCH  17  28
ENDBRANCH  16  17
ENDBRANCH   1  16
TORSDOF 6
