REMARK  Name = ZINC35486967
REMARK  12 active torsions:
REMARK  status: ('A' for Active; 'I' for Inactive)
REMARK    1  A    between atoms: C_1  and  C_2
REMARK    2  A    between atoms: C_2  and  C_3
REMARK    3  A    between atoms: C_3  and  C_4
REMARK    4  A    between atoms: C_4  and  O_5
REMARK    5  A    between atoms: O_5  and  C_6
REMARK    6  A    between atoms: C_10  and  C_12
REMARK    7  A    between atoms: N_27  and  C_28
REMARK    8  A    between atoms: C_28  and  C_29
REMARK    9  A    between atoms: C_29  and  C_30
REMARK   10  A    between atoms: C_30  and  N_31
REMARK   11  A    between atoms: N_31  and  C_32
REMARK   12  A    between atoms: N_31  and  C_33
REMARK                            x       y       z     vdW  Elec       q    Type
REMARK                         _______ _______ _______ _____ _____    ______ ____
ROOT
ATOM      1  C   UNL     1      -5.730  -6.426   0.011  0.00  0.00    +0.145 C 
ATOM      2  C   UNL     1      -6.090  -6.902  -1.359  0.00  0.00    +0.072 A 
ATOM      3  C   UNL     1      -6.228  -6.179  -2.627  0.00  0.00    +0.199 A 
ATOM      4  O   UNL     1      -5.882  -5.020  -2.776  0.00  0.00    -0.287 OA
ATOM      5  C   UNL     1      -6.830  -6.994  -3.713  0.00  0.00    +0.065 A 
ATOM      6  C   UNL     1      -7.210  -6.397  -4.915  0.00  0.00    +0.030 A 
ATOM      7  C   UNL     1      -7.772  -7.168  -5.909  0.00  0.00    +0.019 A 
ATOM      8  C   UNL     1      -7.958  -8.530  -5.713  0.00  0.00    +0.019 A 
ATOM      9  C   UNL     1      -7.585  -9.129  -4.531  0.00  0.00    +0.048 A 
ATOM     10  C   UNL     1      -7.012  -8.371  -3.510  0.00  0.00    +0.140 A 
ATOM     11  O   UNL     1      -6.645  -8.987  -2.363  0.00  0.00    -0.450 OA
ATOM     12  C   UNL     1      -6.307  -8.248  -1.288  0.00  0.00    +0.199 A 
ATOM     13  C   UNL     1      -6.104  -8.677   0.107  0.00  0.00    +0.283 C 
ATOM     14  O   UNL     1      -6.224  -9.817   0.509  0.00  0.00    -0.267 OA
ATOM     15  N   UNL     1      -5.767  -7.617   0.874  0.00  0.00    -0.284 N 
ATOM     16 BR   UNL     1      -8.291  -6.370  -7.543  0.00  0.00    -0.050 Br
ENDROOT
BRANCH   1  21
ATOM     17  C   UNL     1      -2.913  -3.908   0.009  0.00  0.00    +0.121 A 
ATOM     18  C   UNL     1      -1.802  -4.739  -0.000  0.00  0.00    +0.045 A 
ATOM     19  C   UNL     1      -1.967  -6.110  -0.006  0.00  0.00    +0.004 A 
ATOM     20  C   UNL     1      -3.238  -6.655  -0.002  0.00  0.00    +0.006 A 
ATOM     21  C   UNL     1      -4.347  -5.829   0.007  0.00  0.00    -0.019 A 
ATOM     22  C   UNL     1      -4.187  -4.457   0.018  0.00  0.00    +0.051 A 
BRANCH  17  23
ATOM     23  O   UNL     1      -2.753  -2.558   0.015  0.00  0.00    -0.492 OA
BRANCH  23  24
ATOM     24  C   UNL     1      -1.413  -2.063   0.004  0.00  0.00    +0.229 C 
BRANCH  24  25
ATOM     25  C   UNL     1      -1.433  -0.534   0.013  0.00  0.00    +0.041 C 
BRANCH  25  27
ATOM     26  C   UNL     1      -0.019   1.526   0.010  0.00  0.00    +0.004 C 
ATOM     27  C   UNL     1       0.002  -0.004   0.002  0.00  0.00    -0.000 C 
ENDBRANCH  25  27
ENDBRANCH  24  25
ENDBRANCH  23  24
ENDBRANCH  17  23
ENDBRANCH   1  21
BRANCH  15  28
ATOM     28  C   UNL     1      -5.486  -7.648   2.312  0.00  0.00    +0.107 C 
BRANCH  28  29
ATOM     29  C   UNL     1      -6.782  -7.415   3.090  0.00  0.00    +0.000 C 
BRANCH  29  30
ATOM     30  C   UNL     1      -6.488  -7.447   4.591  0.00  0.00    -0.078 C 
BRANCH  30  31
ATOM     31  N   UNL     1      -7.733  -7.222   5.338  0.00  0.00    +0.376 N 
ATOM     32  C   UNL     1      -8.656  -8.340   5.099  0.00  0.00    -0.097 C 
ATOM     33  C   UNL     1      -7.433  -7.134   6.774  0.00  0.00    -0.097 C 
ATOM     34  H   UNL     1      -8.160  -6.362   5.030  0.00  0.00    -0.083 HD
ENDBRANCH  30  31
ENDBRANCH  29  30
ENDBRANCH  28  29
ENDBRANCH  15  28
TORSDOF 9
