REMARK  Name = ZINC16037682
REMARK  2 active torsions:
REMARK  status: ('A' for Active; 'I' for Inactive)
REMARK    1  A    between atoms: C_12  and  C_30
REMARK    2  A    between atoms: N_20  and  C_23
REMARK                            x       y       z     vdW  Elec       q    Type
REMARK                         _______ _______ _______ _____ _____    ______ ____
ROOT
ATOM      1  C   UNL     1      -0.264   0.666   5.024  0.00  0.00    +0.001 A 
ATOM      2  C   UNL     1       0.705   0.391   4.075  0.00  0.00    +0.002 A 
ATOM      3  C   UNL     1       0.551   0.826   2.770  0.00  0.00    +0.024 A 
ATOM      4  C   UNL     1      -0.574   1.538   2.415  0.00  0.00    +0.038 A 
ATOM      5  C   UNL     1      -1.575   1.808   3.376  0.00  0.00    -0.004 A 
ATOM      6  C   UNL     1      -1.402   1.371   4.683  0.00  0.00    +0.010 A 
ATOM      7  C   UNL     1      -2.802   2.528   2.958  0.00  0.00    +0.007 C 
ATOM      8  C   UNL     1      -3.130   2.497   1.647  0.00  0.00    -0.003 C 
ATOM      9  C   UNL     1      -2.235   1.658   0.802  0.00  0.00    +0.110 C 
ATOM     10  N   UNL     1      -0.816   2.033   1.153  0.00  0.00    -0.310 N 
ATOM     11  C   UNL     1      -0.018   1.503   0.010  0.00  0.00    +0.172 C 
ATOM     12  C   UNL     1      -0.861   2.061  -1.144  0.00  0.00    +0.119 C 
ATOM     13  C   UNL     1      -2.281   1.586  -0.634  0.00  0.00    +0.114 C 
ATOM     14  C   UNL     1      -3.083   1.761  -1.830  0.00  0.00    +0.232 C 
ATOM     15  O   UNL     1      -4.249   2.086  -1.889  0.00  0.00    -0.274 OA
ATOM     16  N   UNL     1      -2.230   1.495  -2.875  0.00  0.00    -0.210 N 
ATOM     17  C   UNL     1      -0.921   1.387  -2.475  0.00  0.00    +0.232 C 
ATOM     18  O   UNL     1      -0.010   0.859  -3.075  0.00  0.00    -0.274 OA
ENDROOT
BRANCH  16  19
ATOM     19  C   UNL     1      -2.651   1.349  -4.204  0.00  0.00    +0.044 A 
ATOM     20  C   UNL     1      -3.997   1.468  -4.524  0.00  0.00    +0.025 A 
ATOM     21  C   UNL     1      -4.409   1.328  -5.835  0.00  0.00    +0.022 A 
ATOM     22  C   UNL     1      -3.483   1.060  -6.828  0.00  0.00    +0.041 A 
ATOM     23  C   UNL     1      -2.141   0.936  -6.511  0.00  0.00    +0.022 A 
ATOM     24  C   UNL     1      -1.724   1.079  -5.202  0.00  0.00    +0.025 A 
ATOM     25 CL   UNL     1      -4.004   0.879  -8.474  0.00  0.00    -0.084 Cl
ENDBRANCH  16  19
BRANCH  11  26
ATOM     26  C   UNL     1       0.002  -0.004   0.002  0.00  0.00    +0.232 C 
ATOM     27  O   UNL     1      -0.779  -0.625   0.691  0.00  0.00    -0.274 OA
ATOM     28  N   UNL     1       0.889  -0.662  -0.771  0.00  0.00    -0.328 N 
ATOM     29  H   UNL     1       0.904  -1.762  -0.777  0.00  0.00    +0.145 HD
ATOM     30  H   UNL     1       1.597  -0.099  -1.396  0.00  0.00    +0.145 HD
ENDBRANCH  11  26
TORSDOF 2
