REMARK  Name = ZINC63362671
REMARK  8 active torsions:
REMARK  status: ('A' for Active; 'I' for Inactive)
REMARK    1  A    between atoms: C_1  and  C_2
REMARK    2  A    between atoms: C_2  and  C_3
REMARK    3  A    between atoms: C_2  and  C_4
REMARK    4  A    between atoms: C_4  and  C_5
REMARK    5  A    between atoms: C_5  and  N_6
REMARK    6  A    between atoms: C_7  and  C_9
REMARK    7  A    between atoms: C_14  and  N_15
REMARK    8  A    between atoms: C_18  and  C_34
REMARK                            x       y       z     vdW  Elec       q    Type
REMARK                         _______ _______ _______ _____ _____    ______ ____
ROOT
ATOM      1  N   UNL     1      -0.853   0.059   7.535  0.00  0.00    -0.192 N 
ATOM      2  C   UNL     1      -2.069  -0.525   7.566  0.00  0.00    +0.253 C 
ATOM      3  O   UNL     1      -2.319  -1.704   7.438  0.00  0.00    -0.272 OA
ATOM      4  C   UNL     1      -3.055   0.599   7.794  0.00  0.00    +0.137 C 
ATOM      5  C   UNL     1      -4.063   0.673   6.648  0.00  0.00    +0.139 C 
ATOM      6  C   UNL     1      -3.775   1.950   5.872  0.00  0.00    -0.034 C 
ATOM      7  C   UNL     1      -3.574   1.580   4.610  0.00  0.00    -0.001 A 
ATOM      8  C   UNL     1      -3.321   2.364   3.391  0.00  0.00    +0.010 A 
ATOM      9  C   UNL     1      -3.148   1.652   2.245  0.00  0.00    +0.001 A 
ATOM     10  C   UNL     1      -3.201   0.256   2.193  0.00  0.00    +0.002 A 
ATOM     11  C   UNL     1      -3.433  -0.544   3.264  0.00  0.00    +0.026 A 
ATOM     12  C   UNL     1      -3.636   0.090   4.524  0.00  0.00    +0.043 A 
ATOM     13  N   UNL     1      -3.897  -0.432   5.702  0.00  0.00    -0.375 N 
ATOM     14  C   UNL     1      -3.682   3.314   6.511  0.00  0.00    +0.052 C 
ATOM     15  C   UNL     1      -2.707   3.189   7.699  0.00  0.00    +0.115 C 
ATOM     16  N   UNL     1      -2.211   1.810   7.732  0.00  0.00    -0.268 N 
ATOM     17  C   UNL     1      -0.940   1.389   7.672  0.00  0.00    +0.317 C 
ATOM     18  O   UNL     1       0.023   2.129   7.730  0.00  0.00    -0.252 OA
ATOM     19  C   UNL     1      -3.744   0.468   9.154  0.00  0.00    +0.044 C 
ATOM     20  H   UNL     1      -3.965  -1.376   5.915  0.00  0.00    +0.160 HD
ENDROOT
BRANCH   1  26
ATOM     21  C   UNL     1       0.873  -0.871   6.107  0.00  0.00    +0.059 A 
ATOM     22  C   UNL     1       2.078  -1.564   5.972  0.00  0.00    +0.015 A 
ATOM     23  C   UNL     1       2.740  -2.018   7.092  0.00  0.00    +0.001 A 
ATOM     24  C   UNL     1       2.216  -1.790   8.354  0.00  0.00    +0.002 A 
ATOM     25  C   UNL     1       1.026  -1.106   8.503  0.00  0.00    +0.025 A 
ATOM     26  C   UNL     1       0.348  -0.637   7.386  0.00  0.00    +0.058 A 
BRANCH  21  28
ATOM     27  N   UNL     1       0.667  -0.609   3.684  0.00  0.00    -0.311 N 
ATOM     28  C   UNL     1       0.159  -0.382   4.912  0.00  0.00    +0.246 C 
ATOM     29  O   UNL     1      -0.887   0.225   5.034  0.00  0.00    -0.270 OA
ATOM     30  H   UNL     1       1.502  -1.093   3.586  0.00  0.00    +0.149 HD
BRANCH  27  31
ATOM     31  C   UNL     1      -0.042  -0.124   2.497  0.00  0.00    +0.105 C 
BRANCH  31  32
ATOM     32  C   UNL     1       0.742  -0.511   1.242  0.00  0.00    +0.022 C 
BRANCH  32  34
ATOM     33  C   UNL     1      -0.019   1.526   0.010  0.00  0.00    +0.007 C 
ATOM     34  C   UNL     1       0.002  -0.004   0.002  0.00  0.00    -0.016 C 
ATOM     35  C   UNL     1       0.718  -0.497  -1.257  0.00  0.00    +0.007 C 
ENDBRANCH  32  34
ENDBRANCH  31  32
ENDBRANCH  27  31
ENDBRANCH  21  28
ENDBRANCH   1  26
TORSDOF 5
