REMARK  Name = ZINC64622398
REMARK  8 active torsions:
REMARK  status: ('A' for Active; 'I' for Inactive)
REMARK    1  A    between atoms: C_1  and  C_2
REMARK    2  A    between atoms: C_6  and  C_8
REMARK    3  A    between atoms: N_22  and  C_23
REMARK    4  A    between atoms: C_23  and  C_24
REMARK    5  A    between atoms: C_27  and  O_30
REMARK    6  A    between atoms: O_30  and  C_31
REMARK    7  A    between atoms: C_31  and  C_32
REMARK    8  A    between atoms: C_32  and  O_33
REMARK                            x       y       z     vdW  Elec       q    Type
REMARK                         _______ _______ _______ _____ _____    ______ ____
ROOT
ATOM      1  C   UNL     1       0.227  -2.675   2.334  0.00  0.00    +0.132 C 
ATOM      2  C   UNL     1       1.486  -2.328   3.133  0.00  0.00    +0.129 C 
ATOM      3  C   UNL     1       1.344  -3.032   4.478  0.00  0.00    -0.035 C 
ATOM      4  C   UNL     1       1.497  -2.099   5.408  0.00  0.00    -0.001 A 
ATOM      5  C   UNL     1       1.550  -2.176   6.877  0.00  0.00    +0.010 A 
ATOM      6  C   UNL     1       1.706  -0.997   7.534  0.00  0.00    +0.001 A 
ATOM      7  C   UNL     1       1.813   0.237   6.885  0.00  0.00    +0.002 A 
ATOM      8  C   UNL     1       1.780   0.401   5.538  0.00  0.00    +0.026 A 
ATOM      9  C   UNL     1       1.626  -0.768   4.738  0.00  0.00    +0.043 A 
ATOM     10  N   UNL     1       1.590  -0.900   3.426  0.00  0.00    -0.376 N 
ATOM     11  C   UNL     1       0.994  -4.497   4.572  0.00  0.00    +0.049 C 
ATOM     12  C   UNL     1      -0.202  -4.715   3.628  0.00  0.00    +0.090 C 
ATOM     13  N   UNL     1       0.082  -4.140   2.311  0.00  0.00    -0.288 NA
ATOM     14  H   UNL     1       1.621  -0.186   2.769  0.00  0.00    +0.160 HD
ENDROOT
BRANCH   1  20
ATOM     15  C   UNL     1       2.714  -2.586  -1.864  0.00  0.00    +0.065 C 
ATOM     16  C   UNL     1       1.533  -2.113  -1.055  0.00  0.00    +0.039 A 
ATOM     17  C   UNL     1       0.627  -1.234  -1.619  0.00  0.00    +0.023 A 
ATOM     18  C   UNL     1      -0.455  -0.805  -0.866  0.00  0.00    +0.004 A 
ATOM     19  C   UNL     1      -0.586  -1.278   0.431  0.00  0.00    +0.025 A 
ATOM     20  C   UNL     1       0.360  -2.155   0.926  0.00  0.00    +0.061 A 
ATOM     21  N   UNL     1       1.374  -2.546   0.180  0.00  0.00    -0.255 NA
ENDBRANCH   1  20
BRANCH  13  22
ATOM     22  C   UNL     1      -0.926  -4.553   1.326  0.00  0.00    +0.120 C 
BRANCH  22  23
ATOM     23  C   UNL     1      -0.782  -6.027   1.048  0.00  0.00    -0.033 A 
ATOM     24  C   UNL     1       0.055  -6.460   0.036  0.00  0.00    +0.008 A 
ATOM     25  C   UNL     1       0.189  -7.811  -0.221  0.00  0.00    +0.046 A 
ATOM     26  C   UNL     1      -0.519  -8.733   0.537  0.00  0.00    +0.121 A 
ATOM     27  C   UNL     1      -1.358  -8.296   1.552  0.00  0.00    +0.046 A 
ATOM     28  C   UNL     1      -1.484  -6.944   1.808  0.00  0.00    +0.008 A 
BRANCH  26  29
ATOM     29  O   UNL     1      -0.390 -10.062   0.286  0.00  0.00    -0.490 OA
BRANCH  29  30
ATOM     30  C   UNL     1      -1.148 -10.954   1.106  0.00  0.00    +0.256 C 
BRANCH  30  31
ATOM     31  C   UNL     1      -0.875 -12.398   0.677  0.00  0.00    +0.196 C 
BRANCH  31  32
ATOM     32  O   UNL     1       0.494 -12.720   0.934  0.00  0.00    -0.392 OA
ATOM     33  H   UNL     1       0.739 -13.622   0.686  0.00  0.00    +0.210 HD
ENDBRANCH  31  32
ENDBRANCH  30  31
ENDBRANCH  29  30
ENDBRANCH  26  29
ENDBRANCH  22  23
ENDBRANCH  13  22
TORSDOF 7
