REMARK  Name = ZINC14274986
REMARK  8 active torsions:
REMARK  status: ('A' for Active; 'I' for Inactive)
REMARK    1  A    between atoms: C_1  and  C_2
REMARK    2  A    between atoms: C_4  and  N_29
REMARK    3  A    between atoms: C_7  and  N_8
REMARK    4  A    between atoms: N_8  and  C_9
REMARK    5  A    between atoms: C_9  and  N_11
REMARK    6  A    between atoms: C_12  and  C_14
REMARK    7  A    between atoms: C_15  and  C_16
REMARK    8  A    between atoms: C_19  and  C_21
REMARK                            x       y       z     vdW  Elec       q    Type
REMARK                         _______ _______ _______ _____ _____    ______ ____
ROOT
ATOM      1  N   UNL     1      -3.563   2.049  -0.173  0.00  0.00    -0.264 N 
ATOM      2  C   UNL     1      -4.720   1.365  -0.273  0.00  0.00    +0.242 C 
ATOM      3  O   UNL     1      -4.709   0.148  -0.280  0.00  0.00    -0.270 OA
ATOM      4  H   UNL     1      -3.572   3.019  -0.168  0.00  0.00    +0.157 HD
ENDROOT
BRANCH   1   5
ATOM      5  C   UNL     1      -2.394   1.385  -0.081  0.00  0.00    +0.141 C 
ATOM      6  S   UNL     1      -2.378  -0.327  -0.090  0.00  0.00    -0.018 S 
BRANCH   5   7
ATOM      7  N   UNL     1      -1.237   2.069   0.019  0.00  0.00    -0.296 N 
ATOM      8  H   UNL     1      -1.249   3.037   0.088  0.00  0.00    +0.154 HD
BRANCH   7  15
ATOM      9  C   UNL     1       0.844   3.016  -1.676  0.00  0.00    +0.046 C 
ATOM     10  C   UNL     1       1.024   1.810  -0.790  0.00  0.00    -0.027 A 
ATOM     11  C   UNL     1       2.224   1.127  -0.787  0.00  0.00    +0.038 A 
ATOM     12  C   UNL     1       2.391   0.021   0.025  0.00  0.00    +0.127 A 
ATOM     13  C   UNL     1       1.356  -0.406   0.837  0.00  0.00    +0.034 A 
ATOM     14  C   UNL     1       0.153   0.272   0.839  0.00  0.00    +0.026 A 
ATOM     15  C   UNL     1      -0.017   1.384   0.024  0.00  0.00    +0.036 A 
BRANCH  12  16
ATOM     16  N   UNL     1       3.679  -0.708   0.026  0.00  0.00    +0.056 N 
ATOM     17  O   UNL     1       3.827  -1.683   0.741  0.00  0.00    -0.126 OA
ATOM     18  O   UNL     1       4.591  -0.333  -0.689  0.00  0.00    -0.126 OA
ENDBRANCH  12  16
ENDBRANCH   7  15
ENDBRANCH   5   7
ENDBRANCH   1   5
BRANCH   2  19
ATOM     19  C   UNL     1      -5.946   2.062  -0.370  0.00  0.00    +0.071 C 
ATOM     20  C   UNL     1      -7.112   1.372  -0.471  0.00  0.00    +0.051 C 
BRANCH  20  21
ATOM     21  C   UNL     1      -8.339   2.068  -0.568  0.00  0.00    +0.129 A 
ATOM     22  C   UNL     1      -9.591   1.493  -0.680  0.00  0.00    +0.050 A 
ATOM     23  C   UNL     1     -10.513   2.541  -0.744  0.00  0.00    +0.050 A 
ATOM     24  C   UNL     1      -9.794   3.713  -0.678  0.00  0.00    +0.136 A 
ATOM     25  O   UNL     1      -8.489   3.409  -0.572  0.00  0.00    -0.455 OA
BRANCH  24  26
ATOM     26  C   UNL     1     -10.362   5.075  -0.717  0.00  0.00    +0.020 A 
ATOM     27  C   UNL     1     -11.742   5.256  -0.834  0.00  0.00    +0.031 A 
ATOM     28  C   UNL     1     -12.267   6.533  -0.865  0.00  0.00    +0.043 A 
ATOM     29  C   UNL     1     -11.428   7.632  -0.789  0.00  0.00    +0.040 A 
ATOM     30  C   UNL     1     -10.059   7.459  -0.678  0.00  0.00    +0.043 A 
ATOM     31  C   UNL     1      -9.521   6.188  -0.641  0.00  0.00    +0.031 A 
ATOM     32 CL   UNL     1      -9.016   8.843  -0.585  0.00  0.00    -0.083 Cl
ATOM     33 CL   UNL     1     -13.982   6.761  -1.005  0.00  0.00    -0.083 Cl
ENDBRANCH  24  26
ENDBRANCH  20  21
ENDBRANCH   2  19
TORSDOF 7
