REMARK  Name = ZINC38685136
REMARK  14 active torsions:
REMARK  status: ('A' for Active; 'I' for Inactive)
REMARK    1  A    between atoms: C_1  and  C_2
REMARK    2  A    between atoms: C_2  and  C_3
REMARK    3  A    between atoms: C_3  and  C_4
REMARK    4  A    between atoms: C_4  and  O_5
REMARK    5  A    between atoms: O_5  and  C_6
REMARK    6  A    between atoms: C_10  and  C_12
REMARK    7  A    between atoms: C_17  and  O_26
REMARK    8  A    between atoms: C_21  and  N_25
REMARK    9  A    between atoms: C_22  and  C_23
REMARK   10  A    between atoms: O_26  and  C_27
REMARK   11  A    between atoms: C_27  and  C_29
REMARK   12  A    between atoms: C_30  and  C_31
REMARK   13  A    between atoms: C_34  and  O_37
REMARK   14  A    between atoms: O_37  and  C_38
REMARK                            x       y       z     vdW  Elec       q    Type
REMARK                         _______ _______ _______ _____ _____    ______ ____
ROOT
ATOM      1  C   UNL     1       2.915  -6.231  -5.092  0.00  0.00    +0.098 C 
ATOM      2  C   UNL     1       1.961  -7.093  -5.876  0.00  0.00    +0.008 A 
ATOM      3  C   UNL     1       0.938  -6.498  -6.593  0.00  0.00    +0.012 A 
ATOM      4  C   UNL     1       0.054  -7.272  -7.318  0.00  0.00    +0.047 A 
ATOM      5  C   UNL     1       0.190  -8.653  -7.329  0.00  0.00    +0.135 A 
ATOM      6  C   UNL     1       1.213  -9.252  -6.613  0.00  0.00    +0.093 A 
ATOM      7  C   UNL     1       2.102  -8.472  -5.884  0.00  0.00    +0.138 A 
ATOM      8  O   UNL     1       3.098  -9.074  -5.189  0.00  0.00    -0.441 OA
ATOM      9  C   UNL     1       4.172  -8.363  -4.806  0.00  0.00    +0.199 C 
ATOM     10  C   UNL     1       4.149  -7.014  -4.740  0.00  0.00    +0.098 C 
ENDROOT
BRANCH   1  15
ATOM     11  C   UNL     1       1.453  -3.985  -2.429  0.00  0.00    +0.121 A 
ATOM     12  C   UNL     1       1.005  -4.914  -1.501  0.00  0.00    +0.045 A 
ATOM     13  C   UNL     1       1.176  -6.264  -1.740  0.00  0.00    +0.004 A 
ATOM     14  C   UNL     1       1.794  -6.689  -2.902  0.00  0.00    +0.005 A 
ATOM     15  C   UNL     1       2.242  -5.765  -3.827  0.00  0.00    -0.031 A 
ATOM     16  C   UNL     1       2.068  -4.414  -3.596  0.00  0.00    +0.050 A 
BRANCH  11  17
ATOM     17  O   UNL     1       1.285  -2.656  -2.196  0.00  0.00    -0.492 OA
BRANCH  17  18
ATOM     18  C   UNL     1       0.644  -2.287  -0.974  0.00  0.00    +0.229 C 
BRANCH  18  19
ATOM     19  C   UNL     1       0.545  -0.763  -0.890  0.00  0.00    +0.041 C 
BRANCH  19  21
ATOM     20  C   UNL     1      -0.240   1.157   0.504  0.00  0.00    +0.004 C 
ATOM     21  C   UNL     1      -0.141  -0.368   0.419  0.00  0.00    -0.000 C 
ENDBRANCH  19  21
ENDBRANCH  18  19
ENDBRANCH  17  18
ENDBRANCH  11  17
ENDBRANCH   1  15
BRANCH   9  22
ATOM     22  N   UNL     1       5.326  -9.028  -4.474  0.00  0.00    -0.328 N 
ATOM     23  H   UNL     1       5.358  -9.996  -4.517  0.00  0.00    +0.145 HD
ATOM     24  H   UNL     1       6.111  -8.529  -4.196  0.00  0.00    +0.145 HD
ENDBRANCH   9  22
BRANCH  10  25
ATOM     25  C   UNL     1       5.328  -6.316  -4.324  0.00  0.00    +0.101 C 
ATOM     26  N   UNL     1       6.264  -5.763  -3.995  0.00  0.00    -0.191 NA
ENDBRANCH  10  25
BRANCH   5  27
ATOM     27  O   UNL     1      -0.679  -9.417  -8.042  0.00  0.00    -0.423 OA
BRANCH  27  28
ATOM     28  C   UNL     1      -0.621  -9.353  -9.389  0.00  0.00    +0.337 C 
ATOM     29  O   UNL     1       0.258  -8.709  -9.930  0.00  0.00    -0.245 OA
BRANCH  28  30
ATOM     30  C   UNL     1      -1.585 -10.035 -10.173  0.00  0.00    +0.092 C 
ATOM     31  C   UNL     1      -1.528  -9.971 -11.521  0.00  0.00    +0.015 C 
BRANCH  31  32
ATOM     32  C   UNL     1      -2.527 -10.679 -12.334  0.00  0.00    -0.025 A 
ATOM     33  C   UNL     1      -3.543 -11.415 -11.713  0.00  0.00    +0.011 A 
ATOM     34  C   UNL     1      -4.477 -12.075 -12.479  0.00  0.00    +0.046 A 
ATOM     35  C   UNL     1      -4.412 -12.012 -13.867  0.00  0.00    +0.120 A 
ATOM     36  C   UNL     1      -3.405 -11.283 -14.488  0.00  0.00    +0.046 A 
ATOM     37  C   UNL     1      -2.469 -10.614 -13.731  0.00  0.00    +0.011 A 
BRANCH  35  38
ATOM     38  O   UNL     1      -5.335 -12.665 -14.617  0.00  0.00    -0.495 OA
ATOM     39  C   UNL     1      -5.210 -12.558 -16.037  0.00  0.00    +0.277 C 
ENDBRANCH  35  38
ENDBRANCH  31  32
ENDBRANCH  28  30
ENDBRANCH  27  28
ENDBRANCH   5  27
TORSDOF 12
