REMARK  Name = ZINC59102460
REMARK  5 active torsions:
REMARK  status: ('A' for Active; 'I' for Inactive)
REMARK    1  A    between atoms: C_3  and  S_16
REMARK    2  A    between atoms: C_6  and  N_7
REMARK    3  A    between atoms: C_8  and  C_10
REMARK    4  A    between atoms: S_16  and  C_17
REMARK    5  A    between atoms: C_20  and  N_23
REMARK                            x       y       z     vdW  Elec       q    Type
REMARK                         _______ _______ _______ _____ _____    ______ ____
ROOT
ATOM      1  C   UNL     1       0.110   1.424   0.035  0.00  0.00    +0.024 A 
ATOM      2  C   UNL     1       1.296   2.130   0.042  0.00  0.00    +0.017 A 
ATOM      3  C   UNL     1       2.509   1.452   0.018  0.00  0.00    +0.013 A 
ATOM      4  C   UNL     1       2.527   0.063  -0.013  0.00  0.00    +0.017 A 
ATOM      5  C   UNL     1       1.341  -0.643  -0.019  0.00  0.00    +0.024 A 
ATOM      6  C   UNL     1       0.129   0.035   0.004  0.00  0.00    +0.034 A 
ENDROOT
BRANCH   6   7
ATOM      7  N   UNL     1      -1.074  -0.681  -0.002  0.00  0.00    -0.281 N 
ATOM      8  C   UNL     1      -2.149  -0.188  -0.649  0.00  0.00    +0.255 C 
ATOM      9  O   UNL     1      -2.048   0.831  -1.309  0.00  0.00    -0.269 OA
ATOM     10  H   UNL     1      -1.135  -1.532   0.459  0.00  0.00    +0.155 HD
BRANCH   8  11
ATOM     11  C   UNL     1      -3.438  -0.877  -0.559  0.00  0.00    +0.075 A 
ATOM     12  C   UNL     1      -4.651  -0.543  -1.145  0.00  0.00    +0.022 A 
ATOM     13  C   UNL     1      -5.697  -1.391  -0.875  0.00  0.00    +0.024 A 
ATOM     14  C   UNL     1      -5.485  -2.467  -0.076  0.00  0.00    +0.056 A 
ATOM     15  S   UNL     1      -3.857  -2.366   0.326  0.00  0.00    -0.077 S 
ATOM     16 BR   UNL     1      -6.733  -3.784   0.456  0.00  0.00    -0.043 Br
ENDBRANCH   8  11
ENDBRANCH   6   7
BRANCH   3  17
ATOM     17  S   UNL     1       4.023   2.353   0.026  0.00  0.00    -0.089 S 
BRANCH  17  18
ATOM     18  C   UNL     1       3.517   4.037  -0.083  0.00  0.00    +0.013 A 
ATOM     19  C   UNL     1       3.179   4.739   1.068  0.00  0.00    +0.017 A 
ATOM     20  C   UNL     1       2.783   6.059   0.979  0.00  0.00    +0.034 A 
ATOM     21  C   UNL     1       2.722   6.682  -0.254  0.00  0.00    +0.126 A 
ATOM     22  C   UNL     1       3.058   5.987  -1.402  0.00  0.00    +0.034 A 
ATOM     23  C   UNL     1       3.461   4.669  -1.320  0.00  0.00    +0.017 A 
BRANCH  21  24
ATOM     24  N   UNL     1       2.296   8.097  -0.346  0.00  0.00    +0.056 N 
ATOM     25  O   UNL     1       2.002   8.706   0.656  0.00  0.00    -0.126 OA
ATOM     26  O   UNL     1       2.243   8.643  -1.423  0.00  0.00    -0.126 OA
ENDBRANCH  21  24
ENDBRANCH  17  18
ENDBRANCH   3  17
TORSDOF 5
