REMARK  Name = ZINC08705733
REMARK  9 active torsions:
REMARK  status: ('A' for Active; 'I' for Inactive)
REMARK    1  A    between atoms: C_1  and  C_2
REMARK    2  A    between atoms: C_5  and  S_8
REMARK    3  A    between atoms: S_8  and  C_9
REMARK    4  A    between atoms: C_9  and  C_10
REMARK    5  A    between atoms: C_10  and  N_11
REMARK    6  A    between atoms: C_12  and  C_14
REMARK    7  A    between atoms: C_14  and  N_15
REMARK    8  A    between atoms: C_18  and  C_22
REMARK    9  A    between atoms: C_18  and  C_23
REMARK                            x       y       z     vdW  Elec       q    Type
REMARK                         _______ _______ _______ _____ _____    ______ ____
ROOT
ATOM      1  N   UNL     1      -0.255   1.944   6.293  0.00  0.00    -0.215 N 
ATOM      2  C   UNL     1      -1.182   1.032   6.647  0.00  0.00    +0.251 C 
ATOM      3  O   UNL     1      -1.451   0.000   6.071  0.00  0.00    -0.272 OA
ATOM      4  C   UNL     1      -1.816   1.565   7.917  0.00  0.00    +0.136 C 
ATOM      5  N   UNL     1      -1.106   2.834   8.152  0.00  0.00    -0.281 N 
ATOM      6  C   UNL     1      -0.212   2.966   7.156  0.00  0.00    +0.310 C 
ATOM      7  O   UNL     1       0.547   3.909   7.049  0.00  0.00    -0.252 OA
ATOM      8  C   UNL     1      -3.311   1.814   7.708  0.00  0.00    +0.047 C 
ATOM      9  H   UNL     1      -1.252   3.452   8.885  0.00  0.00    +0.152 HD
ENDROOT
BRANCH   4  10
ATOM     10  C   UNL     1      -1.595   0.609   9.061  0.00  0.00    -0.008 A 
ATOM     11  C   UNL     1      -0.868   0.997  10.145  0.00  0.00    +0.007 A 
ATOM     12  C   UNL     1      -0.652   0.127  11.212  0.00  0.00    +0.001 A 
ATOM     13  C   UNL     1      -1.163  -1.134  11.203  0.00  0.00    +0.008 A 
ATOM     14  C   UNL     1      -1.919  -1.570  10.101  0.00  0.00    -0.018 A 
ATOM     15  C   UNL     1      -2.142  -0.684   9.018  0.00  0.00    -0.012 A 
ATOM     16  C   UNL     1      -2.893  -1.122   7.913  0.00  0.00    +0.009 A 
ATOM     17  C   UNL     1      -3.404  -2.383   7.904  0.00  0.00    +0.001 A 
ATOM     18  C   UNL     1      -3.189  -3.252   8.972  0.00  0.00    +0.001 A 
ATOM     19  C   UNL     1      -2.462  -2.865  10.055  0.00  0.00    +0.008 A 
ENDBRANCH   4  10
BRANCH   1  20
ATOM     20  C   UNL     1       0.605   1.828   5.112  0.00  0.00    +0.213 C 
BRANCH  20  22
ATOM     21  N   UNL     1       0.535   2.489   2.729  0.00  0.00    -0.313 N 
ATOM     22  C   UNL     1      -0.073   2.475   3.932  0.00  0.00    +0.231 C 
ATOM     23  O   UNL     1      -1.167   2.983   4.064  0.00  0.00    -0.274 OA
ATOM     24  H   UNL     1       1.410   2.083   2.624  0.00  0.00    +0.149 HD
BRANCH  21  25
ATOM     25  C   UNL     1      -0.124   3.118   1.582  0.00  0.00    +0.115 C 
BRANCH  25  26
ATOM     26  C   UNL     1       0.774   2.997   0.349  0.00  0.00    +0.093 C 
BRANCH  26  27
ATOM     27  S   UNL     1      -0.042   3.776  -1.071  0.00  0.00    -0.124 S 
BRANCH  27  32
ATOM     28  C   UNL     1       3.876   3.023  -5.601  0.00  0.00    +0.044 C 
ATOM     29  C   UNL     1       2.898   3.211  -4.470  0.00  0.00    -0.050 A 
ATOM     30  C   UNL     1       1.700   3.864  -4.696  0.00  0.00    +0.004 A 
ATOM     31  C   UNL     1       0.801   4.039  -3.662  0.00  0.00    +0.015 A 
ATOM     32  C   UNL     1       1.101   3.556  -2.394  0.00  0.00    +0.008 A 
ATOM     33  C   UNL     1       2.308   2.904  -2.169  0.00  0.00    +0.015 A 
ATOM     34  C   UNL     1       3.200   2.728  -3.209  0.00  0.00    +0.004 A 
ENDBRANCH  27  32
ENDBRANCH  26  27
ENDBRANCH  25  26
ENDBRANCH  21  25
ENDBRANCH  20  22
ENDBRANCH   1  20
TORSDOF 7
