REMARK  Name = ZINC16854565
REMARK  10 active torsions:
REMARK  status: ('A' for Active; 'I' for Inactive)
REMARK    1  A    between atoms: C_1  and  C_2
REMARK    2  A    between atoms: C_5  and  N_8
REMARK    3  A    between atoms: C_14  and  C_18
REMARK    4  A    between atoms: C_15  and  C_17
REMARK    5  A    between atoms: C_18  and  C_19
REMARK    6  A    between atoms: C_19  and  S_20
REMARK    7  A    between atoms: S_20  and  C_21
REMARK    8  A    between atoms: C_21  and  C_22
REMARK    9  A    between atoms: C_22  and  C_23
REMARK   10  A    between atoms: C_22  and  C_24
REMARK                            x       y       z     vdW  Elec       q    Type
REMARK                         _______ _______ _______ _____ _____    ______ ____
ROOT
ATOM      1  N   UNL     1      -1.236   2.069   0.019  0.00  0.00    -0.285 N 
ATOM      2  C   UNL     1      -1.255   3.435   0.130  0.00  0.00    +0.200 A 
ATOM      3  N   UNL     1      -2.448   4.081   0.236  0.00  0.00    -0.295 N 
ATOM      4  H   UNL     1      -3.277   3.577   0.232  0.00  0.00    +0.172 HD
ATOM      5  C   UNL     1      -2.474   5.426   0.351  0.00  0.00    +0.256 A 
ATOM      6  O   UNL     1      -3.534   6.021   0.452  0.00  0.00    -0.267 OA
ATOM      7  C   UNL     1      -1.256   6.128   0.348  0.00  0.00    +0.039 A 
ATOM      8  C   UNL     1      -0.091   5.427   0.233  0.00  0.00    +0.050 A 
ATOM      9  N   UNL     1      -0.117   4.101   0.127  0.00  0.00    -0.221 NA
ATOM     10  C   UNL     1       1.228   6.156   0.226  0.00  0.00    +0.066 C 
ATOM     11  H   UNL     1      -2.061   1.564   0.103  0.00  0.00    +0.155 HD
ENDROOT
BRANCH   1  16
ATOM     12  C   UNL     1       3.653  -0.641  -0.944  0.00  0.00    +0.044 C 
ATOM     13  C   UNL     1       2.355   0.080  -0.687  0.00  0.00    -0.050 A 
ATOM     14  C   UNL     1       1.376  -0.517   0.087  0.00  0.00    +0.005 A 
ATOM     15  C   UNL     1       0.185   0.141   0.324  0.00  0.00    +0.023 A 
ATOM     16  C   UNL     1      -0.029   1.403  -0.215  0.00  0.00    +0.034 A 
ATOM     17  C   UNL     1       0.956   1.999  -0.991  0.00  0.00    +0.023 A 
ATOM     18  C   UNL     1       2.144   1.336  -1.225  0.00  0.00    +0.005 A 
ENDBRANCH   1  16
BRANCH   7  19
ATOM     19  C   UNL     1      -1.237   7.630   0.469  0.00  0.00    +0.053 C 
BRANCH  19  20
ATOM     20  C   UNL     1      -1.427   8.256  -0.915  0.00  0.00    +0.074 C 
BRANCH  20  21
ATOM     21  S   UNL     1      -1.404  10.064  -0.769  0.00  0.00    -0.160 S 
BRANCH  21  22
ATOM     22  C   UNL     1      -1.639  10.644  -2.471  0.00  0.00    +0.072 C 
BRANCH  22  23
ATOM     23  C   UNL     1      -1.639  12.174  -2.493  0.00  0.00    -0.007 C 
ATOM     24  C   UNL     1      -0.261  12.691  -2.075  0.00  0.00    +0.008 C 
ATOM     25  C   UNL     1      -1.961  12.664  -3.906  0.00  0.00    +0.008 C 
ENDBRANCH  22  23
ENDBRANCH  21  22
ENDBRANCH  20  21
ENDBRANCH  19  20
ENDBRANCH   7  19
TORSDOF 6
