REMARK  Name = ZINC06664852
REMARK  8 active torsions:
REMARK  status: ('A' for Active; 'I' for Inactive)
REMARK    1  A    between atoms: C_1  and  N_2
REMARK    2  A    between atoms: N_2  and  C_3
REMARK    3  A    between atoms: N_2  and  C_4
REMARK    4  A    between atoms: C_6  and  N_21
REMARK    5  A    between atoms: C_9  and  N_10
REMARK    6  A    between atoms: N_21  and  C_22
REMARK    7  A    between atoms: C_22  and  C_23
REMARK    8  A    between atoms: C_23  and  C_24
REMARK                            x       y       z     vdW  Elec       q    Type
REMARK                         _______ _______ _______ _____ _____    ______ ____
ROOT
ATOM      1  C   UNL     1      -0.011  -0.544  -1.303  0.00  0.00    +0.053 A 
ATOM      2  C   UNL     1       1.188  -0.871  -1.907  0.00  0.00    +0.048 A 
ATOM      3  C   UNL     1       1.212  -1.707  -3.022  0.00  0.00    +0.041 A 
ATOM      4  C   UNL     1       0.015  -2.222  -3.538  0.00  0.00    +0.056 A 
ATOM      5  C   UNL     1      -1.214  -1.890  -2.922  0.00  0.00    +0.057 A 
ATOM      6  C   UNL     1      -1.223  -1.056  -1.804  0.00  0.00    +0.058 A 
ATOM      7  C   UNL     1      -2.474  -2.427  -3.458  0.00  0.00    +0.196 C 
ATOM      8  O   UNL     1      -3.532  -2.141  -2.929  0.00  0.00    -0.287 OA
ATOM      9  C   UNL     1      -2.453  -3.313  -4.640  0.00  0.00    +0.033 A 
ATOM     10  C   UNL     1      -3.641  -3.825  -5.155  0.00  0.00    +0.012 A 
ATOM     11  C   UNL     1      -3.611  -4.654  -6.262  0.00  0.00    +0.001 A 
ATOM     12  C   UNL     1      -2.408  -4.978  -6.863  0.00  0.00    +0.001 A 
ATOM     13  C   UNL     1      -1.219  -4.478  -6.364  0.00  0.00    +0.012 A 
ATOM     14  C   UNL     1      -1.230  -3.642  -5.250  0.00  0.00    +0.033 A 
ATOM     15  C   UNL     1       0.035  -3.102  -4.711  0.00  0.00    +0.196 C 
ATOM     16  O   UNL     1       1.093  -3.387  -5.240  0.00  0.00    -0.287 OA
ENDROOT
BRANCH   1  18
ATOM     17  C   UNL     1      -0.137   1.741  -0.366  0.00  0.00    +0.129 C 
ATOM     18  N   UNL     1      -0.019   0.291  -0.191  0.00  0.00    -0.335 N 
ATOM     19  C   UNL     1       0.089  -0.278   1.154  0.00  0.00    +0.129 C 
ENDBRANCH   1  18
BRANCH   6  20
ATOM     20  N   UNL     1      -2.422  -0.729  -1.190  0.00  0.00    -0.356 N 
ATOM     21  H   UNL     1      -2.499   0.095  -0.684  0.00  0.00    +0.142 HD
ATOM     22  H   UNL     1      -3.185  -1.323  -1.268  0.00  0.00    +0.142 HD
ENDBRANCH   6  20
BRANCH   3  23
ATOM     23  N   UNL     1       2.420  -2.029  -3.620  0.00  0.00    -0.343 N 
ATOM     24  H   UNL     1       2.448  -2.682  -4.337  0.00  0.00    +0.146 HD
BRANCH  23  25
ATOM     25  C   UNL     1       3.656  -1.383  -3.171  0.00  0.00    +0.106 C 
BRANCH  25  26
ATOM     26  C   UNL     1       4.835  -1.912  -3.989  0.00  0.00    +0.054 C 
BRANCH  26  27
ATOM     27  C   UNL     1       6.106  -1.248  -3.526  0.00  0.00    -0.046 A 
ATOM     28  C   UNL     1       6.522  -0.066  -4.112  0.00  0.00    +0.004 A 
ATOM     29  C   UNL     1       7.687   0.543  -3.687  0.00  0.00    +0.000 A 
ATOM     30  C   UNL     1       8.438  -0.029  -2.677  0.00  0.00    +0.000 A 
ATOM     31  C   UNL     1       8.022  -1.209  -2.091  0.00  0.00    +0.000 A 
ATOM     32  C   UNL     1       6.854  -1.817  -2.512  0.00  0.00    +0.004 A 
ENDBRANCH  26  27
ENDBRANCH  25  26
ENDBRANCH  23  25
ENDBRANCH   3  23
TORSDOF 6
