REMARK  Name = ZINC00947866
REMARK  2 active torsions:
REMARK  status: ('A' for Active; 'I' for Inactive)
REMARK    1  A    between atoms: C_6  and  C_7
REMARK    2  A    between atoms: C_7  and  N_8
REMARK                            x       y       z     vdW  Elec       q    Type
REMARK                         _______ _______ _______ _____ _____    ______ ____
ROOT
ATOM      1  N   UNL     1      -0.721   1.571  -1.179  0.00  0.00    -0.324 N 
ATOM      2  C   UNL     1      -0.256   1.250  -2.441  0.00  0.00    +0.131 A 
ATOM      3  C   UNL     1      -0.994   1.626  -3.598  0.00  0.00    +0.051 A 
ATOM      4  C   UNL     1      -2.263   2.351  -3.681  0.00  0.00    -0.025 A 
ATOM      5  C   UNL     1      -2.756   2.583  -4.915  0.00  0.00    -0.004 A 
ATOM      6  S   UNL     1      -1.578   1.861  -6.027  0.00  0.00    -0.073 S 
ATOM      7  C   UNL     1      -0.423   1.246  -4.829  0.00  0.00    +0.114 A 
ATOM      8  N   UNL     1       0.718   0.587  -4.886  0.00  0.00    -0.228 NA
ATOM      9  C   UNL     1       1.357   0.266  -3.778  0.00  0.00    +0.224 A 
ATOM     10  N   UNL     1       0.883   0.595  -2.589  0.00  0.00    -0.220 NA
ATOM     11  C   UNL     1      -4.025   3.297  -5.266  0.00  0.00    +0.043 C 
ATOM     12  C   UNL     1      -4.885   3.408  -3.999  0.00  0.00    +0.005 C 
ATOM     13  C   UNL     1      -4.005   3.917  -2.853  0.00  0.00    +0.005 C 
ATOM     14  C   UNL     1      -3.010   2.832  -2.440  0.00  0.00    +0.037 C 
ATOM     15  H   UNL     1      -1.594   1.982  -1.073  0.00  0.00    +0.148 HD
ENDROOT
BRANCH   1  16
ATOM     16  C   UNL     1       0.104   1.291  -0.001  0.00  0.00    +0.138 C 
BRANCH  16  22
ATOM     17  C   UNL     1      -0.457   3.018   1.720  0.00  0.00    +0.009 A 
ATOM     18  C   UNL     1      -1.130   3.429   2.856  0.00  0.00    +0.050 A 
ATOM     19  C   UNL     1      -1.967   2.550   3.523  0.00  0.00    +0.166 A 
ATOM     20  C   UNL     1      -2.133   1.253   3.043  0.00  0.00    +0.167 A 
ATOM     21  C   UNL     1      -1.461   0.849   1.901  0.00  0.00    +0.054 A 
ATOM     22  C   UNL     1      -0.627   1.733   1.241  0.00  0.00    -0.027 A 
ATOM     23  O   UNL     1      -2.998   0.591   3.865  0.00  0.00    -0.453 OA
ATOM     24  C   UNL     1      -3.041   1.363   5.080  0.00  0.00    +0.466 C 
ATOM     25  O   UNL     1      -2.727   2.700   4.646  0.00  0.00    -0.453 OA
ENDBRANCH  16  22
ENDBRANCH   1  16
TORSDOF 2
