REMARK  Name = ZINC65479906
REMARK  11 active torsions:
REMARK  status: ('A' for Active; 'I' for Inactive)
REMARK    1  A    between atoms: C_1  and  C_2
REMARK    2  A    between atoms: C_4  and  C_27
REMARK    3  A    between atoms: N_6  and  C_8
REMARK    4  A    between atoms: C_8  and  C_9
REMARK    5  A    between atoms: C_9  and  N_10
REMARK    6  A    between atoms: N_13  and  C_14
REMARK    7  A    between atoms: C_14  and  C_15
REMARK    8  A    between atoms: C_14  and  C_16
REMARK    9  A    between atoms: C_19  and  S_22
REMARK   10  A    between atoms: S_22  and  N_25
REMARK   11  A    between atoms: N_25  and  C_26
REMARK                            x       y       z     vdW  Elec       q    Type
REMARK                         _______ _______ _______ _____ _____    ______ ____
ROOT
ATOM      1  N   UNL     1       1.198  -2.551   4.899  0.00  0.00    -0.301 N 
ATOM      2  C   UNL     1       0.624  -2.318   6.096  0.00  0.00    +0.300 C 
ATOM      3  O   UNL     1      -0.426  -1.708   6.158  0.00  0.00    -0.253 OA
ATOM      4  N   UNL     1       1.213  -2.762   7.224  0.00  0.00    -0.293 N 
ATOM      5  H   UNL     1       2.035  -3.038   4.849  0.00  0.00    +0.150 HD
ATOM      6  H   UNL     1       2.050  -3.249   7.174  0.00  0.00    +0.151 HD
ENDROOT
BRANCH   4   7
ATOM      7  C   UNL     1       0.589  -2.509   8.525  0.00  0.00    +0.102 C 
ATOM      8  C   UNL     1       1.002  -1.124   9.028  0.00  0.00    +0.033 C 
BRANCH   7   9
ATOM      9  C   UNL     1       1.038  -3.556   9.510  0.00  0.00    -0.027 A 
ATOM     10  C   UNL     1       2.353  -3.983   9.514  0.00  0.00    +0.007 A 
ATOM     11  C   UNL     1       2.766  -4.944  10.418  0.00  0.00    +0.029 A 
ATOM     12  C   UNL     1       1.864  -5.478  11.319  0.00  0.00    +0.105 A 
ATOM     13  C   UNL     1       0.549  -5.051  11.316  0.00  0.00    +0.029 A 
ATOM     14  C   UNL     1       0.138  -4.087  10.415  0.00  0.00    +0.007 A 
BRANCH  12  15
ATOM     15  S   UNL     1       2.389  -6.704  12.470  0.00  0.00    +0.058 S 
ATOM     16  O   UNL     1       1.230  -7.437  12.840  0.00  0.00    -0.153 OA
ATOM     17  O   UNL     1       3.536  -7.325  11.906  0.00  0.00    -0.153 OA
BRANCH  15  18
ATOM     18  N   UNL     1       2.902  -5.910  13.830  0.00  0.00    -0.193 NA
ATOM     19  C   UNL     1       1.948  -5.141  14.632  0.00  0.00    +0.127 C 
ATOM     20  H   UNL     1       3.834  -5.955  14.095  0.00  0.00    +0.148 HD
ENDBRANCH  15  18
ENDBRANCH  12  15
ENDBRANCH   7   9
ENDBRANCH   4   7
BRANCH   1  21
ATOM     21  C   UNL     1       0.557  -2.069   3.673  0.00  0.00    +0.087 C 
BRANCH  21  22
ATOM     22  C   UNL     1       1.408  -2.463   2.464  0.00  0.00    -0.060 C 
BRANCH  22  28
ATOM     23  C   UNL     1      -0.019   1.526   0.010  0.00  0.00    +0.005 C 
ATOM     24  C   UNL     1       0.002  -0.004   0.002  0.00  0.00    -0.031 C 
ATOM     25  C   UNL     1       0.724  -0.499  -1.255  0.00  0.00    +0.003 C 
ATOM     26  C   UNL     1       0.808  -2.027  -1.215  0.00  0.00    -0.031 C 
ATOM     27  C   UNL     1       1.518  -2.460   0.070  0.00  0.00    -0.076 C 
ATOM     28  N   UNL     1       0.765  -1.980   1.235  0.00  0.00    +0.381 N 
ATOM     29  C   UNL     1       0.742  -0.512   1.241  0.00  0.00    -0.076 C 
ATOM     30  C   UNL     1       1.595  -2.527  -2.428  0.00  0.00    +0.005 C 
ATOM     31  H   UNL     1      -0.180  -2.330   1.191  0.00  0.00    -0.082 HD
ENDBRANCH  22  28
ENDBRANCH  21  22
ENDBRANCH   1  21
TORSDOF 7
