REMARK  Name = ZINC20873425
REMARK  12 active torsions:
REMARK  status: ('A' for Active; 'I' for Inactive)
REMARK    1  A    between atoms: C_1  and  C_2
REMARK    2  A    between atoms: C_2  and  C_4
REMARK    3  A    between atoms: C_2  and  N_14
REMARK    4  A    between atoms: N_14  and  C_15
REMARK    5  A    between atoms: C_15  and  C_16
REMARK    6  A    between atoms: C_21  and  O_22
REMARK    7  A    between atoms: O_22  and  C_23
REMARK    8  A    between atoms: C_23  and  C_24
REMARK    9  A    between atoms: N_26  and  C_27
REMARK   10  A    between atoms: C_27  and  C_28
REMARK   11  A    between atoms: C_27  and  C_29
REMARK   12  A    between atoms: C_27  and  C_30
REMARK                            x       y       z     vdW  Elec       q    Type
REMARK                         _______ _______ _______ _____ _____    ______ ____
ROOT
ATOM      1  C   UNL     1       3.657   1.271   0.738  0.00  0.00    -0.021 A 
ATOM      2  C   UNL     1       4.590   0.737  -0.131  0.00  0.00    +0.025 A 
ATOM      3  C   UNL     1       5.877   1.244  -0.162  0.00  0.00    +0.041 A 
ATOM      4  C   UNL     1       6.233   2.286   0.676  0.00  0.00    +0.023 A 
ATOM      5  C   UNL     1       5.303   2.822   1.546  0.00  0.00    +0.047 A 
ATOM      6  C   UNL     1       4.010   2.319   1.574  0.00  0.00    +0.123 A 
ATOM      7 CL   UNL     1       7.047   0.572  -1.254  0.00  0.00    -0.084 Cl
ENDROOT
BRANCH   1   8
ATOM      8  C   UNL     1       2.256   0.718   0.771  0.00  0.00    -0.043 C 
BRANCH   8   9
ATOM      9  N   UNL     1       1.365   1.594  -0.002  0.00  0.00    +0.384 N 
ATOM     10  H   UNL     1       1.731   1.642  -1.039  0.00  0.00    -0.085 HD
ATOM     11  H   UNL     1       1.388   2.601   0.441  0.00  0.00    -0.085 HD
BRANCH   9  13
ATOM     12  C   UNL     1      -0.729   1.579   1.267  0.00  0.00    -0.013 C 
ATOM     13  C   UNL     1      -0.013   1.086   0.008  0.00  0.00    -0.068 C 
BRANCH  13  14
ATOM     14  C   UNL     1      -0.753   1.593  -1.232  0.00  0.00    -0.041 C 
ATOM     15  C   UNL     1      -0.037   1.099  -2.490  0.00  0.00    +0.009 C 
ATOM     16  C   UNL     1      -0.777   1.606  -3.730  0.00  0.00    -0.010 C 
ATOM     17  C   UNL     1      -2.212   1.077  -3.719  0.00  0.00    +0.007 C 
ATOM     18  C   UNL     1      -2.928   1.570  -2.460  0.00  0.00    -0.010 C 
ATOM     19  C   UNL     1      -2.188   1.063  -1.221  0.00  0.00    +0.009 C 
ATOM     20  C   UNL     1      -2.949   3.100  -2.452  0.00  0.00    +0.007 C 
ATOM     21  C   UNL     1      -1.513   3.629  -2.463  0.00  0.00    -0.010 C 
ATOM     22  C   UNL     1      -0.797   3.136  -3.721  0.00  0.00    +0.007 C 
ATOM     23  C   UNL     1      -0.773   3.123  -1.223  0.00  0.00    +0.009 C 
ENDBRANCH  13  14
ENDBRANCH   9  13
ENDBRANCH   8   9
ENDBRANCH   1   8
BRANCH   6  24
ATOM     24  O   UNL     1       3.092   2.849   2.425  0.00  0.00    -0.483 OA
BRANCH  24  25
ATOM     25  C   UNL     1       3.526   3.927   3.258  0.00  0.00    +0.324 C 
BRANCH  25  26
ATOM     26  C   UNL     1       2.382   4.381   4.127  0.00  0.00    +0.251 C 
ATOM     27  O   UNL     1       1.302   3.836   4.042  0.00  0.00    -0.272 OA
ATOM     28  N   UNL     1       2.559   5.394   4.999  0.00  0.00    -0.308 N 
ATOM     29  H   UNL     1       3.539   5.888   5.076  0.00  0.00    +0.149 HD
BRANCH  28  30
ATOM     30  C   UNL     1       1.447   5.836   5.844  0.00  0.00    +0.026 C 
ATOM     31  C   UNL     1       0.977   4.672   6.719  0.00  0.00    +0.031 C 
ATOM     32  C   UNL     1       1.911   6.989   6.736  0.00  0.00    +0.031 C 
ATOM     33  C   UNL     1       0.291   6.308   4.960  0.00  0.00    +0.031 C 
ENDBRANCH  28  30
ENDBRANCH  25  26
ENDBRANCH  24  25
ENDBRANCH   6  24
TORSDOF 8
