REMARK  Name = ZINC13108183
REMARK  8 active torsions:
REMARK  status: ('A' for Active; 'I' for Inactive)
REMARK    1  A    between atoms: C_4  and  S_21
REMARK    2  A    between atoms: C_5  and  C_7
REMARK    3  A    between atoms: C_7  and  O_9
REMARK    4  A    between atoms: O_9  and  C_10
REMARK    5  A    between atoms: C_10  and  C_11
REMARK    6  A    between atoms: N_13  and  C_14
REMARK    7  A    between atoms: C_14  and  C_19
REMARK    8  A    between atoms: S_21  and  C_22
REMARK                            x       y       z     vdW  Elec       q    Type
REMARK                         _______ _______ _______ _____ _____    ______ ____
ROOT
ATOM      1  C   UNL     1      -2.505   2.944   4.086  0.00  0.00    +0.001 A 
ATOM      2  C   UNL     1      -2.731   4.262   4.453  0.00  0.00    +0.001 A 
ATOM      3  C   UNL     1      -2.251   5.296   3.677  0.00  0.00    +0.016 A 
ATOM      4  C   UNL     1      -1.532   5.022   2.519  0.00  0.00    +0.028 A 
ATOM      5  C   UNL     1      -1.306   3.688   2.142  0.00  0.00    +0.073 A 
ATOM      6  C   UNL     1      -1.799   2.652   2.940  0.00  0.00    +0.016 A 
ENDROOT
BRANCH   5   7
ATOM      7  C   UNL     1      -0.550   3.383   0.915  0.00  0.00    +0.341 C 
ATOM      8  O   UNL     1      -0.123   4.287   0.224  0.00  0.00    -0.245 OA
BRANCH   7   9
ATOM      9  O   UNL     1      -0.331   2.102   0.559  0.00  0.00    -0.452 OA
BRANCH   9  10
ATOM     10  C   UNL     1       0.422   1.876  -0.661  0.00  0.00    +0.328 C 
BRANCH  10  11
ATOM     11  C   UNL     1       0.566   0.394  -0.896  0.00  0.00    +0.252 C 
ATOM     12  O   UNL     1       0.082  -0.394  -0.111  0.00  0.00    -0.272 OA
ATOM     13  N   UNL     1       1.233  -0.055  -1.977  0.00  0.00    -0.295 N 
ATOM     14  H   UNL     1       1.620   0.575  -2.605  0.00  0.00    +0.150 HD
BRANCH  13  15
ATOM     15  C   UNL     1       1.373  -1.496  -2.205  0.00  0.00    +0.121 C 
ATOM     16  C   UNL     1       2.163  -2.139  -1.047  0.00  0.00    +0.041 C 
ATOM     17  C   UNL     1       3.031  -3.223  -1.737  0.00  0.00    +0.003 C 
ATOM     18  C   UNL     1       3.440  -2.539  -3.065  0.00  0.00    +0.003 C 
ATOM     19  C   UNL     1       2.184  -1.750  -3.488  0.00  0.00    +0.041 C 
BRANCH  15  20
ATOM     20  C   UNL     1       0.044  -2.119  -2.317  0.00  0.00    +0.088 C 
ATOM     21  N   UNL     1      -0.981  -2.601  -2.404  0.00  0.00    -0.194 NA
ENDBRANCH  15  20
ENDBRANCH  13  15
ENDBRANCH  10  11
ENDBRANCH   9  10
ENDBRANCH   7   9
ENDBRANCH   5   7
BRANCH   4  22
ATOM     22  S   UNL     1      -0.911   6.340   1.529  0.00  0.00    -0.068 S 
BRANCH  22  23
ATOM     23  C   UNL     1       0.785   6.309   2.005  0.00  0.00    +0.113 A 
ATOM     24  C   UNL     1       1.731   7.155   1.363  0.00  0.00    +0.043 A 
ATOM     25  C   UNL     1       1.504   8.126   0.281  0.00  0.00    -0.025 A 
ATOM     26  C   UNL     1       2.574   8.810  -0.156  0.00  0.00    -0.004 A 
ATOM     27  S   UNL     1       3.934   8.216   0.824  0.00  0.00    -0.073 S 
ATOM     28  C   UNL     1       3.055   7.046   1.824  0.00  0.00    +0.113 A 
ATOM     29  N   UNL     1       3.383   6.208   2.789  0.00  0.00    -0.228 NA
ATOM     30  C   UNL     1       2.462   5.447   3.348  0.00  0.00    +0.223 A 
ATOM     31  N   UNL     1       1.198   5.500   2.969  0.00  0.00    -0.228 NA
ATOM     32  C   UNL     1       2.222   9.774  -1.256  0.00  0.00    +0.043 C 
ATOM     33  C   UNL     1       0.687   9.921  -1.168  0.00  0.00    +0.010 C 
ATOM     34  C   UNL     1       0.282   8.580  -0.524  0.00  0.00    +0.037 C 
ENDBRANCH  22  23
ENDBRANCH   4  22
TORSDOF 8
