REMARK  Name = ZINC39237639
REMARK  6 active torsions:
REMARK  status: ('A' for Active; 'I' for Inactive)
REMARK    1  A    between atoms: C_1  and  C_2
REMARK    2  A    between atoms: C_3  and  C_29
REMARK    3  A    between atoms: C_7  and  S_9
REMARK    4  A    between atoms: S_9  and  C_10
REMARK    5  A    between atoms: C_12  and  C_23
REMARK    6  A    between atoms: C_29  and  C_30
REMARK                            x       y       z     vdW  Elec       q    Type
REMARK                         _______ _______ _______ _____ _____    ______ ____
ROOT
ATOM      1  C   UNL     1      -1.044   3.151  -6.076  0.00  0.00    +0.171 C 
ATOM      2  C   UNL     1      -0.305   3.638  -7.308  0.00  0.00    -0.009 C 
ATOM      3  C   UNL     1      -0.616   3.018  -8.521  0.00  0.00    +0.003 A 
ATOM      4  C   UNL     1       0.024   3.409  -9.716  0.00  0.00    +0.030 A 
ATOM      5  C   UNL     1      -0.298   2.788 -10.884  0.00  0.00    +0.042 A 
ATOM      6  C   UNL     1      -1.251   1.772 -10.925  0.00  0.00    +0.022 A 
ATOM      7  C   UNL     1      -1.902   1.352  -9.805  0.00  0.00    +0.025 A 
ATOM      8  C   UNL     1      -1.619   1.948  -8.563  0.00  0.00    +0.041 A 
ATOM      9  N   UNL     1      -2.259   1.533  -7.464  0.00  0.00    -0.284 N 
ATOM     10  C   UNL     1      -2.052   2.041  -6.266  0.00  0.00    +0.235 C 
ATOM     11  O   UNL     1      -2.672   1.613  -5.310  0.00  0.00    -0.274 OA
ATOM     12 CL   UNL     1       0.492   3.273 -12.351  0.00  0.00    -0.084 Cl
ATOM     13  H   UNL     1      -2.912   0.821  -7.555  0.00  0.00    +0.155 HD
ENDROOT
BRANCH   2  14
ATOM     14  C   UNL     1       0.659   4.675  -7.232  0.00  0.00    -0.020 A 
ATOM     15  C   UNL     1       0.274   5.970  -6.849  0.00  0.00    +0.008 A 
ATOM     16  C   UNL     1       1.218   6.971  -6.779  0.00  0.00    +0.001 A 
ATOM     17  C   UNL     1       2.543   6.703  -7.084  0.00  0.00    +0.000 A 
ATOM     18  C   UNL     1       2.932   5.428  -7.463  0.00  0.00    +0.001 A 
ATOM     19  C   UNL     1       2.005   4.413  -7.534  0.00  0.00    +0.008 A 
ENDBRANCH   2  14
BRANCH   1  20
ATOM     20  S   UNL     1       0.190   2.585  -4.873  0.00  0.00    -0.068 S 
BRANCH  20  27
ATOM     21  C   UNL     1      -0.075   1.142   0.030  0.00  0.00    +0.066 C 
ATOM     22  C   UNL     1      -0.794   1.633  -1.201  0.00  0.00    +0.050 A 
ATOM     23  C   UNL     1      -2.159   1.848  -1.174  0.00  0.00    +0.044 A 
ATOM     24  C   UNL     1      -2.784   2.302  -2.335  0.00  0.00    +0.278 A 
ATOM     25  O   UNL     1      -4.120   2.526  -2.352  0.00  0.00    -0.265 OA
ATOM     26  N   UNL     1      -2.052   2.512  -3.422  0.00  0.00    -0.183 NA
ATOM     27  C   UNL     1      -0.745   2.294  -3.409  0.00  0.00    +0.193 A 
ATOM     28  N   UNL     1      -0.123   1.867  -2.319  0.00  0.00    -0.227 NA
BRANCH  23  29
ATOM     29  C   UNL     1      -2.953   1.597   0.082  0.00  0.00    +0.069 C 
BRANCH  29  30
ATOM     30  C   UNL     1      -2.998   2.856   0.908  0.00  0.00    -0.030 C 
ATOM     31  C   UNL     1      -4.151   3.357   1.276  0.00  0.00    +0.004 C 
ENDBRANCH  29  30
ENDBRANCH  23  29
ENDBRANCH  20  27
ENDBRANCH   1  20
TORSDOF 5
