REMARK  Name = ZINC23244341
REMARK  9 active torsions:
REMARK  status: ('A' for Active; 'I' for Inactive)
REMARK    1  A    between atoms: C_1  and  O_2
REMARK    2  A    between atoms: O_2  and  C_3
REMARK    3  A    between atoms: C_6  and  C_9
REMARK    4  A    between atoms: N_14  and  C_16
REMARK    5  A    between atoms: C_16  and  C_17
REMARK    6  A    between atoms: C_17  and  N_18
REMARK    7  A    between atoms: N_21  and  S_24
REMARK    8  A    between atoms: S_24  and  C_27
REMARK    9  A    between atoms: C_30  and  C_33
REMARK                            x       y       z     vdW  Elec       q    Type
REMARK                         _______ _______ _______ _____ _____    ______ ____
ROOT
ATOM      1  N   UNL     1       1.193  -2.731  -4.386  0.00  0.00    +0.383 N 
ATOM      2  C   UNL     1       2.408  -2.343  -3.656  0.00  0.00    -0.061 C 
ATOM      3  C   UNL     1       2.481  -3.125  -2.341  0.00  0.00    +0.091 C 
ATOM      4  N   UNL     1       1.223  -2.923  -1.606  0.00  0.00    -0.180 NA
ATOM      5  C   UNL     1      -0.043  -3.166  -2.314  0.00  0.00    +0.091 C 
ATOM      6  C   UNL     1      -0.017  -2.376  -3.632  0.00  0.00    -0.061 C 
ATOM      7  H   UNL     1       1.207  -3.825  -4.501  0.00  0.00    -0.082 HD
ENDROOT
BRANCH   4   8
ATOM      8  S   UNL     1       1.232  -2.441  -0.022  0.00  0.00    +0.061 S 
ATOM      9  O   UNL     1       2.489  -2.832   0.515  0.00  0.00    -0.153 OA
ATOM     10  O   UNL     1      -0.002  -2.866   0.539  0.00  0.00    -0.153 OA
BRANCH   8  11
ATOM     11  C   UNL     1       1.208  -0.679  -0.013  0.00  0.00    +0.105 A 
ATOM     12  C   UNL     1       0.002  -0.004   0.002  0.00  0.00    +0.029 A 
ATOM     13  C   UNL     1      -0.017   1.378   0.010  0.00  0.00    +0.014 A 
ATOM     14  C   UNL     1       1.171   2.086   0.002  0.00  0.00    +0.055 A 
ATOM     15  C   UNL     1       2.377   1.411  -0.015  0.00  0.00    +0.014 A 
ATOM     16  C   UNL     1       2.396   0.029  -0.021  0.00  0.00    +0.029 A 
BRANCH  14  17
ATOM     17  C   UNL     1       1.151   3.592   0.010  0.00  0.00    +0.417 C 
ATOM     18  F   UNL     1       1.157   4.052   1.331  0.00  0.00    -0.166 F 
ATOM     19  F   UNL     1       2.280   4.077  -0.658  0.00  0.00    -0.166 F 
ATOM     20  F   UNL     1      -0.004   4.046  -0.636  0.00  0.00    -0.166 F 
ENDBRANCH  14  17
ENDBRANCH   8  11
ENDBRANCH   4   8
BRANCH   1  21
ATOM     21  C   UNL     1       1.172  -2.134  -5.728  0.00  0.00    -0.055 C 
BRANCH  21  22
ATOM     22  C   UNL     1      -0.205  -2.350  -6.360  0.00  0.00    +0.129 C 
BRANCH  22  28
ATOM     23  C   UNL     1      -0.630   0.066  -9.000  0.00  0.00    +0.092 A 
ATOM     24  C   UNL     1      -0.270  -0.639 -10.172  0.00  0.00    +0.035 A 
ATOM     25  C   UNL     1       0.117  -1.941 -10.050  0.00  0.00    +0.074 A 
ATOM     26  C   UNL     1       0.139  -2.505  -8.755  0.00  0.00    +0.267 A 
ATOM     27  O   UNL     1       0.483  -3.665  -8.595  0.00  0.00    -0.266 OA
ATOM     28  N   UNL     1      -0.226  -1.754  -7.698  0.00  0.00    -0.231 N 
ATOM     29  N   UNL     1      -0.588  -0.530  -7.832  0.00  0.00    -0.168 NA
BRANCH  23  33
ATOM     30  C   UNL     1      -1.853   4.131  -9.263  0.00  0.00    +0.120 A 
ATOM     31  C   UNL     1      -1.808   3.500  -8.028  0.00  0.00    +0.046 A 
ATOM     32  C   UNL     1      -1.412   2.182  -7.939  0.00  0.00    +0.013 A 
ATOM     33  C   UNL     1      -1.056   1.484  -9.092  0.00  0.00    +0.002 A 
ATOM     34  C   UNL     1      -1.096   2.122 -10.331  0.00  0.00    +0.013 A 
ATOM     35  C   UNL     1      -1.499   3.438 -10.413  0.00  0.00    +0.046 A 
BRANCH  30  37
ATOM     36  C   UNL     1      -2.267   6.017 -10.650  0.00  0.00    +0.277 C 
ATOM     37  O   UNL     1      -2.244   5.429  -9.348  0.00  0.00    -0.495 OA
ENDBRANCH  30  37
ENDBRANCH  23  33
ENDBRANCH  22  28
ENDBRANCH  21  22
ENDBRANCH   1  21
TORSDOF 8
