REMARK  Name = ZINC07154197
REMARK  6 active torsions:
REMARK  status: ('A' for Active; 'I' for Inactive)
REMARK    1  A    between atoms: C_1  and  C_2
REMARK    2  A    between atoms: C_9  and  C_14
REMARK    3  A    between atoms: C_14  and  S_15
REMARK    4  A    between atoms: S_15  and  C_16
REMARK    5  A    between atoms: C_19  and  C_22
REMARK    6  A    between atoms: N_20  and  C_21
REMARK                            x       y       z     vdW  Elec       q    Type
REMARK                         _______ _______ _______ _____ _____    ______ ____
ROOT
ATOM      1  C   UNL     1       0.138   0.089   4.756  0.00  0.00    +0.151 C 
ENDROOT
BRANCH   1  10
ATOM      2  C   UNL     1       0.771   1.632   0.022  0.00  0.00    +0.046 C 
ATOM      3  C   UNL     1       0.698   0.128  -0.022  0.00  0.00    -0.024 A 
ATOM      4  C   UNL     1       0.809  -0.536  -1.224  0.00  0.00    +0.005 A 
ATOM      5  C   UNL     1       0.743  -1.921  -1.280  0.00  0.00    +0.001 A 
ATOM      6  C   UNL     1       0.566  -2.662  -0.132  0.00  0.00    +0.015 A 
ATOM      7  C   UNL     1       0.451  -2.010   1.094  0.00  0.00    +0.065 A 
ATOM      8  C   UNL     1       0.522  -0.601   1.156  0.00  0.00    +0.081 A 
ATOM      9  N   UNL     1       0.414   0.011   2.362  0.00  0.00    -0.233 NA
ATOM     10  C   UNL     1       0.251  -0.667   3.457  0.00  0.00    +0.121 A 
ATOM     11  N   UNL     1       0.177  -2.023   3.492  0.00  0.00    -0.310 N 
ATOM     12  H   UNL     1       0.055  -2.476   4.341  0.00  0.00    +0.170 HD
ATOM     13  C   UNL     1       0.260  -2.748   2.352  0.00  0.00    +0.259 A 
ATOM     14  O   UNL     1       0.194  -3.963   2.369  0.00  0.00    -0.267 OA
ENDBRANCH   1  10
BRANCH   1  15
ATOM     15  S   UNL     1       0.268   1.869   4.432  0.00  0.00    -0.078 S 
BRANCH  15  16
ATOM     16  C   UNL     1       0.120   2.604   6.027  0.00  0.00    +0.192 A 
ATOM     17  N   UNL     1      -0.039   1.969   7.166  0.00  0.00    -0.122 NA
ATOM     18  N   UNL     1      -0.110   2.811   8.134  0.00  0.00    -0.128 NA
ATOM     19  C   UNL     1       0.001   4.035   7.673  0.00  0.00    +0.165 A 
ATOM     20  N   UNL     1       0.157   3.940   6.310  0.00  0.00    -0.305 N 
ATOM     21  C   UNL     1       0.324   5.042   5.359  0.00  0.00    +0.153 C 
BRANCH  19  22
ATOM     22  C   UNL     1      -0.031   5.280   8.470  0.00  0.00    +0.019 A 
ATOM     23  C   UNL     1      -0.282   6.504   7.847  0.00  0.00    +0.013 A 
ATOM     24  C   UNL     1      -0.310   7.662   8.595  0.00  0.00    +0.021 A 
ATOM     25  C   UNL     1      -0.091   7.613   9.961  0.00  0.00    +0.041 A 
ATOM     26  C   UNL     1       0.159   6.402  10.585  0.00  0.00    +0.021 A 
ATOM     27  C   UNL     1       0.184   5.236   9.848  0.00  0.00    +0.013 A 
ATOM     28 CL   UNL     1      -0.128   9.075  10.896  0.00  0.00    -0.084 Cl
ENDBRANCH  19  22
ENDBRANCH  15  16
ENDBRANCH   1  15
TORSDOF 4
