REMARK  Name = ZINC32983578
REMARK  6 active torsions:
REMARK  status: ('A' for Active; 'I' for Inactive)
REMARK    1  A    between atoms: C_1  and  C_2
REMARK    2  A    between atoms: C_2  and  C_4
REMARK    3  A    between atoms: C_2  and  N_10
REMARK    4  A    between atoms: C_4  and  C_5
REMARK    5  A    between atoms: C_11  and  C_13
REMARK    6  A    between atoms: C_23  and  C_24
REMARK                            x       y       z     vdW  Elec       q    Type
REMARK                         _______ _______ _______ _____ _____    ______ ____
ROOT
ATOM      1  C   UNL     1       1.773  -0.494  -0.855  0.00  0.00    +0.039 A 
ATOM      2  C   UNL     1       0.494  -0.005  -0.578  0.00  0.00    +0.017 A 
ATOM      3  C   UNL     1       0.307   1.339  -0.338  0.00  0.00    +0.049 A 
ATOM      4  C   UNL     1       1.387   2.210  -0.370  0.00  0.00    +0.150 A 
ATOM      5  C   UNL     1       2.669   1.728  -0.645  0.00  0.00    +0.077 A 
ATOM      6  C   UNL     1       2.862   0.380  -0.887  0.00  0.00    +0.040 A 
ATOM      7  N   UNL     1       3.760   2.608  -0.676  0.00  0.00    -0.276 N 
ATOM      8  C   UNL     1       3.605   3.857  -0.176  0.00  0.00    +0.284 C 
ATOM      9  O   UNL     1       4.526   4.653  -0.168  0.00  0.00    -0.266 OA
ATOM     10  C   UNL     1       2.276   4.218   0.361  0.00  0.00    +0.191 C 
ATOM     11  C   UNL     1       2.132   5.177   1.302  0.00  0.00    +0.059 C 
ATOM     12  O   UNL     1       1.198   3.537  -0.136  0.00  0.00    -0.449 OA
ATOM     13  H   UNL     1       4.720   2.279  -1.101  0.00  0.00    +0.155 HD
ENDROOT
BRANCH  11  14
ATOM     14  C   UNL     1       3.318   5.750   1.957  0.00  0.00    -0.021 A 
ATOM     15  C   UNL     1       3.355   7.110   2.279  0.00  0.00    +0.009 A 
ATOM     16  C   UNL     1       4.467   7.639   2.898  0.00  0.00    +0.020 A 
ATOM     17  C   UNL     1       5.552   6.829   3.190  0.00  0.00    +0.041 A 
ATOM     18  C   UNL     1       5.526   5.481   2.868  0.00  0.00    +0.020 A 
ATOM     19  C   UNL     1       4.417   4.938   2.254  0.00  0.00    +0.009 A 
ATOM     20 CL   UNL     1       6.952   7.504   3.963  0.00  0.00    -0.084 Cl
ENDBRANCH  11  14
BRANCH   1  22
ATOM     21  N   UNL     1       0.923  -2.777  -1.081  0.00  0.00    -0.308 N 
ATOM     22  C   UNL     1       1.974  -1.934  -1.113  0.00  0.00    +0.244 C 
ATOM     23  O   UNL     1       3.087  -2.359  -1.353  0.00  0.00    -0.270 OA
ATOM     24  H   UNL     1      -0.085  -2.393  -0.863  0.00  0.00    +0.149 HD
BRANCH  21  26
ATOM     25  C   UNL     1       1.534  -4.904  -0.038  0.00  0.00    +0.028 C 
ATOM     26  C   UNL     1       1.122  -4.206  -1.336  0.00  0.00    +0.077 C 
BRANCH  26  27
ATOM     27  C   UNL     1      -0.182  -4.818  -1.853  0.00  0.00    +0.096 C 
BRANCH  27  28
ATOM     28  C   UNL     1      -0.523  -4.217  -3.192  0.00  0.00    +0.107 A 
ATOM     29  C   UNL     1      -0.129  -4.688  -4.389  0.00  0.00    +0.045 A 
ATOM     30  C   UNL     1      -0.674  -3.826  -5.368  0.00  0.00    +0.041 A 
ATOM     31  C   UNL     1      -1.361  -2.875  -4.711  0.00  0.00    +0.195 A 
ATOM     32  O   UNL     1      -1.266  -3.117  -3.393  0.00  0.00    -0.468 OA
ENDBRANCH  27  28
ENDBRANCH  26  27
ENDBRANCH  21  26
ENDBRANCH   1  22
TORSDOF 5
