REMARK  Name = ZINC12568605
REMARK  5 active torsions:
REMARK  status: ('A' for Active; 'I' for Inactive)
REMARK    1  A    between atoms: C_1  and  C_2
REMARK    2  A    between atoms: C_2  and  C_4
REMARK    3  A    between atoms: C_2  and  S_12
REMARK    4  A    between atoms: S_12  and  C_13
REMARK    5  A    between atoms: C_17  and  C_19
REMARK                            x       y       z     vdW  Elec       q    Type
REMARK                         _______ _______ _______ _____ _____    ______ ____
ROOT
ATOM      1  C   UNL     1       1.166  -0.656  -0.013  0.00  0.00    +0.115 A 
ATOM      2  C   UNL     1       2.335   0.087  -0.020  0.00  0.00    +0.070 A 
ATOM      3  C   UNL     1       2.302   1.499  -0.012  0.00  0.00    +0.083 A 
ATOM      4  C   UNL     1       3.553   2.132  -0.021  0.00  0.00    +0.044 A 
ATOM      5  C   UNL     1       4.690   1.387  -0.035  0.00  0.00    +0.022 A 
ATOM      6  S   UNL     1       4.067  -0.286  -0.038  0.00  0.00    -0.084 S 
ATOM      7  N   UNL     1       1.063   2.055   0.003  0.00  0.00    -0.235 NA
ATOM      8  C   UNL     1      -0.016   1.317   0.009  0.00  0.00    +0.223 A 
ATOM      9  N   UNL     1       0.002  -0.004   0.002  0.00  0.00    -0.228 NA
ENDROOT
BRANCH   5  10
ATOM     10  C   UNL     1       6.095   1.848  -0.047  0.00  0.00    -0.011 A 
ATOM     11  C   UNL     1       6.385   3.213  -0.049  0.00  0.00    +0.010 A 
ATOM     12  C   UNL     1       7.697   3.637  -0.054  0.00  0.00    +0.016 A 
ATOM     13  C   UNL     1       8.726   2.711  -0.069  0.00  0.00    +0.018 A 
ATOM     14  C   UNL     1       8.446   1.355  -0.073  0.00  0.00    +0.016 A 
ATOM     15  C   UNL     1       7.137   0.919  -0.062  0.00  0.00    +0.010 A 
ATOM     16 BR   UNL     1      10.523   3.301  -0.084  0.00  0.00    -0.050 Br
ENDBRANCH   5  10
BRANCH   1  17
ATOM     17  S   UNL     1       1.215  -2.417  -0.022  0.00  0.00    -0.092 S 
BRANCH  17  19
ATOM     18  C   UNL     1      -1.167  -2.293   1.309  0.00  0.00    +0.029 C 
ATOM     19  C   UNL     1      -0.558  -2.781  -0.006  0.00  0.00    +0.136 C 
BRANCH  19  20
ATOM     20  C   UNL     1      -0.767  -4.268  -0.136  0.00  0.00    +0.236 C 
ATOM     21  O   UNL     1       0.103  -5.035   0.216  0.00  0.00    -0.274 OA
ATOM     22  N   UNL     1      -1.921  -4.745  -0.643  0.00  0.00    -0.224 N 
ATOM     23  C   UNL     1      -2.248  -6.167  -0.827  0.00  0.00    +0.136 C 
ATOM     24  C   UNL     1      -3.667  -6.145  -1.428  0.00  0.00    +0.125 C 
ATOM     25  N   UNL     1      -3.986  -4.712  -1.527  0.00  0.00    -0.297 N 
ATOM     26  C   UNL     1      -2.951  -3.998  -1.065  0.00  0.00    +0.309 C 
ATOM     27  O   UNL     1      -2.946  -2.784  -1.030  0.00  0.00    -0.252 OA
ATOM     28  H   UNL     1      -4.813  -4.343  -1.872  0.00  0.00    +0.150 HD
ENDBRANCH  19  20
ENDBRANCH  17  19
ENDBRANCH   1  17
TORSDOF 4
