REMARK  Name = ZINC38669991
REMARK  11 active torsions:
REMARK  status: ('A' for Active; 'I' for Inactive)
REMARK    1  A    between atoms: C_1  and  N_2
REMARK    2  A    between atoms: C_9  and  C_11
REMARK    3  A    between atoms: C_11  and  C_13
REMARK    4  A    between atoms: C_11  and  N_26
REMARK    5  A    between atoms: C_13  and  N_14
REMARK    6  A    between atoms: C_15  and  C_17
REMARK    7  A    between atoms: C_17  and  C_18
REMARK    8  A    between atoms: C_18  and  S_19
REMARK    9  A    between atoms: S_19  and  C_20
REMARK   10  A    between atoms: N_26  and  C_27
REMARK   11  A    between atoms: N_26  and  C_28
REMARK                            x       y       z     vdW  Elec       q    Type
REMARK                         _______ _______ _______ _____ _____    ______ ____
ROOT
ATOM      1  C   UNL     1      -0.171  -3.835   4.099  0.00  0.00    -0.021 C 
ENDROOT
BRANCH   1  10
ATOM      2  C   UNL     1      -0.724   0.911  -0.643  0.00  0.00    +0.129 C 
ATOM      3  N   UNL     1      -0.827  -0.539  -0.467  0.00  0.00    -0.332 N 
ATOM      4  C   UNL     1      -1.140  -1.494  -1.533  0.00  0.00    +0.109 C 
ATOM      5  C   UNL     1      -1.132  -2.874  -0.854  0.00  0.00    +0.056 C 
ATOM      6  C   UNL     1      -0.803  -2.583   0.593  0.00  0.00    -0.025 A 
ATOM      7  C   UNL     1      -0.634  -1.214   0.740  0.00  0.00    +0.033 A 
ATOM      8  C   UNL     1      -0.316  -0.702   1.999  0.00  0.00    +0.023 A 
ATOM      9  C   UNL     1      -0.168  -1.549   3.077  0.00  0.00    +0.004 A 
ATOM     10  C   UNL     1      -0.334  -2.912   2.919  0.00  0.00    -0.059 A 
ATOM     11  C   UNL     1      -0.658  -3.426   1.677  0.00  0.00    +0.007 A 
ENDBRANCH   1  10
BRANCH   1  12
ATOM     12  N   UNL     1      -0.771  -3.218   5.290  0.00  0.00    +0.382 N 
ATOM     13  C   UNL     1      -2.190  -2.937   5.033  0.00  0.00    -0.096 C 
ATOM     14  C   UNL     1      -0.652  -4.137   6.430  0.00  0.00    -0.096 C 
ATOM     15  H   UNL     1      -0.290  -2.356   5.501  0.00  0.00    -0.082 HD
ENDBRANCH   1  12
BRANCH   1  16
ATOM     16  C   UNL     1       1.318  -4.085   4.350  0.00  0.00    +0.093 C 
BRANCH  16  17
ATOM     17  N   UNL     1       1.893  -4.794   3.204  0.00  0.00    -0.317 N 
ATOM     18  C   UNL     1       3.181  -5.191   3.235  0.00  0.00    +0.214 C 
ATOM     19  O   UNL     1       3.863  -4.960   4.211  0.00  0.00    -0.276 OA
ATOM     20  H   UNL     1       1.348  -4.978   2.424  0.00  0.00    +0.149 HD
BRANCH  18  21
ATOM     21  C   UNL     1       3.773  -5.920   2.057  0.00  0.00    +0.107 C 
BRANCH  21  22
ATOM     22  C   UNL     1       5.238  -6.254   2.348  0.00  0.00    +0.083 C 
BRANCH  22  23
ATOM     23  S   UNL     1       5.950  -7.132   0.930  0.00  0.00    -0.125 S 
BRANCH  23  24
ATOM     24  C   UNL     1       7.616  -7.442   1.413  0.00  0.00    +0.008 A 
ATOM     25  C   UNL     1       8.070  -7.022   2.658  0.00  0.00    +0.015 A 
ATOM     26  C   UNL     1       9.376  -7.266   3.034  0.00  0.00    +0.001 A 
ATOM     27  C   UNL     1      10.232  -7.928   2.173  0.00  0.00    +0.000 A 
ATOM     28  C   UNL     1       9.785  -8.347   0.933  0.00  0.00    +0.001 A 
ATOM     29  C   UNL     1       8.478  -8.112   0.553  0.00  0.00    +0.015 A 
ENDBRANCH  23  24
ENDBRANCH  22  23
ENDBRANCH  21  22
ENDBRANCH  18  21
ENDBRANCH  16  17
ENDBRANCH   1  16
TORSDOF 8
