REMARK  Name = ZINC63413048
REMARK  6 active torsions:
REMARK  status: ('A' for Active; 'I' for Inactive)
REMARK    1  A    between atoms: C_1  and  C_2
REMARK    2  A    between atoms: C_11  and  C_12
REMARK    3  A    between atoms: C_12  and  C_14
REMARK    4  A    between atoms: C_14  and  C_27
REMARK    5  A    between atoms: C_15  and  C_16
REMARK    6  A    between atoms: N_19  and  C_21
REMARK                            x       y       z     vdW  Elec       q    Type
REMARK                         _______ _______ _______ _____ _____    ______ ____
ROOT
ATOM      1  C   UNL     1       0.522  -6.801  -0.198  0.00  0.00    +0.100 C 
ATOM      2  C   UNL     1       0.231  -7.737  -1.169  0.00  0.00    +0.033 C 
ENDROOT
BRANCH   2   3
ATOM      3  C   UNL     1       0.356  -7.387  -2.584  0.00  0.00    +0.014 A 
ATOM      4  C   UNL     1       0.892  -6.185  -3.111  0.00  0.00    +0.142 A 
ATOM      5  N   UNL     1       0.830  -6.252  -4.412  0.00  0.00    -0.174 NA
ATOM      6  N   UNL     1       0.263  -7.476  -4.781  0.00  0.00    -0.239 N 
ATOM      7  C   UNL     1      -0.021  -8.171  -3.665  0.00  0.00    +0.122 A 
BRANCH   6   8
ATOM      8  C   UNL     1       0.034  -7.908  -6.094  0.00  0.00    +0.065 A 
ATOM      9  C   UNL     1      -0.545  -9.149  -6.327  0.00  0.00    +0.028 A 
ATOM     10  C   UNL     1      -0.770  -9.572  -7.622  0.00  0.00    +0.002 A 
ATOM     11  C   UNL     1      -0.420  -8.761  -8.686  0.00  0.00    +0.000 A 
ATOM     12  C   UNL     1       0.156  -7.525  -8.458  0.00  0.00    +0.002 A 
ATOM     13  C   UNL     1       0.379  -7.095  -7.165  0.00  0.00    +0.028 A 
ENDBRANCH   6   8
ENDBRANCH   2   3
BRANCH   1  14
ATOM     14  C   UNL     1       0.685  -5.387  -0.566  0.00  0.00    +0.205 C 
ATOM     15  O   UNL     1      -0.271  -4.748  -0.968  0.00  0.00    -0.286 OA
BRANCH  14  26
ATOM     16  C   UNL     1       4.312   0.331  -1.706  0.00  0.00    +0.044 C 
ATOM     17  C   UNL     1       3.627  -0.977  -1.406  0.00  0.00    -0.048 A 
ATOM     18  C   UNL     1       2.283  -1.135  -1.712  0.00  0.00    +0.004 A 
ATOM     19  C   UNL     1       1.644  -2.325  -1.443  0.00  0.00    +0.011 A 
ATOM     20  C   UNL     1       2.353  -3.373  -0.862  0.00  0.00    +0.011 A 
ATOM     21  C   UNL     1       3.713  -3.215  -0.551  0.00  0.00    +0.047 A 
ATOM     22  C   UNL     1       4.343  -2.007  -0.835  0.00  0.00    +0.029 A 
ATOM     23  N   UNL     1       4.151  -4.399   0.007  0.00  0.00    -0.360 N 
ATOM     24  H   UNL     1       5.056  -4.565   0.314  0.00  0.00    +0.165 HD
ATOM     25  C   UNL     1       3.138  -5.297   0.065  0.00  0.00    +0.095 A 
ATOM     26  C   UNL     1       2.001  -4.743  -0.448  0.00  0.00    +0.048 A 
ENDBRANCH  14  26
ENDBRANCH   1  14
BRANCH   1  27
ATOM     27  C   UNL     1       0.666  -7.207   1.167  0.00  0.00    +0.103 C 
ATOM     28  N   UNL     1       0.781  -7.529   2.251  0.00  0.00    -0.191 NA
ENDBRANCH   1  27
TORSDOF 5
