REMARK  Name = ZINC50989299
REMARK  8 active torsions:
REMARK  status: ('A' for Active; 'I' for Inactive)
REMARK    1  A    between atoms: C_1  and  C_2
REMARK    2  A    between atoms: C_5  and  C_22
REMARK    3  A    between atoms: C_10  and  C_12
REMARK    4  A    between atoms: C_12  and  N_13
REMARK    5  A    between atoms: N_13  and  C_14
REMARK    6  A    between atoms: N_13  and  C_15
REMARK    7  A    between atoms: C_15  and  C_16
REMARK    8  A    between atoms: C_15  and  C_19
REMARK                            x       y       z     vdW  Elec       q    Type
REMARK                         _______ _______ _______ _____ _____    ______ ____
ROOT
ATOM      1  C   UNL     1       3.138  -2.419   1.317  0.00  0.00    +0.019 C 
ENDROOT
BRANCH   1   9
ATOM      2  C   UNL     1      -0.469   0.224  -0.909  0.00  0.00    +0.009 C 
ATOM      3  C   UNL     1      -0.186  -1.249  -0.608  0.00  0.00    +0.004 C 
ATOM      4  C   UNL     1      -1.508  -2.015  -0.519  0.00  0.00    +0.009 C 
ATOM      5  C   UNL     1      -1.225  -3.495  -0.251  0.00  0.00    +0.004 C 
ATOM      6  C   UNL     1      -0.494  -3.636   1.088  0.00  0.00    +0.111 C 
ATOM      7  N   UNL     1       0.705  -2.787   1.064  0.00  0.00    -0.303 N 
ATOM      8  C   UNL     1       0.557  -1.364   0.726  0.00  0.00    +0.111 C 
ATOM      9  C   UNL     1       1.918  -3.303   1.346  0.00  0.00    +0.199 C 
ATOM     10  O   UNL     1       2.027  -4.478   1.623  0.00  0.00    -0.278 OA
ATOM     11  C   UNL     1      -0.351  -4.059  -1.373  0.00  0.00    +0.009 C 
ENDBRANCH   1   9
BRANCH   1  12
ATOM     12  N   UNL     1       4.326  -3.213   1.657  0.00  0.00    +0.386 N 
ATOM     13  C   UNL     1       4.529  -4.251   0.639  0.00  0.00    -0.095 C 
ATOM     14  H   UNL     1       4.193  -3.647   2.559  0.00  0.00    -0.081 HD
BRANCH  12  15
ATOM     15  C   UNL     1       5.504  -2.336   1.705  0.00  0.00    -0.062 C 
BRANCH  15  16
ATOM     16  C   UNL     1       5.387  -1.389   2.901  0.00  0.00    -0.024 C 
ATOM     17  C   UNL     1       4.143  -1.515   3.783  0.00  0.00    +0.002 C 
ATOM     18  C   UNL     1       4.299  -0.315   2.847  0.00  0.00    +0.002 C 
ENDBRANCH  15  16
BRANCH  15  19
ATOM     19  C   UNL     1       6.767  -3.187   1.849  0.00  0.00    -0.024 C 
ATOM     20  C   UNL     1       7.973  -2.813   0.985  0.00  0.00    +0.002 C 
ATOM     21  C   UNL     1       7.163  -4.071   0.665  0.00  0.00    +0.002 C 
ENDBRANCH  15  19
ENDBRANCH  12  15
ENDBRANCH   1  12
TORSDOF 5
