REMARK  Name = ZINC20758643
REMARK  5 active torsions:
REMARK  status: ('A' for Active; 'I' for Inactive)
REMARK    1  A    between atoms: C_1  and  S_2
REMARK    2  A    between atoms: S_2  and  C_3
REMARK    3  A    between atoms: C_6  and  C_9
REMARK    4  A    between atoms: C_20  and  S_25
REMARK    5  A    between atoms: S_25  and  N_28
REMARK                            x       y       z     vdW  Elec       q    Type
REMARK                         _______ _______ _______ _____ _____    ______ ____
ROOT
ATOM      1  C   UNL     1      -1.333   2.113   0.020  0.00  0.00    +0.105 C 
ATOM      2  C   UNL     1      -1.619   2.658   1.408  0.00  0.00    +0.029 C 
ATOM      3  C   UNL     1      -1.922   1.635   2.512  0.00  0.00    +0.033 C 
ATOM      4  C   UNL     1      -2.840   2.440   3.434  0.00  0.00    -0.030 C 
ATOM      5  C   UNL     1      -3.456   3.392   2.743  0.00  0.00    -0.023 C 
ATOM      6  C   UNL     1      -3.040   3.290   1.321  0.00  0.00    +0.049 C 
ATOM      7  C   UNL     1      -2.958   4.476   0.441  0.00  0.00    -0.018 A 
ATOM      8  C   UNL     1      -3.720   5.605   0.647  0.00  0.00    +0.034 A 
ATOM      9  C   UNL     1      -3.623   6.680  -0.217  0.00  0.00    +0.105 A 
ATOM     10  C   UNL     1      -2.758   6.625  -1.294  0.00  0.00    +0.030 A 
ATOM     11  C   UNL     1      -1.984   5.502  -1.505  0.00  0.00    +0.025 A 
ATOM     12  C   UNL     1      -2.070   4.418  -0.640  0.00  0.00    +0.031 A 
ATOM     13  N   UNL     1      -1.266   3.295  -0.866  0.00  0.00    -0.336 N 
ATOM     14  H   UNL     1      -0.574   3.303  -1.722  0.00  0.00    +0.147 HD
ENDROOT
BRANCH   1  18
ATOM     15  C   UNL     1       2.400   0.031  -0.020  0.00  0.00    +0.008 A 
ATOM     16  C   UNL     1       1.206  -0.680  -0.013  0.00  0.00    +0.015 A 
ATOM     17  C   UNL     1       0.002  -0.004   0.002  0.00  0.00    +0.006 A 
ATOM     18  C   UNL     1      -0.017   1.379   0.010  0.00  0.00    -0.027 A 
ATOM     19  C   UNL     1       1.169   2.090   0.002  0.00  0.00    +0.006 A 
ATOM     20  C   UNL     1       2.377   1.421  -0.013  0.00  0.00    +0.015 A 
BRANCH  15  22
ATOM     21  C   UNL     1       5.179   0.497  -0.043  0.00  0.00    +0.090 C 
ATOM     22  S   UNL     1       3.939  -0.827  -0.038  0.00  0.00    -0.129 S 
ENDBRANCH  15  22
ENDBRANCH   1  18
BRANCH   9  23
ATOM     23  S   UNL     1      -4.603   8.120   0.054  0.00  0.00    +0.056 S 
ATOM     24  O   UNL     1      -4.729   8.768  -1.204  0.00  0.00    -0.153 OA
ATOM     25  O   UNL     1      -5.730   7.707   0.814  0.00  0.00    -0.153 OA
BRANCH  23  26
ATOM     26  N   UNL     1      -3.724   9.135   1.023  0.00  0.00    -0.204 NA
ATOM     27  H   UNL     1      -4.304  10.049   1.217  0.00  0.00    +0.144 HD
ATOM     28  H   UNL     1      -2.782   9.397   0.521  0.00  0.00    +0.144 HD
ENDBRANCH  23  26
ENDBRANCH   9  23
TORSDOF 4
