REMARK  Name = ZINC39422347
REMARK  6 active torsions:
REMARK  status: ('A' for Active; 'I' for Inactive)
REMARK    1  A    between atoms: C_1  and  C_2
REMARK    2  A    between atoms: C_2  and  C_23
REMARK    3  A    between atoms: C_6  and  C_7
REMARK    4  A    between atoms: C_15  and  C_16
REMARK    5  A    between atoms: C_15  and  O_22
REMARK    6  A    between atoms: C_16  and  N_17
REMARK                            x       y       z     vdW  Elec       q    Type
REMARK                         _______ _______ _______ _____ _____    ______ ____
ROOT
ATOM      1  C   UNL     1       0.013   1.520  -0.489  0.00  0.00    +0.014 C 
ATOM      2  C   UNL     1       0.034   0.011  -0.239  0.00  0.00    -0.004 C 
ATOM      3  C   UNL     1       0.521  -0.707  -1.499  0.00  0.00    +0.013 C 
ATOM      4  C   UNL     1       0.455  -2.222  -1.280  0.00  0.00    +0.031 C 
ATOM      5  C   UNL     1       1.235  -2.561  -0.029  0.00  0.00    -0.066 C 
ATOM      6  C   UNL     1       2.167  -3.504  -0.044  0.00  0.00    +0.007 C 
ATOM      7  C   UNL     1       0.925  -1.797   1.239  0.00  0.00    +0.067 C 
ATOM      8  C   UNL     1       0.974  -0.297   0.928  0.00  0.00    +0.093 C 
ATOM      9  C   UNL     1      -1.378  -0.468   0.104  0.00  0.00    +0.014 C 
ENDROOT
BRANCH   6  10
ATOM     10  C   UNL     1       2.789  -3.949   1.221  0.00  0.00    -0.025 A 
ATOM     11  C   UNL     1       2.025  -4.030   2.386  0.00  0.00    +0.009 A 
ATOM     12  C   UNL     1       2.611  -4.446   3.564  0.00  0.00    +0.020 A 
ATOM     13  C   UNL     1       3.954  -4.781   3.592  0.00  0.00    +0.041 A 
ATOM     14  C   UNL     1       4.717  -4.701   2.439  0.00  0.00    +0.020 A 
ATOM     15  C   UNL     1       4.140  -4.294   1.254  0.00  0.00    +0.009 A 
ATOM     16 CL   UNL     1       4.684  -5.303   5.078  0.00  0.00    -0.084 Cl
ENDBRANCH   6  10
BRANCH   8  17
ATOM     17  O   UNL     1       2.308   0.073   0.577  0.00  0.00    -0.386 OA
ATOM     18  H   UNL     1       2.959  -0.095   1.272  0.00  0.00    +0.210 HD
ENDBRANCH   8  17
BRANCH   8  19
ATOM     19  C   UNL     1       0.532   0.494   2.161  0.00  0.00    +0.158 C 
BRANCH  19  20
ATOM     20  N   UNL     1       1.432   0.198   3.279  0.00  0.00    -0.336 N 
ATOM     21  C   UNL     1       1.283  -0.805   4.198  0.00  0.00    +0.104 A 
ATOM     22  C   UNL     1       2.328  -0.717   5.043  0.00  0.00    +0.101 A 
ATOM     23  N   UNL     1       3.094   0.311   4.651  0.00  0.00    -0.352 N 
ATOM     24  C   UNL     1       2.566   0.861   3.591  0.00  0.00    +0.173 A 
ATOM     25  H   UNL     1       3.913   0.599   5.083  0.00  0.00    +0.166 HD
ENDBRANCH  19  20
ENDBRANCH   8  19
TORSDOF 4
