REMARK  Name = ZINC08788519
REMARK  9 active torsions:
REMARK  status: ('A' for Active; 'I' for Inactive)
REMARK    1  A    between atoms: C_1  and  C_2
REMARK    2  A    between atoms: C_2  and  C_3
REMARK    3  A    between atoms: C_7  and  C_30
REMARK    4  A    between atoms: C_8  and  N_9
REMARK    5  A    between atoms: C_10  and  C_12
REMARK    6  A    between atoms: C_12  and  S_13
REMARK    7  A    between atoms: S_13  and  C_14
REMARK    8  A    between atoms: C_16  and  C_23
REMARK    9  A    between atoms: C_30  and  C_31
REMARK                            x       y       z     vdW  Elec       q    Type
REMARK                         _______ _______ _______ _____ _____    ______ ____
ROOT
ATOM      1  S   UNL     1       1.792  -0.157  -5.569  0.00  0.00    -0.096 S 
ENDROOT
BRANCH   1   2
ATOM      2  C   UNL     1       1.101  -1.566  -6.372  0.00  0.00    +0.109 A 
ATOM      3  C   UNL     1       1.027  -1.621  -7.790  0.00  0.00    +0.047 A 
ATOM      4  C   UNL     1       1.465  -0.646  -8.784  0.00  0.00    +0.001 A 
ATOM      5  C   UNL     1       1.292  -0.931 -10.096  0.00  0.00    +0.056 A 
ATOM      6  S   UNL     1       0.528  -2.542 -10.075  0.00  0.00    -0.076 S 
ATOM      7  C   UNL     1       0.460  -2.796  -8.321  0.00  0.00    +0.113 A 
ATOM      8  N   UNL     1       0.024  -3.765  -7.538  0.00  0.00    -0.228 NA
ATOM      9  C   UNL     1       0.115  -3.655  -6.227  0.00  0.00    +0.223 A 
ATOM     10  N   UNL     1       0.640  -2.583  -5.661  0.00  0.00    -0.229 NA
BRANCH   4  11
ATOM     11  C   UNL     1       2.084   0.634  -8.364  0.00  0.00    -0.017 A 
ATOM     12  C   UNL     1       1.513   1.846  -8.748  0.00  0.00    +0.009 A 
ATOM     13  C   UNL     1       2.090   3.035  -8.351  0.00  0.00    +0.016 A 
ATOM     14  C   UNL     1       3.240   3.025  -7.581  0.00  0.00    +0.018 A 
ATOM     15  C   UNL     1       3.815   1.824  -7.201  0.00  0.00    +0.016 A 
ATOM     16  C   UNL     1       3.243   0.630  -7.588  0.00  0.00    +0.009 A 
ATOM     17 BR   UNL     1       4.030   4.658  -7.046  0.00  0.00    -0.050 Br
ENDBRANCH   4  11
ENDBRANCH   1   2
BRANCH   1  18
ATOM     18  C   UNL     1       1.606  -0.658  -3.840  0.00  0.00    +0.171 C 
BRANCH  18  20
ATOM     19  N   UNL     1       2.112   0.270  -1.604  0.00  0.00    -0.284 N 
ATOM     20  C   UNL     1       2.146   0.425  -2.942  0.00  0.00    +0.227 C 
ATOM     21  O   UNL     1       2.610   1.436  -3.424  0.00  0.00    -0.275 OA
ATOM     22  H   UNL     1       1.812  -0.569  -1.220  0.00  0.00    +0.155 HD
BRANCH  19  28
ATOM     23  C   UNL     1       1.609   1.867   0.137  0.00  0.00    -0.026 A 
ATOM     24  C   UNL     1       2.002   2.907   0.956  0.00  0.00    +0.005 A 
ATOM     25  C   UNL     1       3.293   3.396   0.885  0.00  0.00    +0.001 A 
ATOM     26  C   UNL     1       4.192   2.852  -0.015  0.00  0.00    +0.005 A 
ATOM     27  C   UNL     1       3.804   1.816  -0.841  0.00  0.00    -0.026 A 
ATOM     28  C   UNL     1       2.509   1.319  -0.768  0.00  0.00    +0.040 A 
BRANCH  23  30
ATOM     29  C   UNL     1       0.173   0.118   1.151  0.00  0.00    +0.009 C 
ATOM     30  C   UNL     1       0.202   1.332   0.220  0.00  0.00    +0.033 C 
ENDBRANCH  23  30
BRANCH  27  31
ATOM     31  C   UNL     1       4.784   1.224  -1.821  0.00  0.00    +0.033 C 
ATOM     32  C   UNL     1       5.350   2.335  -2.709  0.00  0.00    +0.009 C 
ENDBRANCH  27  31
ENDBRANCH  19  28
ENDBRANCH  18  20
ENDBRANCH   1  18
TORSDOF 7
