REMARK  Name = ZINC06193045
REMARK  13 active torsions:
REMARK  status: ('A' for Active; 'I' for Inactive)
REMARK    1  A    between atoms: C_1  and  C_2
REMARK    2  A    between atoms: C_2  and  N_60
REMARK    3  A    between atoms: C_3  and  C_4
REMARK    4  A    between atoms: C_3  and  N_60
REMARK    5  A    between atoms: C_5  and  C_6
REMARK    6  A    between atoms: C_5  and  N_60
REMARK    7  A    between atoms: C_6  and  C_7
REMARK    8  A    between atoms: C_7  and  N_8
REMARK    9  A    between atoms: C_9  and  C_26
REMARK   10  A    between atoms: C_12  and  C_13
REMARK   11  A    between atoms: C_12  and  O_21
REMARK   12  A    between atoms: C_15  and  C_20
REMARK   13  A    between atoms: C_18  and  C_19
REMARK                            x       y       z     vdW  Elec       q    Type
REMARK                         _______ _______ _______ _____ _____    ______ ____
ROOT
ATOM      1  N   UNL     1      -1.456   5.536  -2.645  0.00  0.00    -0.283 N 
ATOM      2  C   UNL     1      -0.258   6.190  -3.180  0.00  0.00    +0.151 C 
ATOM      3  C   UNL     1      -0.490   7.679  -3.064  0.00  0.00    +0.072 C 
ATOM      4  C   UNL     1       0.374   8.684  -3.446  0.00  0.00    +0.133 C 
ATOM      5  C   UNL     1      -1.762   7.833  -2.489  0.00  0.00    +0.249 C 
ATOM      6  O   UNL     1      -2.307   8.891  -2.234  0.00  0.00    -0.282 OA
ATOM      7  C   UNL     1      -2.329   6.478  -2.249  0.00  0.00    +0.288 C 
ATOM      8  O   UNL     1      -3.419   6.256  -1.764  0.00  0.00    -0.266 OA
ENDROOT
BRANCH   4   9
ATOM      9  C   UNL     1      -0.046  10.093  -3.350  0.00  0.00    +0.020 A 
ATOM     10  C   UNL     1       0.604  10.962  -2.467  0.00  0.00    +0.015 A 
ATOM     11  C   UNL     1       0.205  12.279  -2.384  0.00  0.00    -0.050 A 
ATOM     12  C   UNL     1      -0.836  12.742  -3.171  0.00  0.00    +0.003 A 
ATOM     13  C   UNL     1      -1.484  11.889  -4.046  0.00  0.00    +0.004 A 
ATOM     14  C   UNL     1      -1.093  10.570  -4.145  0.00  0.00    -0.040 A 
ATOM     15  C   UNL     1      -1.796   9.643  -5.103  0.00  0.00    +0.044 C 
ATOM     16  C   UNL     1       0.903  13.217  -1.433  0.00  0.00    +0.044 C 
ENDBRANCH   4   9
BRANCH   2  17
ATOM     17  C   UNL     1      -0.065   5.809  -4.625  0.00  0.00    +0.015 A 
ATOM     18  C   UNL     1       1.084   5.526  -5.287  0.00  0.00    +0.013 A 
ATOM     19  C   UNL     1       1.021   5.194  -6.627  0.00  0.00    +0.008 A 
ATOM     20  C   UNL     1      -0.186   5.171  -7.243  0.00  0.00    +0.045 A 
ATOM     21  S   UNL     1      -1.288   5.622  -5.912  0.00  0.00    -0.099 S 
ENDBRANCH   2  17
BRANCH   4  22
ATOM     22  O   UNL     1       1.605   8.377  -3.908  0.00  0.00    -0.506 OA
ATOM     23  H   UNL     1       2.095   9.219  -4.137  0.00  0.00    +0.292 HD
ENDBRANCH   4  22
BRANCH   1  24
ATOM     24  C   UNL     1      -1.669   4.089  -2.561  0.00  0.00    +0.107 C 
BRANCH  24  25
ATOM     25  C   UNL     1      -1.150   3.574  -1.217  0.00  0.00    +0.000 C 
BRANCH  25  26
ATOM     26  C   UNL     1      -1.373   2.063  -1.129  0.00  0.00    -0.077 C 
BRANCH  26  27
ATOM     27  N   UNL     1      -0.887   1.587   0.183  0.00  0.00    +0.379 N 
ATOM     28  H   UNL     1      -1.226   2.223   0.914  0.00  0.00    -0.082 HD
BRANCH  27  30
ATOM     29  C   UNL     1      -1.077  -0.148   1.897  0.00  0.00    -0.017 C 
ATOM     30  C   UNL     1      -1.405   0.229   0.451  0.00  0.00    -0.082 C 
ENDBRANCH  27  30
BRANCH  27  31
ATOM     31  C   UNL     1       0.591   1.577   0.202  0.00  0.00    -0.082 C 
ATOM     32  C   UNL     1       1.134   0.620  -0.861  0.00  0.00    -0.017 C 
ENDBRANCH  27  31
ENDBRANCH  26  27
ENDBRANCH  25  26
ENDBRANCH  24  25
ENDBRANCH   1  24
TORSDOF 9
