REMARK  Name = ZINC39865241
REMARK  6 active torsions:
REMARK  status: ('A' for Active; 'I' for Inactive)
REMARK    1  A    between atoms: C_1  and  C_2
REMARK    2  A    between atoms: C_5  and  N_7
REMARK    3  A    between atoms: N_9  and  C_23
REMARK    4  A    between atoms: C_13  and  C_14
REMARK    5  A    between atoms: C_13  and  C_15
REMARK    6  A    between atoms: C_18  and  O_21
REMARK                            x       y       z     vdW  Elec       q    Type
REMARK                         _______ _______ _______ _____ _____    ______ ____
ROOT
ATOM      1  N   UNL     1       0.136  -2.854   2.217  0.00  0.00    -0.199 NA
ATOM      2  C   UNL     1       0.011  -4.150   2.020  0.00  0.00    +0.170 C 
ATOM      3  N   UNL     1      -0.039  -4.834   0.826  0.00  0.00    -0.249 N 
ATOM      4  C   UNL     1      -0.168  -6.149   0.807  0.00  0.00    +0.259 C 
ATOM      5  O   UNL     1      -0.214  -6.769  -0.240  0.00  0.00    -0.269 OA
ATOM      6  C   UNL     1      -0.254  -6.832   2.112  0.00  0.00    +0.081 C 
ATOM      7  C   UNL     1      -0.388  -8.155   2.385  0.00  0.00    -0.024 C 
ATOM      8  C   UNL     1      -0.470  -9.152   1.258  0.00  0.00    +0.045 C 
ATOM      9  S   UNL     1      -0.126  -5.449   3.237  0.00  0.00    -0.048 S 
ATOM     10  C   UNL     1       0.052  -4.096  -0.436  0.00  0.00    +0.140 C 
ENDROOT
BRANCH   1  15
ATOM     11  C   UNL     1      -1.993  -0.033  -1.144  0.00  0.00    +0.066 C 
ATOM     12  C   UNL     1      -0.788  -0.639  -0.470  0.00  0.00    +0.048 A 
ATOM     13  C   UNL     1       0.458  -0.344  -0.915  0.00  0.00    +0.071 A 
ATOM     14  S   UNL     1       1.452  -1.308   0.216  0.00  0.00    -0.056 S 
ATOM     15  C   UNL     1       0.101  -2.000   1.161  0.00  0.00    +0.195 A 
ATOM     16  N   UNL     1      -0.946  -1.450   0.554  0.00  0.00    -0.226 NA
ENDBRANCH   1  15
BRANCH   7  17
ATOM     17  C   UNL     1      -0.453  -8.614   3.778  0.00  0.00    -0.021 A 
ATOM     18  C   UNL     1       0.652  -8.453   4.624  0.00  0.00    +0.012 A 
ATOM     19  C   UNL     1       0.586  -8.886   5.929  0.00  0.00    +0.046 A 
ATOM     20  C   UNL     1      -0.575  -9.482   6.408  0.00  0.00    +0.117 A 
ATOM     21  C   UNL     1      -1.675  -9.645   5.573  0.00  0.00    +0.046 A 
ATOM     22  C   UNL     1      -1.622  -9.210   4.268  0.00  0.00    +0.012 A 
BRANCH  20  23
ATOM     23  O   UNL     1      -0.635  -9.907   7.696  0.00  0.00    -0.507 OA
ATOM     24  H   UNL     1      -0.957  -9.239   8.316  0.00  0.00    +0.292 HD
ENDBRANCH  20  23
ENDBRANCH   7  17
TORSDOF 3
