REMARK  Name = ZINC00823061
REMARK  8 active torsions:
REMARK  status: ('A' for Active; 'I' for Inactive)
REMARK    1  A    between atoms: C_1  and  C_2
REMARK    2  A    between atoms: C_2  and  O_3
REMARK    3  A    between atoms: O_3  and  C_4
REMARK    4  A    between atoms: C_4  and  C_6
REMARK    5  A    between atoms: C_7  and  C_35
REMARK    6  A    between atoms: C_14  and  C_15
REMARK    7  A    between atoms: C_26  and  C_28
REMARK    8  A    between atoms: C_31  and  C_34
REMARK                            x       y       z     vdW  Elec       q    Type
REMARK                         _______ _______ _______ _____ _____    ______ ____
ROOT
ATOM      1  C   UNL     1       5.993   2.526   0.909  0.00  0.00    +0.085 C 
ATOM      2  C   UNL     1       5.567   3.823   0.985  0.00  0.00    +0.053 C 
ATOM      3  N   UNL     1       4.280   4.119   0.852  0.00  0.00    -0.228 NA
ATOM      4  C   UNL     1       3.332   3.242   0.645  0.00  0.00    +0.178 A 
ATOM      5  N   UNL     1       3.543   1.885   0.536  0.00  0.00    -0.275 N 
ATOM      6  C   UNL     1       2.483   1.095   0.330  0.00  0.00    +0.268 A 
ATOM      7  O   UNL     1       2.624  -0.111   0.234  0.00  0.00    -0.266 OA
ATOM      8  C   UNL     1       1.192   1.677   0.219  0.00  0.00    +0.081 A 
ATOM      9  C   UNL     1      -0.013   1.076   0.008  0.00  0.00    +0.030 C 
ATOM     10  S   UNL     1       1.570   3.409   0.439  0.00  0.00    -0.046 S 
ATOM     11  C   UNL     1       4.960   1.449   0.671  0.00  0.00    +0.162 C 
ATOM     12  C   UNL     1       6.566   4.926   1.220  0.00  0.00    +0.066 C 
ENDROOT
BRANCH   9  13
ATOM     13  C   UNL     1      -1.239   1.872   0.017  0.00  0.00    +0.001 A 
ATOM     14  C   UNL     1      -1.334   3.232  -0.090  0.00  0.00    +0.091 A 
ATOM     15  N   UNL     1      -2.638   3.604  -0.045  0.00  0.00    -0.360 N 
ATOM     16  H   UNL     1      -2.955   4.519  -0.105  0.00  0.00    +0.165 HD
ATOM     17  C   UNL     1      -3.450   2.498   0.103  0.00  0.00    +0.047 A 
ATOM     18  C   UNL     1      -2.619   1.367   0.149  0.00  0.00    +0.007 A 
ATOM     19  C   UNL     1      -3.174   0.099   0.294  0.00  0.00    +0.010 A 
ATOM     20  C   UNL     1      -4.542  -0.041   0.393  0.00  0.00    +0.001 A 
ATOM     21  C   UNL     1      -5.364   1.076   0.348  0.00  0.00    +0.002 A 
ATOM     22  C   UNL     1      -4.828   2.337   0.204  0.00  0.00    +0.026 A 
ENDBRANCH   9  13
BRANCH  11  23
ATOM     23  C   UNL     1       5.037   0.472   1.817  0.00  0.00    -0.020 A 
ATOM     24  C   UNL     1       4.433   0.772   3.023  0.00  0.00    +0.006 A 
ATOM     25  C   UNL     1       4.500  -0.126   4.072  0.00  0.00    +0.004 A 
ATOM     26  C   UNL     1       5.179  -1.320   3.917  0.00  0.00    -0.050 A 
ATOM     27  C   UNL     1       5.787  -1.618   2.712  0.00  0.00    +0.004 A 
ATOM     28  C   UNL     1       5.717  -0.722   1.662  0.00  0.00    +0.006 A 
ATOM     29  C   UNL     1       5.255  -2.297   5.062  0.00  0.00    +0.044 C 
ENDBRANCH  11  23
BRANCH   1  30
ATOM     30  C   UNL     1       7.352   2.204   1.049  0.00  0.00    +0.339 C 
ATOM     31  O   UNL     1       8.171   3.086   1.240  0.00  0.00    -0.245 OA
BRANCH  30  32
ATOM     32  O   UNL     1       7.753   0.916   0.971  0.00  0.00    -0.462 OA
BRANCH  32  34
ATOM     33  C   UNL     1       9.411  -0.842   1.005  0.00  0.00    +0.048 C 
ATOM     34  C   UNL     1       9.151   0.662   1.122  0.00  0.00    +0.229 C 
ENDBRANCH  32  34
ENDBRANCH  30  32
ENDBRANCH   1  30
TORSDOF 5
