REMARK  Name = ZINC59331669
REMARK  12 active torsions:
REMARK  status: ('A' for Active; 'I' for Inactive)
REMARK    1  A    between atoms: C_1  and  C_2
REMARK    2  A    between atoms: C_6  and  C_10
REMARK    3  A    between atoms: C_7  and  O_8
REMARK    4  A    between atoms: O_8  and  C_9
REMARK    5  A    between atoms: N_12  and  C_13
REMARK    6  A    between atoms: C_13  and  N_15
REMARK    7  A    between atoms: N_15  and  C_16
REMARK    8  A    between atoms: C_17  and  C_30
REMARK    9  A    between atoms: C_22  and  C_26
REMARK   10  A    between atoms: C_26  and  C_27
REMARK   11  A    between atoms: C_26  and  C_28
REMARK   12  A    between atoms: C_26  and  C_29
REMARK                            x       y       z     vdW  Elec       q    Type
REMARK                         _______ _______ _______ _____ _____    ______ ____
ROOT
ATOM      1  N   UNL     1       0.103  -6.242   3.577  0.00  0.00    -0.290 N 
ATOM      2  H   UNL     1       0.105  -6.716   2.731  0.00  0.00    +0.154 HD
ENDROOT
BRANCH   1   3
ATOM      3  C   UNL     1       0.118  -6.951   4.769  0.00  0.00    +0.089 A 
ATOM      4  C   UNL     1       0.143  -8.325   4.943  0.00  0.00    +0.084 A 
ATOM      5  C   UNL     1       0.156  -8.823   6.307  0.00  0.00    -0.018 A 
ATOM      6  C   UNL     1       0.142  -7.854   7.248  0.00  0.00    -0.004 A 
ATOM      7  S   UNL     1       0.118  -6.340   6.333  0.00  0.00    -0.077 S 
ATOM      8  C   UNL     1       0.151  -8.043   8.734  0.00  0.00    +0.047 C 
ATOM      9  C   UNL     1       0.560  -9.493   9.033  0.00  0.00    -0.000 C 
ATOM     10  C   UNL     1      -0.263 -10.432   8.146  0.00  0.00    +0.009 C 
ATOM     11  C   UNL     1       0.182 -10.296   6.688  0.00  0.00    +0.037 C 
BRANCH   9  12
ATOM     12  C   UNL     1       0.291  -9.808  10.506  0.00  0.00    -0.035 C 
ATOM     13  C   UNL     1      -1.199  -9.627  10.802  0.00  0.00    +0.011 C 
ATOM     14  C   UNL     1       0.698 -11.253  10.801  0.00  0.00    +0.011 C 
ATOM     15  C   UNL     1       1.105  -8.858  11.387  0.00  0.00    +0.011 C 
ENDBRANCH   9  12
BRANCH   4  16
ATOM     16  C   UNL     1       0.155  -9.218   3.823  0.00  0.00    +0.102 C 
ATOM     17  N   UNL     1       0.164  -9.927   2.935  0.00  0.00    -0.191 NA
ENDBRANCH   4  16
ENDBRANCH   1   3
BRANCH   1  18
ATOM     18  C   UNL     1       0.085  -4.895   3.594  0.00  0.00    +0.141 C 
ATOM     19  S   UNL     1       0.081  -4.058   5.088  0.00  0.00    -0.018 S 
BRANCH  18  22
ATOM     20  C   UNL     1       0.052  -2.858   2.454  0.00  0.00    +0.253 C 
ATOM     21  O   UNL     1       0.050  -2.264   3.514  0.00  0.00    -0.270 OA
ATOM     22  N   UNL     1       0.070  -4.206   2.436  0.00  0.00    -0.263 N 
ATOM     23  H   UNL     1       0.072  -4.680   1.590  0.00  0.00    +0.157 HD
BRANCH  20  29
ATOM     24  C   UNL     1      -0.018   1.503   0.010  0.00  0.00    +0.047 C 
ATOM     25  C   UNL     1       0.002  -0.004   0.002  0.00  0.00    -0.007 A 
ATOM     26  C   UNL     1       0.006  -0.687  -1.198  0.00  0.00    +0.022 A 
ATOM     27  C   UNL     1       0.024  -2.073  -1.216  0.00  0.00    +0.019 A 
ATOM     28  C   UNL     1       0.039  -2.783  -0.035  0.00  0.00    +0.032 A 
ATOM     29  C   UNL     1       0.036  -2.105   1.186  0.00  0.00    +0.080 A 
ATOM     30  C   UNL     1       0.023  -0.703   1.200  0.00  0.00    +0.135 A 
ATOM     31 BR   UNL     1       0.027  -2.992  -2.869  0.00  0.00    -0.050 Br
BRANCH  30  32
ATOM     32  O   UNL     1       0.025  -0.033   2.379  0.00  0.00    -0.494 OA
ATOM     33  C   UNL     1      -1.246   0.271   2.956  0.00  0.00    +0.277 C 
ENDBRANCH  30  32
ENDBRANCH  20  29
ENDBRANCH  18  22
ENDBRANCH   1  18
TORSDOF 7
