REMARK  Name = ZINC39542311
REMARK  7 active torsions:
REMARK  status: ('A' for Active; 'I' for Inactive)
REMARK    1  A    between atoms: C_4  and  C_7
REMARK    2  A    between atoms: C_7  and  N_8
REMARK    3  A    between atoms: N_8  and  C_9
REMARK    4  A    between atoms: C_14  and  O_15
REMARK    5  A    between atoms: C_16  and  C_18
REMARK    6  A    between atoms: C_21  and  C_33
REMARK    7  A    between atoms: C_38  and  O_39
REMARK                            x       y       z     vdW  Elec       q    Type
REMARK                         _______ _______ _______ _____ _____    ______ ____
ROOT
ATOM      1  C   UNL     1       5.620  -0.481   3.462  0.00  0.00    +0.171 C 
ATOM      2  C   UNL     1       4.392  -0.315   4.386  0.00  0.00    +0.050 C 
ATOM      3  C   UNL     1       4.582   1.143   4.869  0.00  0.00    +0.086 C 
ATOM      4  C   UNL     1       6.063   1.387   4.711  0.00  0.00    +0.083 C 
ATOM      5  N   UNL     1       6.770   2.420   5.288  0.00  0.00    -0.304 N 
ATOM      6  C   UNL     1       8.053   2.690   4.793  0.00  0.00    +0.037 A 
ATOM      7  C   UNL     1       8.681   3.884   5.124  0.00  0.00    +0.023 A 
ATOM      8  C   UNL     1       9.944   4.156   4.635  0.00  0.00    +0.002 A 
ATOM      9  C   UNL     1      10.579   3.240   3.817  0.00  0.00    +0.000 A 
ATOM     10  C   UNL     1       9.957   2.051   3.489  0.00  0.00    +0.007 A 
ATOM     11  C   UNL     1       8.692   1.768   3.976  0.00  0.00    -0.007 A 
ATOM     12  C   UNL     1       8.040   0.461   3.616  0.00  0.00    +0.155 C 
ATOM     13  N   UNL     1       6.610   0.492   3.947  0.00  0.00    -0.346 N 
ATOM     14  H   UNL     1       6.392   2.943   6.012  0.00  0.00    +0.153 HD
ENDROOT
BRANCH   3  15
ATOM     15  C   UNL     1       4.171   1.278   6.313  0.00  0.00    +0.004 A 
ATOM     16  C   UNL     1       4.814   0.539   7.287  0.00  0.00    +0.008 A 
ATOM     17  C   UNL     1       4.438   0.663   8.611  0.00  0.00    +0.001 A 
ATOM     18  C   UNL     1       3.417   1.527   8.965  0.00  0.00    +0.004 A 
ATOM     19  C   UNL     1       2.772   2.268   7.995  0.00  0.00    +0.046 A 
ATOM     20  C   UNL     1       3.151   2.150   6.665  0.00  0.00    +0.121 A 
BRANCH  20  21
ATOM     21  O   UNL     1       2.521   2.882   5.710  0.00  0.00    -0.506 OA
ATOM     22  H   UNL     1       1.748   2.446   5.326  0.00  0.00    +0.292 HD
ENDBRANCH  20  21
ENDBRANCH   3  15
BRANCH   1  24
ATOM     23  N   UNL     1       4.621  -1.109   1.288  0.00  0.00    -0.262 N 
ATOM     24  C   UNL     1       5.244  -0.176   2.035  0.00  0.00    +0.243 C 
ATOM     25  O   UNL     1       5.503   0.909   1.558  0.00  0.00    -0.273 OA
BRANCH  23  26
ATOM     26  C   UNL     1       4.183  -0.793  -0.005  0.00  0.00    +0.078 A 
ATOM     27  C   UNL     1       2.873  -0.389  -0.216  0.00  0.00    +0.027 A 
ATOM     28  C   UNL     1       2.443  -0.079  -1.493  0.00  0.00    +0.002 A 
ATOM     29  C   UNL     1       3.317  -0.169  -2.561  0.00  0.00    +0.004 A 
ATOM     30  C   UNL     1       4.624  -0.571  -2.358  0.00  0.00    +0.047 A 
ATOM     31  C   UNL     1       5.064  -0.878  -1.081  0.00  0.00    +0.138 A 
BRANCH  31  32
ATOM     32  O   UNL     1       6.351  -1.267  -0.878  0.00  0.00    -0.505 OA
ATOM     33  H   UNL     1       6.489  -2.222  -0.946  0.00  0.00    +0.292 HD
ENDBRANCH  31  32
ENDBRANCH  23  26
BRANCH  23  34
ATOM     34  C   UNL     1       4.401  -2.452   1.828  0.00  0.00    +0.149 C 
BRANCH  34  38
ATOM     35  C   UNL     1       7.532  -5.046   0.518  0.00  0.00    +0.000 A 
ATOM     36  C   UNL     1       7.718  -4.245   1.630  0.00  0.00    +0.000 A 
ATOM     37  C   UNL     1       6.704  -3.406   2.054  0.00  0.00    +0.005 A 
ATOM     38  C   UNL     1       5.506  -3.367   1.366  0.00  0.00    -0.030 A 
ATOM     39  C   UNL     1       5.321  -4.166   0.253  0.00  0.00    +0.005 A 
ATOM     40  C   UNL     1       6.334  -5.007  -0.170  0.00  0.00    +0.000 A 
ENDBRANCH  34  38
ENDBRANCH  23  34
ENDBRANCH   1  24
TORSDOF 7
