REMARK  Name = ZINC36803887
REMARK  5 active torsions:
REMARK  status: ('A' for Active; 'I' for Inactive)
REMARK    1  A    between atoms: C_1  and  C_2
REMARK    2  A    between atoms: C_7  and  N_12
REMARK    3  A    between atoms: C_9  and  C_11
REMARK    4  A    between atoms: N_12  and  C_13
REMARK    5  A    between atoms: C_13  and  C_14
REMARK                            x       y       z     vdW  Elec       q    Type
REMARK                         _______ _______ _______ _____ _____    ______ ____
ROOT
ATOM      1  C   UNL     1       1.233  -0.160   6.044  0.00  0.00    +0.124 A 
ATOM      2  N   UNL     1       1.125   0.514   7.219  0.00  0.00    -0.309 N 
ATOM      3  H   UNL     1       0.578   1.314   7.265  0.00  0.00    +0.170 HD
ATOM      4  C   UNL     1       1.772   0.079   8.325  0.00  0.00    +0.259 A 
ATOM      5  O   UNL     1       1.683   0.673   9.384  0.00  0.00    -0.267 OA
ATOM      6  C   UNL     1       2.586  -1.139   8.198  0.00  0.00    +0.065 A 
ATOM      7  C   UNL     1       3.292  -1.669   9.275  0.00  0.00    +0.015 A 
ATOM      8  C   UNL     1       4.040  -2.813   9.100  0.00  0.00    +0.001 A 
ATOM      9  C   UNL     1       4.094  -3.438   7.861  0.00  0.00    +0.002 A 
ATOM     10  C   UNL     1       3.404  -2.930   6.784  0.00  0.00    +0.028 A 
ATOM     11  C   UNL     1       2.639  -1.772   6.936  0.00  0.00    +0.078 A 
ATOM     12  N   UNL     1       1.940  -1.240   5.903  0.00  0.00    -0.232 NA
ENDROOT
BRANCH   1  13
ATOM     13  C   UNL     1       0.490   0.370   4.845  0.00  0.00    +0.156 C 
BRANCH  13  14
ATOM     14  N   UNL     1       0.736  -0.504   3.691  0.00  0.00    -0.306 NA
ATOM     15  H   UNL     1       0.482  -1.458   3.898  0.00  0.00    +0.123 HD
BRANCH  14  21
ATOM     16  C   UNL     1      -0.019   1.526   0.010  0.00  0.00    +0.008 C 
ATOM     17  C   UNL     1       0.002  -0.004   0.002  0.00  0.00    -0.010 C 
ATOM     18  C   UNL     1      -1.433  -0.534   0.013  0.00  0.00    +0.003 C 
ATOM     19  C   UNL     1      -2.149  -0.040   1.272  0.00  0.00    +0.002 C 
ATOM     20  C   UNL     1      -1.409  -0.547   2.511  0.00  0.00    +0.019 C 
ATOM     21  C   UNL     1       0.026  -0.018   2.500  0.00  0.00    +0.057 C 
ATOM     22  C   UNL     1       0.742  -0.511   1.242  0.00  0.00    +0.006 C 
ATOM     23  C   UNL     1       2.178   0.019   1.231  0.00  0.00    +0.009 C 
ENDBRANCH  14  21
ENDBRANCH  13  14
ENDBRANCH   1  13
TORSDOF 3
