REMARK  Name = ZINC12111595
REMARK  5 active torsions:
REMARK  status: ('A' for Active; 'I' for Inactive)
REMARK    1  A    between atoms: C_1  and  C_2
REMARK    2  A    between atoms: N_15  and  C_25
REMARK    3  A    between atoms: C_16  and  C_18
REMARK    4  A    between atoms: C_22  and  O_24
REMARK    5  A    between atoms: C_25  and  C_26
REMARK                            x       y       z     vdW  Elec       q    Type
REMARK                         _______ _______ _______ _____ _____    ______ ____
ROOT
ATOM      1  C   UNL     1      -7.434  -3.339   4.104  0.00  0.00    +0.044 C 
ATOM      2  C   UNL     1      -6.061  -3.902   3.841  0.00  0.00    -0.050 A 
ATOM      3  C   UNL     1      -5.861  -5.275   3.871  0.00  0.00    +0.007 A 
ATOM      4  C   UNL     1      -4.614  -5.811   3.634  0.00  0.00    +0.047 A 
ATOM      5  C   UNL     1      -3.538  -4.971   3.362  0.00  0.00    +0.139 A 
ATOM      6  C   UNL     1      -3.750  -3.582   3.335  0.00  0.00    +0.065 A 
ATOM      7  C   UNL     1      -5.019  -3.057   3.577  0.00  0.00    +0.018 A 
ATOM      8  C   UNL     1      -2.597  -2.708   3.045  0.00  0.00    +0.199 A 
ATOM      9  O   UNL     1      -2.707  -1.496   3.005  0.00  0.00    -0.287 OA
ATOM     10  C   UNL     1      -1.312  -3.372   2.807  0.00  0.00    +0.072 A 
ATOM     11  C   UNL     1      -1.231  -4.724   2.861  0.00  0.00    +0.199 A 
ATOM     12  O   UNL     1      -2.314  -5.479   3.129  0.00  0.00    -0.450 OA
ATOM     13  C   UNL     1       0.173  -5.120   2.584  0.00  0.00    +0.283 C 
ATOM     14  O   UNL     1       0.580  -6.264   2.557  0.00  0.00    -0.267 OA
ATOM     15  N   UNL     1       0.928  -4.029   2.367  0.00  0.00    -0.280 N 
ATOM     16  C   UNL     1       0.064  -2.849   2.489  0.00  0.00    +0.145 C 
ENDROOT
BRANCH  16  17
ATOM     17  C   UNL     1       0.042  -2.086   1.189  0.00  0.00    -0.019 A 
ATOM     18  C   UNL     1       0.040  -2.770  -0.013  0.00  0.00    +0.006 A 
ATOM     19  C   UNL     1       0.019  -2.074  -1.207  0.00  0.00    +0.004 A 
ATOM     20  C   UNL     1      -0.006  -0.692  -1.202  0.00  0.00    +0.045 A 
ATOM     21  C   UNL     1       0.002  -0.004   0.002  0.00  0.00    +0.117 A 
ATOM     22  C   UNL     1       0.023  -0.705   1.199  0.00  0.00    +0.051 A 
BRANCH  21  23
ATOM     23  O   UNL     1      -0.016   1.355   0.009  0.00  0.00    -0.507 OA
ATOM     24  H   UNL     1       0.862   1.760   0.003  0.00  0.00    +0.292 HD
ENDBRANCH  21  23
ENDBRANCH  16  17
BRANCH  15  25
ATOM     25  C   UNL     1       2.361  -4.021   2.063  0.00  0.00    +0.136 C 
BRANCH  25  26
ATOM     26  C   UNL     1       3.147  -3.945   3.347  0.00  0.00    -0.016 C 
ATOM     27  C   UNL     1       4.059  -4.848   3.611  0.00  0.00    +0.005 C 
ENDBRANCH  25  26
ENDBRANCH  15  25
TORSDOF 4
