REMARK  Name = ZINC15366055
REMARK  12 active torsions:
REMARK  status: ('A' for Active; 'I' for Inactive)
REMARK    1  A    between atoms: C_1  and  C_2
REMARK    2  A    between atoms: C_2  and  N_3
REMARK    3  A    between atoms: N_3  and  C_4
REMARK    4  A    between atoms: C_7  and  S_27
REMARK    5  A    between atoms: C_9  and  N_10
REMARK    6  A    between atoms: N_10  and  C_11
REMARK    7  A    between atoms: C_11  and  C_12
REMARK    8  A    between atoms: N_14  and  C_15
REMARK    9  A    between atoms: C_20  and  N_21
REMARK   10  A    between atoms: S_27  and  N_30
REMARK   11  A    between atoms: N_30  and  C_31
REMARK   12  A    between atoms: N_30  and  C_32
REMARK                            x       y       z     vdW  Elec       q    Type
REMARK                         _______ _______ _______ _____ _____    ______ ____
ROOT
ATOM      1  N   UNL     1       2.017  -1.394  -3.501  0.00  0.00    -0.334 N 
ATOM      2  H   UNL     1       1.911  -0.442  -3.346  0.00  0.00    +0.147 HD
ENDROOT
BRANCH   1   8
ATOM      3  C   UNL     1       0.876  -1.865  -1.417  0.00  0.00    +0.048 A 
ATOM      4  C   UNL     1       0.384  -2.782  -0.501  0.00  0.00    +0.027 A 
ATOM      5  C   UNL     1       0.539  -4.137  -0.727  0.00  0.00    +0.030 A 
ATOM      6  C   UNL     1       1.185  -4.582  -1.866  0.00  0.00    +0.107 A 
ATOM      7  C   UNL     1       1.680  -3.675  -2.784  0.00  0.00    +0.053 A 
ATOM      8  C   UNL     1       1.523  -2.314  -2.569  0.00  0.00    +0.051 A 
BRANCH   6   9
ATOM      9  S   UNL     1       1.379  -6.311  -2.146  0.00  0.00    +0.060 S 
ATOM     10  O   UNL     1       2.497  -6.459  -3.011  0.00  0.00    -0.153 OA
ATOM     11  O   UNL     1       1.312  -6.939  -0.873  0.00  0.00    -0.153 OA
BRANCH   9  12
ATOM     12  N   UNL     1       0.052  -6.821  -2.996  0.00  0.00    -0.183 NA
ATOM     13  C   UNL     1       0.069  -6.802  -4.460  0.00  0.00    +0.131 C 
ATOM     14  C   UNL     1      -1.138  -7.291  -2.283  0.00  0.00    +0.131 C 
ENDBRANCH   9  12
ENDBRANCH   6   9
BRANCH   3  15
ATOM     15  N   UNL     1       0.720  -0.492  -1.190  0.00  0.00    -0.343 N 
ATOM     16  H   UNL     1       1.065   0.148  -1.832  0.00  0.00    +0.146 HD
BRANCH  15  18
ATOM     17  C   UNL     1       0.001   1.507   0.021  0.00  0.00    +0.024 C 
ATOM     18  C   UNL     1       0.036  -0.023   0.017  0.00  0.00    +0.098 C 
ENDBRANCH  15  18
ENDBRANCH   3  15
ENDBRANCH   1   8
BRANCH   1  19
ATOM     19  C   UNL     1       2.696  -1.868  -4.710  0.00  0.00    +0.198 C 
BRANCH  19  20
ATOM     20  C   UNL     1       3.128  -0.687  -5.539  0.00  0.00    +0.234 C 
ATOM     21  O   UNL     1       2.892   0.440  -5.159  0.00  0.00    -0.274 OA
ATOM     22  N   UNL     1       3.776  -0.883  -6.705  0.00  0.00    -0.282 N 
ATOM     23  H   UNL     1       4.023  -1.781  -6.977  0.00  0.00    +0.155 HD
BRANCH  22  24
ATOM     24  C   UNL     1       4.093   0.209  -7.521  0.00  0.00    +0.061 A 
ATOM     25  C   UNL     1       4.438   1.426  -6.952  0.00  0.00    +0.045 A 
ATOM     26  C   UNL     1       4.755   2.502  -7.761  0.00  0.00    +0.043 A 
ATOM     27  C   UNL     1       4.721   2.370  -9.139  0.00  0.00    +0.022 A 
ATOM     28  C   UNL     1       4.373   1.162  -9.713  0.00  0.00    +0.031 A 
ATOM     29  C   UNL     1       4.058   0.077  -8.909  0.00  0.00    +0.088 A 
ATOM     30 CL   UNL     1       5.192   4.023  -7.048  0.00  0.00    -0.083 Cl
BRANCH  29  31
ATOM     31  N   UNL     1       3.705  -1.150  -9.490  0.00  0.00    -0.218 N 
ATOM     32  C   UNL     1       3.717  -1.455 -10.802  0.00  0.00    +0.225 A 
ATOM     33  N   UNL     1       3.324  -2.697 -10.933  0.00  0.00    -0.222 NA
ATOM     34  C   UNL     1       3.045  -3.211  -9.736  0.00  0.00    +0.245 A 
ATOM     35  N   UNL     1       3.263  -2.303  -8.821  0.00  0.00    -0.153 NA
ENDBRANCH  29  31
ENDBRANCH  22  24
ENDBRANCH  19  20
ENDBRANCH   1  19
TORSDOF 9
