REMARK  Name = ZINC09693143
REMARK  6 active torsions:
REMARK  status: ('A' for Active; 'I' for Inactive)
REMARK    1  A    between atoms: C_1  and  C_2
REMARK    2  A    between atoms: C_2  and  O_3
REMARK    3  A    between atoms: O_3  and  C_4
REMARK    4  A    between atoms: C_7  and  C_10
REMARK    5  A    between atoms: N_17  and  C_24
REMARK    6  A    between atoms: C_21  and  C_22
REMARK                            x       y       z     vdW  Elec       q    Type
REMARK                         _______ _______ _______ _____ _____    ______ ____
ROOT
ATOM      1  C   UNL     1       1.192  -0.484  -0.834  0.00  0.00    +0.070 C 
ATOM      2  C   UNL     1       0.002  -0.004   0.002  0.00  0.00    +0.110 C 
ATOM      3  C   UNL     1      -0.018   1.501   0.010  0.00  0.00    +0.222 C 
ATOM      4  O   UNL     1      -1.081   2.085   0.018  0.00  0.00    -0.275 OA
ATOM      5  N   UNL     1       1.135   2.210   0.003  0.00  0.00    -0.248 N 
ATOM      6  C   UNL     1       1.028   3.666  -0.069  0.00  0.00    +0.222 C 
ATOM      7  N   UNL     1       2.044   4.341   0.734  0.00  0.00    -0.304 N 
ATOM      8  C   UNL     1       3.392   4.070   0.208  0.00  0.00    +0.182 C 
ATOM      9  S   UNL     1       3.809   2.350   0.597  0.00  0.00    -0.090 S 
ATOM     10  C   UNL     1       2.343   1.552   0.022  0.00  0.00    +0.087 C 
ATOM     11  C   UNL     1       2.428   0.250  -0.381  0.00  0.00    +0.065 C 
ENDROOT
BRANCH   7  12
ATOM     12  C   UNL     1       1.799   5.715   0.798  0.00  0.00    +0.032 A 
ATOM     13  C   UNL     1       0.703   6.258   0.139  0.00  0.00    +0.024 A 
ATOM     14  C   UNL     1       0.460   7.616   0.209  0.00  0.00    +0.017 A 
ATOM     15  C   UNL     1       1.313   8.436   0.926  0.00  0.00    +0.018 A 
ATOM     16  C   UNL     1       2.408   7.899   1.579  0.00  0.00    +0.017 A 
ATOM     17  C   UNL     1       2.653   6.541   1.517  0.00  0.00    +0.024 A 
ATOM     18 BR   UNL     1       0.981  10.296   1.014  0.00  0.00    -0.050 Br
ENDBRANCH   7  12
BRANCH   1  22
ATOM     19  C   UNL     1       0.469   0.338  -4.965  0.00  0.00    +0.121 A 
ATOM     20  C   UNL     1       0.667  -0.968  -4.540  0.00  0.00    +0.046 A 
ATOM     21  C   UNL     1       0.901  -1.231  -3.205  0.00  0.00    +0.008 A 
ATOM     22  C   UNL     1       0.937  -0.194  -2.291  0.00  0.00    -0.039 A 
ATOM     23  C   UNL     1       0.734   1.107  -2.710  0.00  0.00    +0.008 A 
ATOM     24  C   UNL     1       0.505   1.376  -4.045  0.00  0.00    +0.046 A 
BRANCH  19  25
ATOM     25  O   UNL     1       0.239   0.600  -6.278  0.00  0.00    -0.492 OA
BRANCH  25  27
ATOM     26  C   UNL     1      -0.200   2.064  -8.150  0.00  0.00    +0.048 C 
ATOM     27  C   UNL     1       0.043   1.967  -6.643  0.00  0.00    +0.225 C 
ENDBRANCH  25  27
ENDBRANCH  19  25
ENDBRANCH   1  22
BRANCH  11  28
ATOM     28  C   UNL     1       3.694  -0.419  -0.374  0.00  0.00    +0.098 C 
ATOM     29  N   UNL     1       4.699  -0.950  -0.368  0.00  0.00    -0.191 NA
ENDBRANCH  11  28
TORSDOF 5
