REMARK  Name = ZINC39934909
REMARK  11 active torsions:
REMARK  status: ('A' for Active; 'I' for Inactive)
REMARK    1  A    between atoms: C_1  and  O_2
REMARK    2  A    between atoms: O_2  and  C_3
REMARK    3  A    between atoms: C_8  and  C_13
REMARK    4  A    between atoms: C_13  and  C_34
REMARK    5  A    between atoms: C_14  and  C_15
REMARK    6  A    between atoms: C_18  and  O_23
REMARK    7  A    between atoms: C_19  and  O_21
REMARK    8  A    between atoms: O_21  and  C_22
REMARK    9  A    between atoms: O_23  and  C_24
REMARK   10  A    between atoms: C_24  and  C_25
REMARK   11  A    between atoms: C_28  and  C_31
REMARK                            x       y       z     vdW  Elec       q    Type
REMARK                         _______ _______ _______ _____ _____    ______ ____
ROOT
ATOM      1  C   UNL     1      -5.900  -6.686   2.327  0.00  0.00    -0.020 A 
ATOM      2  C   UNL     1      -5.604  -6.233   3.617  0.00  0.00    +0.012 A 
ATOM      3  C   UNL     1      -5.980  -6.979   4.712  0.00  0.00    +0.050 A 
ATOM      4  C   UNL     1      -6.651  -8.182   4.540  0.00  0.00    +0.162 A 
ATOM      5  C   UNL     1      -6.949  -8.641   3.257  0.00  0.00    +0.162 A 
ATOM      6  C   UNL     1      -6.581  -7.896   2.154  0.00  0.00    +0.057 A 
ENDROOT
BRANCH   1   8
ATOM      7  C   UNL     1      -4.326  -5.225   1.161  0.00  0.00    +0.072 C 
ATOM      8  C   UNL     1      -5.500  -5.891   1.156  0.00  0.00    +0.026 C 
BRANCH   7  14
ATOM      9  C   UNL     1       0.161  -2.406  -0.647  0.00  0.00    +0.122 A 
ATOM     10  C   UNL     1      -0.468  -1.315   0.086  0.00  0.00    +0.048 A 
ATOM     11  C   UNL     1      -1.739  -1.391   0.523  0.00  0.00    +0.031 A 
ATOM     12  C   UNL     1      -2.530  -2.602   0.261  0.00  0.00    +0.061 A 
ATOM     13  N   UNL     1      -3.753  -2.932   0.565  0.00  0.00    -0.359 N 
ATOM     14  C   UNL     1      -3.991  -4.280   0.036  0.00  0.00    +0.216 C 
ATOM     15  N   UNL     1      -2.744  -4.696  -0.618  0.00  0.00    -0.359 N 
ATOM     16  C   UNL     1      -1.890  -3.717  -0.487  0.00  0.00    +0.064 A 
ATOM     17  C   UNL     1      -0.504  -3.552  -0.932  0.00  0.00    +0.073 A 
ATOM     18  H   UNL     1      -4.390  -2.386   1.052  0.00  0.00    +0.162 HD
ATOM     19  H   UNL     1      -2.584  -5.542  -1.065  0.00  0.00    +0.162 HD
BRANCH   9  21
ATOM     20  C   UNL     1       2.103  -1.043  -0.736  0.00  0.00    +0.277 C 
ATOM     21  O   UNL     1       1.445  -2.269  -1.060  0.00  0.00    -0.495 OA
ENDBRANCH   9  21
ENDBRANCH   7  14
BRANCH   7  22
ATOM     22  C   UNL     1      -3.400  -5.416   2.236  0.00  0.00    +0.099 C 
ATOM     23  N   UNL     1      -2.664  -5.568   3.088  0.00  0.00    -0.191 NA
ENDBRANCH   7  22
ENDBRANCH   1   8
BRANCH   5  24
ATOM     24  O   UNL     1      -7.607  -9.820   3.093  0.00  0.00    -0.491 OA
ATOM     25  C   UNL     1      -7.880 -10.229   1.751  0.00  0.00    +0.277 C 
ENDBRANCH   5  24
BRANCH   4  26
ATOM     26  O   UNL     1      -7.018  -8.915   5.623  0.00  0.00    -0.484 OA
BRANCH  26  27
ATOM     27  C   UNL     1      -6.681  -8.386   6.908  0.00  0.00    +0.264 C 
BRANCH  27  28
ATOM     28  C   UNL     1      -7.164  -9.328   7.981  0.00  0.00    -0.010 A 
ATOM     29  C   UNL     1      -8.437  -9.181   8.504  0.00  0.00    +0.008 A 
ATOM     30  C   UNL     1      -8.886 -10.038   9.486  0.00  0.00    +0.015 A 
ATOM     31  C   UNL     1      -8.052 -11.058   9.953  0.00  0.00    +0.063 A 
ATOM     32  C   UNL     1      -6.769 -11.200   9.420  0.00  0.00    +0.015 A 
ATOM     33  C   UNL     1      -6.335 -10.339   8.434  0.00  0.00    +0.008 A 
BRANCH  31  34
ATOM     34  C   UNL     1      -8.525 -11.979  11.004  0.00  0.00    +0.387 C 
ATOM     35  O   UNL     1      -9.649 -11.851  11.469  0.00  0.00    -0.241 OA
ATOM     36  O   UNL     1      -7.793 -12.870  11.410  0.00  0.00    -0.241 OA
ENDBRANCH  31  34
ENDBRANCH  27  28
ENDBRANCH  26  27
ENDBRANCH   4  26
TORSDOF 9
