REMARK  Name = ZINC07368326
REMARK  8 active torsions:
REMARK  status: ('A' for Active; 'I' for Inactive)
REMARK    1  A    between atoms: C_4  and  S_7
REMARK    2  A    between atoms: S_7  and  C_8
REMARK    3  A    between atoms: C_8  and  C_9
REMARK    4  A    between atoms: C_9  and  N_10
REMARK    5  A    between atoms: N_10  and  C_11
REMARK    6  A    between atoms: C_11  and  N_13
REMARK    7  A    between atoms: N_13  and  C_14
REMARK    8  A    between atoms: C_23  and  O_24
REMARK                            x       y       z     vdW  Elec       q    Type
REMARK                         _______ _______ _______ _____ _____    ______ ____
ROOT
ATOM      1  N   UNL     1      -1.197   2.366   0.021  0.00  0.00    -0.296 N 
ATOM      2  H   UNL     1      -1.177   3.314  -0.182  0.00  0.00    +0.154 HD
ENDROOT
BRANCH   1   3
ATOM      3  C   UNL     1      -2.395   1.656  -0.083  0.00  0.00    +0.040 A 
ATOM      4  C   UNL     1      -2.420   0.419  -0.690  0.00  0.00    +0.024 A 
ATOM      5  C   UNL     1      -3.608  -0.299  -0.793  0.00  0.00    +0.003 A 
ATOM      6  C   UNL     1      -4.777   0.203  -0.309  0.00  0.00    +0.012 A 
ATOM      7  C   UNL     1      -4.795   1.463   0.312  0.00  0.00    +0.025 A 
ATOM      8  C   UNL     1      -3.592   2.201   0.428  0.00  0.00    +0.007 A 
ATOM      9  C   UNL     1      -3.612   3.461   1.048  0.00  0.00    +0.010 A 
ATOM     10  C   UNL     1      -4.785   3.959   1.530  0.00  0.00    +0.004 A 
ATOM     11  C   UNL     1      -5.970   3.237   1.419  0.00  0.00    +0.046 A 
ATOM     12  C   UNL     1      -5.991   2.009   0.823  0.00  0.00    +0.125 A 
BRANCH  12  13
ATOM     13  O   UNL     1      -7.156   1.317   0.721  0.00  0.00    -0.506 OA
ATOM     14  H   UNL     1      -7.652   1.498  -0.089  0.00  0.00    +0.292 HD
ENDBRANCH  12  13
ENDBRANCH   1   3
BRANCH   1  15
ATOM     15  C   UNL     1      -0.070   1.733   0.402  0.00  0.00    +0.135 C 
ATOM     16  S   UNL     1      -0.133   0.095   0.894  0.00  0.00    -0.019 S 
BRANCH  15  17
ATOM     17  N   UNL     1       1.107   2.389   0.391  0.00  0.00    -0.326 N 
ATOM     18  H   UNL     1       1.143   3.317   0.112  0.00  0.00    +0.148 HD
BRANCH  17  19
ATOM     19  C   UNL     1       2.334   1.700   0.800  0.00  0.00    +0.114 C 
BRANCH  19  20
ATOM     20  C   UNL     1       3.519   2.662   0.696  0.00  0.00    +0.093 C 
BRANCH  20  21
ATOM     21  S   UNL     1       5.037   1.809   1.202  0.00  0.00    -0.124 S 
BRANCH  21  25
ATOM     22  C   UNL     1       8.263   4.956   0.758  0.00  0.00    +0.000 A 
ATOM     23  C   UNL     1       8.593   3.688   1.199  0.00  0.00    +0.001 A 
ATOM     24  C   UNL     1       7.612   2.726   1.336  0.00  0.00    +0.015 A 
ATOM     25  C   UNL     1       6.292   3.033   1.029  0.00  0.00    +0.008 A 
ATOM     26  C   UNL     1       5.965   4.307   0.580  0.00  0.00    +0.015 A 
ATOM     27  C   UNL     1       6.951   5.266   0.451  0.00  0.00    +0.001 A 
ENDBRANCH  21  25
ENDBRANCH  20  21
ENDBRANCH  19  20
ENDBRANCH  17  19
ENDBRANCH  15  17
ENDBRANCH   1  15
TORSDOF 8
