REMARK  Name = ZINC02720696
REMARK  6 active torsions:
REMARK  status: ('A' for Active; 'I' for Inactive)
REMARK    1  A    between atoms: C_1  and  C_2
REMARK    2  A    between atoms: C_4  and  C_36
REMARK    3  A    between atoms: C_6  and  N_8
REMARK    4  A    between atoms: C_22  and  S_23
REMARK    5  A    between atoms: S_23  and  C_24
REMARK    6  A    between atoms: C_24  and  C_25
REMARK                            x       y       z     vdW  Elec       q    Type
REMARK                         _______ _______ _______ _____ _____    ______ ____
ROOT
ATOM      1  N   UNL     1       0.050  -2.798   2.394  0.00  0.00    -0.254 N 
ATOM      2  C   UNL     1      -0.029  -4.146   2.383  0.00  0.00    +0.283 A 
ATOM      3  O   UNL     1      -0.113  -4.755   1.330  0.00  0.00    -0.265 OA
ATOM      4  C   UNL     1      -0.011  -4.834   3.614  0.00  0.00    +0.132 A 
ATOM      5  C   UNL     1       0.087  -4.092   4.790  0.00  0.00    +0.104 A 
ATOM      6  C   UNL     1       0.083  -5.060   5.895  0.00  0.00    +0.026 A 
ATOM      7  C   UNL     1       0.155  -4.934   7.283  0.00  0.00    +0.012 A 
ATOM      8  C   UNL     1       0.127  -6.051   8.071  0.00  0.00    +0.001 A 
ATOM      9  C   UNL     1       0.027  -7.312   7.500  0.00  0.00    +0.002 A 
ATOM     10  C   UNL     1      -0.046  -7.459   6.133  0.00  0.00    +0.026 A 
ATOM     11  C   UNL     1      -0.019  -6.334   5.311  0.00  0.00    +0.049 A 
ATOM     12  N   UNL     1      -0.074  -6.179   3.942  0.00  0.00    -0.349 N 
ATOM     13  H   UNL     1      -0.146  -6.905   3.303  0.00  0.00    +0.166 HD
ATOM     14  N   UNL     1       0.162  -2.752   4.731  0.00  0.00    -0.221 NA
ATOM     15  C   UNL     1       0.150  -2.123   3.578  0.00  0.00    +0.177 A 
ENDROOT
BRANCH   1  21
ATOM     16  C   UNL     1      -2.490  -0.509  -1.140  0.00  0.00    +0.044 C 
ATOM     17  C   UNL     1      -1.182  -0.968  -0.549  0.00  0.00    -0.048 A 
ATOM     18  C   UNL     1       0.006  -0.689  -1.200  0.00  0.00    +0.006 A 
ATOM     19  C   UNL     1       1.208  -1.108  -0.661  0.00  0.00    -0.048 A 
ATOM     20  C   UNL     1       1.226  -1.807   0.530  0.00  0.00    +0.029 A 
ATOM     21  C   UNL     1       0.035  -2.089   1.186  0.00  0.00    +0.052 A 
ATOM     22  C   UNL     1      -1.170  -1.661   0.645  0.00  0.00    +0.029 A 
ATOM     23  C   UNL     1       2.501  -0.802  -1.374  0.00  0.00    +0.044 C 
ENDBRANCH   1  21
BRANCH  15  24
ATOM     24  S   UNL     1       0.259  -0.364   3.557  0.00  0.00    -0.078 S 
BRANCH  24  25
ATOM     25  C   UNL     1       0.374   0.089   5.310  0.00  0.00    +0.173 C 
BRANCH  25  26
ATOM     26  C   UNL     1       0.473   1.587   5.436  0.00  0.00    +0.230 C 
ATOM     27  O   UNL     1       0.468   2.281   4.442  0.00  0.00    -0.274 OA
ATOM     28  N   UNL     1       0.569   2.156   6.655  0.00  0.00    -0.270 N 
ATOM     29  C   UNL     1       0.665   3.597   6.904  0.00  0.00    +0.118 C 
ATOM     30  C   UNL     1       0.751   3.737   8.432  0.00  0.00    +0.056 C 
ATOM     31  C   UNL     1       0.695   2.317   8.949  0.00  0.00    -0.024 A 
ATOM     32  C   UNL     1       0.584   1.458   7.866  0.00  0.00    +0.040 A 
ATOM     33  C   UNL     1       0.509   0.083   8.097  0.00  0.00    +0.024 A 
ATOM     34  C   UNL     1       0.541  -0.409   9.384  0.00  0.00    +0.002 A 
ATOM     35  C   UNL     1       0.648   0.456  10.457  0.00  0.00    +0.000 A 
ATOM     36  C   UNL     1       0.731   1.819  10.237  0.00  0.00    +0.005 A 
ENDBRANCH  25  26
ENDBRANCH  24  25
ENDBRANCH  15  24
TORSDOF 4
