REMARK  Name = ZINC63573388
REMARK  5 active torsions:
REMARK  status: ('A' for Active; 'I' for Inactive)
REMARK    1  A    between atoms: C_1  and  C_2
REMARK    2  A    between atoms: C_5  and  C_8
REMARK    3  A    between atoms: C_15  and  O_20
REMARK    4  A    between atoms: O_20  and  C_21
REMARK    5  A    between atoms: N_27  and  C_28
REMARK                            x       y       z     vdW  Elec       q    Type
REMARK                         _______ _______ _______ _____ _____    ______ ____
ROOT
ATOM      1  C   UNL     1      -0.462  -4.545   0.691  0.00  0.00    +0.134 C 
ATOM      2  C   UNL     1      -1.576  -5.426   1.267  0.00  0.00    +0.131 C 
ATOM      3  C   UNL     1      -1.074  -6.863   1.198  0.00  0.00    -0.035 C 
ATOM      4  C   UNL     1      -1.979  -7.544   0.506  0.00  0.00    +0.003 A 
ATOM      5  C   UNL     1      -2.087  -8.971   0.167  0.00  0.00    +0.055 A 
ATOM      6  C   UNL     1      -3.160  -9.341  -0.584  0.00  0.00    +0.121 A 
ATOM      7  C   UNL     1      -4.143  -8.451  -1.038  0.00  0.00    +0.047 A 
ATOM      8  C   UNL     1      -4.144  -7.118  -0.781  0.00  0.00    +0.029 A 
ATOM      9  C   UNL     1      -3.034  -6.597   0.028  0.00  0.00    +0.043 A 
ATOM     10  N   UNL     1      -2.790  -5.371   0.450  0.00  0.00    -0.375 N 
ATOM     11  C   UNL     1       0.255  -7.285   1.776  0.00  0.00    +0.052 C 
ATOM     12  C   UNL     1       1.308  -6.305   1.227  0.00  0.00    +0.114 C 
ATOM     13  N   UNL     1       0.801  -4.933   1.338  0.00  0.00    -0.276 N 
ATOM     14  C   UNL     1       1.499  -4.019   2.041  0.00  0.00    +0.307 C 
ATOM     15  O   UNL     1       1.024  -2.918   2.246  0.00  0.00    -0.252 OA
ATOM     16  N   UNL     1       2.723  -4.324   2.516  0.00  0.00    -0.268 N 
ATOM     17  H   UNL     1       3.136  -5.170   2.283  0.00  0.00    +0.156 HD
ATOM     18  H   UNL     1      -3.309  -4.574   0.258  0.00  0.00    +0.160 HD
ENDROOT
BRANCH   1  23
ATOM     19  C   UNL     1      -1.595   1.013   1.790  0.00  0.00    +0.044 C 
ATOM     20  C   UNL     1      -1.299  -0.436   1.503  0.00  0.00    -0.050 A 
ATOM     21  C   UNL     1      -1.631  -1.406   2.431  0.00  0.00    +0.004 A 
ATOM     22  C   UNL     1      -1.360  -2.736   2.168  0.00  0.00    +0.006 A 
ATOM     23  C   UNL     1      -0.758  -3.096   0.977  0.00  0.00    -0.025 A 
ATOM     24  C   UNL     1      -0.428  -2.127   0.049  0.00  0.00    +0.006 A 
ATOM     25  C   UNL     1      -0.703  -0.797   0.310  0.00  0.00    +0.004 A 
ENDBRANCH   1  23
BRANCH  16  26
ATOM     26  C   UNL     1       3.398  -3.420   3.345  0.00  0.00    +0.049 A 
ATOM     27  C   UNL     1       3.141  -2.059   3.244  0.00  0.00    +0.024 A 
ATOM     28  C   UNL     1       3.808  -1.170   4.064  0.00  0.00    +0.002 A 
ATOM     29  C   UNL     1       4.731  -1.633   4.984  0.00  0.00    +0.001 A 
ATOM     30  C   UNL     1       4.989  -2.988   5.087  0.00  0.00    +0.017 A 
ATOM     31  C   UNL     1       4.321  -3.883   4.273  0.00  0.00    +0.039 A 
ATOM     32 BR   UNL     1       4.669  -5.736   4.419  0.00  0.00    -0.048 Br
ENDBRANCH  16  26
BRANCH   6  33
ATOM     33  O   UNL     1      -3.286 -10.654  -0.913  0.00  0.00    -0.495 OA
ATOM     34  C   UNL     1      -4.421 -11.019  -1.702  0.00  0.00    +0.277 C 
ENDBRANCH   6  33
TORSDOF 3
