REMARK  Name = ZINC18151879
REMARK  8 active torsions:
REMARK  status: ('A' for Active; 'I' for Inactive)
REMARK    1  A    between atoms: C_1  and  C_2
REMARK    2  A    between atoms: C_3  and  C_29
REMARK    3  A    between atoms: C_11  and  C_13
REMARK    4  A    between atoms: C_13  and  C_15
REMARK    5  A    between atoms: C_13  and  S_16
REMARK    6  A    between atoms: S_16  and  C_17
REMARK    7  A    between atoms: C_19  and  C_23
REMARK    8  A    between atoms: N_21  and  N_22
REMARK                            x       y       z     vdW  Elec       q    Type
REMARK                         _______ _______ _______ _____ _____    ______ ____
ROOT
ATOM      1  C   UNL     1       0.090  -3.432   4.547  0.00  0.00    +0.117 C 
ATOM      2  C   UNL     1       1.535  -3.832   4.850  0.00  0.00    +0.027 C 
ENDROOT
BRANCH   1  13
ATOM      3  C   UNL     1      -0.018   1.503   0.010  0.00  0.00    +0.045 C 
ATOM      4  C   UNL     1       0.002  -0.004   0.002  0.00  0.00    -0.026 A 
ATOM      5  C   UNL     1       0.006  -0.677  -1.160  0.00  0.00    -0.008 A 
ATOM      6  S   UNL     1       0.032  -2.385  -0.648  0.00  0.00    -0.073 S 
ATOM      7  C   UNL     1       0.037  -2.144   1.110  0.00  0.00    +0.116 A 
ATOM      8  C   UNL     1       0.024  -0.745   1.250  0.00  0.00    +0.075 A 
ATOM      9  C   UNL     1       0.029  -0.257   2.597  0.00  0.00    +0.260 A 
ATOM     10  O   UNL     1       0.014   0.942   2.821  0.00  0.00    -0.267 OA
ATOM     11  N   UNL     1       0.051  -1.142   3.611  0.00  0.00    -0.309 N 
ATOM     12  H   UNL     1       0.054  -0.817   4.525  0.00  0.00    +0.170 HD
ATOM     13  C   UNL     1       0.067  -2.480   3.380  0.00  0.00    +0.124 A 
ATOM     14  N   UNL     1       0.053  -2.956   2.163  0.00  0.00    -0.225 NA
ATOM     15  C   UNL     1      -0.009  -0.122  -2.561  0.00  0.00    +0.052 C 
ENDBRANCH   1  13
BRANCH   1  16
ATOM     16  S   UNL     1      -0.631  -2.623   6.002  0.00  0.00    -0.075 S 
BRANCH  16  17
ATOM     17  C   UNL     1      -0.668  -3.894   7.222  0.00  0.00    +0.187 A 
ATOM     18  N   UNL     1      -0.248  -5.125   7.056  0.00  0.00    -0.221 NA
ATOM     19  C   UNL     1      -0.432  -5.816   8.208  0.00  0.00    +0.092 A 
ATOM     20  C   UNL     1      -0.987  -4.975   9.116  0.00  0.00    +0.138 A 
ATOM     21  N   UNL     1      -1.132  -3.758   8.495  0.00  0.00    -0.251 N 
BRANCH  19  22
ATOM     22  C   UNL     1      -0.088  -7.241   8.435  0.00  0.00    +0.002 A 
ATOM     23  C   UNL     1      -0.338  -7.832   9.673  0.00  0.00    +0.010 A 
ATOM     24  C   UNL     1      -0.016  -9.159   9.878  0.00  0.00    +0.001 A 
ATOM     25  C   UNL     1       0.554  -9.901   8.859  0.00  0.00    +0.000 A 
ATOM     26  C   UNL     1       0.804  -9.319   7.630  0.00  0.00    +0.001 A 
ATOM     27  C   UNL     1       0.481  -7.995   7.411  0.00  0.00    +0.010 A 
ENDBRANCH  19  22
BRANCH  21  28
ATOM     28  N   UNL     1      -1.649  -2.623   9.051  0.00  0.00    -0.296 N 
ATOM     29  H   UNL     1      -2.647  -2.573   8.911  0.00  0.00    +0.163 HD
ATOM     30  H   UNL     1      -1.418  -2.563  10.032  0.00  0.00    +0.163 HD
ENDBRANCH  21  28
ENDBRANCH  16  17
ENDBRANCH   1  16
TORSDOF 5
