REMARK  Name = ZINC12477647
REMARK  13 active torsions:
REMARK  status: ('A' for Active; 'I' for Inactive)
REMARK    1  A    between atoms: C_1  and  C_2
REMARK    2  A    between atoms: C_5  and  C_7
REMARK    3  A    between atoms: N_10  and  C_12
REMARK    4  A    between atoms: C_12  and  C_13
REMARK    5  A    between atoms: N_15  and  C_16
REMARK    6  A    between atoms: N_15  and  C_23
REMARK    7  A    between atoms: C_23  and  C_25
REMARK    8  A    between atoms: C_23  and  C_32
REMARK    9  A    between atoms: C_28  and  O_31
REMARK   10  A    between atoms: N_34  and  C_35
REMARK   11  A    between atoms: C_35  and  C_36
REMARK   12  A    between atoms: C_35  and  C_37
REMARK   13  A    between atoms: C_35  and  C_38
REMARK                            x       y       z     vdW  Elec       q    Type
REMARK                         _______ _______ _______ _____ _____    ______ ____
ROOT
ATOM      1  C   UNL     1       4.625   0.591   1.013  0.00  0.00    +0.244 C 
ATOM      2  O   UNL     1       4.079  -0.194   1.759  0.00  0.00    -0.273 OA
ATOM      3  N   UNL     1       3.909   1.231   0.067  0.00  0.00    -0.251 N 
ENDROOT
BRANCH   3   4
ATOM      4  C   UNL     1       4.539   2.138  -0.794  0.00  0.00    +0.073 A 
ATOM      5  C   UNL     1       4.597   3.485  -0.466  0.00  0.00    +0.026 A 
ATOM      6  C   UNL     1       5.220   4.377  -1.317  0.00  0.00    +0.002 A 
ATOM      7  C   UNL     1       5.786   3.929  -2.497  0.00  0.00    +0.003 A 
ATOM      8  C   UNL     1       5.732   2.588  -2.829  0.00  0.00    +0.040 A 
ATOM      9  C   UNL     1       5.114   1.689  -1.978  0.00  0.00    +0.145 A 
ATOM     10  F   UNL     1       5.065   0.378  -2.300  0.00  0.00    -0.204 F 
ENDBRANCH   3   4
BRANCH   1  11
ATOM     11  C   UNL     1       6.104   0.851   1.143  0.00  0.00    +0.264 C 
BRANCH  11  15
ATOM     12  C   UNL     1       7.271  -0.584   4.150  0.00  0.00    +0.239 A 
ATOM     13  N   UNL     1       7.513  -1.567   3.269  0.00  0.00    -0.105 NA
ATOM     14  N   UNL     1       7.121  -1.151   2.113  0.00  0.00    -0.045 NA
ATOM     15  N   UNL     1       6.648   0.040   2.235  0.00  0.00    -0.154 N 
ATOM     16  N   UNL     1       6.733   0.409   3.466  0.00  0.00    -0.127 NA
BRANCH  12  21
ATOM     17  C   UNL     1       7.578   0.854   8.950  0.00  0.00    +0.086 C 
ATOM     18  C   UNL     1       7.691   0.018   7.701  0.00  0.00    +0.103 A 
ATOM     19  C   UNL     1       8.198  -1.229   7.635  0.00  0.00    +0.045 A 
ATOM     20  C   UNL     1       8.109  -1.639   6.289  0.00  0.00    +0.053 A 
ATOM     21  C   UNL     1       7.555  -0.606   5.601  0.00  0.00    +0.175 A 
ATOM     22  O   UNL     1       7.304   0.391   6.471  0.00  0.00    -0.457 OA
ENDBRANCH  12  21
ENDBRANCH  11  15
ENDBRANCH   1  11
BRANCH   3  23
ATOM     23  C   UNL     1       2.472   0.979  -0.059  0.00  0.00    +0.197 C 
BRANCH  23  24
ATOM     24  C   UNL     1       1.779   1.370   1.221  0.00  0.00    -0.018 A 
ATOM     25  C   UNL     1       0.950   0.467   1.861  0.00  0.00    +0.009 A 
ATOM     26  C   UNL     1       0.309   0.826   3.031  0.00  0.00    +0.046 A 
ATOM     27  C   UNL     1       0.506   2.089   3.570  0.00  0.00    +0.117 A 
ATOM     28  C   UNL     1       1.338   2.993   2.925  0.00  0.00    +0.046 A 
ATOM     29  C   UNL     1       1.972   2.632   1.752  0.00  0.00    +0.009 A 
BRANCH  27  30
ATOM     30  O   UNL     1      -0.119   2.442   4.724  0.00  0.00    -0.507 OA
ATOM     31  H   UNL     1      -0.988   2.845   4.592  0.00  0.00    +0.292 HD
ENDBRANCH  27  30
ENDBRANCH  23  24
BRANCH  23  32
ATOM     32  C   UNL     1       1.917   1.793  -1.200  0.00  0.00    +0.239 C 
ATOM     33  O   UNL     1       2.271   2.942  -1.353  0.00  0.00    -0.273 OA
ATOM     34  N   UNL     1       1.028   1.243  -2.050  0.00  0.00    -0.309 N 
ATOM     35  H   UNL     1       0.745   0.323  -1.928  0.00  0.00    +0.149 HD
BRANCH  34  36
ATOM     36  C   UNL     1       0.489   2.034  -3.159  0.00  0.00    +0.026 C 
ATOM     37  C   UNL     1       1.635   2.488  -4.065  0.00  0.00    +0.031 C 
ATOM     38  C   UNL     1      -0.491   1.179  -3.966  0.00  0.00    +0.031 C 
ATOM     39  C   UNL     1      -0.240   3.259  -2.604  0.00  0.00    +0.031 C 
ENDBRANCH  34  36
ENDBRANCH  23  32
ENDBRANCH   3  23
TORSDOF 9
