REMARK  Name = ZINC03864457
REMARK  10 active torsions:
REMARK  status: ('A' for Active; 'I' for Inactive)
REMARK    1  A    between atoms: C_1  and  C_2
REMARK    2  A    between atoms: C_2  and  C_3
REMARK    3  A    between atoms: C_2  and  N_57
REMARK    4  A    between atoms: C_4  and  C_5
REMARK    5  A    between atoms: C_4  and  N_57
REMARK    6  A    between atoms: C_5  and  C_7
REMARK    7  A    between atoms: C_5  and  O_25
REMARK    8  A    between atoms: C_7  and  O_8
REMARK    9  A    between atoms: O_8  and  C_9
REMARK   10  A    between atoms: C_12  and  C_15
REMARK                            x       y       z     vdW  Elec       q    Type
REMARK                         _______ _______ _______ _____ _____    ______ ____
ROOT
ATOM      1  C   UNL     1      -2.848   1.353  -2.330  0.00  0.00    +0.121 A 
ATOM      2  C   UNL     1      -2.385   2.246  -3.285  0.00  0.00    +0.046 A 
ATOM      3  C   UNL     1      -3.191   2.594  -4.352  0.00  0.00    +0.008 A 
ATOM      4  C   UNL     1      -4.462   2.061  -4.462  0.00  0.00    -0.041 A 
ATOM      5  C   UNL     1      -4.928   1.176  -3.507  0.00  0.00    +0.008 A 
ATOM      6  C   UNL     1      -4.124   0.821  -2.442  0.00  0.00    +0.046 A 
ENDROOT
BRANCH   4   7
ATOM      7  C   UNL     1      -5.342   2.447  -5.623  0.00  0.00    -0.003 C 
ATOM      8  C   UNL     1      -6.619   3.106  -5.098  0.00  0.00    +0.015 C 
ATOM      9  C   UNL     1      -7.512   3.497  -6.277  0.00  0.00    -0.010 C 
ATOM     10  C   UNL     1      -6.764   4.481  -7.179  0.00  0.00    +0.007 C 
ATOM     11  C   UNL     1      -5.487   3.822  -7.704  0.00  0.00    -0.010 C 
ATOM     12  C   UNL     1      -4.594   3.431  -6.524  0.00  0.00    +0.015 C 
ATOM     13  C   UNL     1      -5.851   2.571  -8.505  0.00  0.00    +0.007 C 
ATOM     14  C   UNL     1      -6.599   1.587  -7.604  0.00  0.00    -0.010 C 
ATOM     15  C   UNL     1      -7.876   2.246  -7.079  0.00  0.00    +0.007 C 
ATOM     16  C   UNL     1      -5.706   1.196  -6.425  0.00  0.00    +0.015 C 
ENDBRANCH   4   7
BRANCH   1  17
ATOM     17  O   UNL     1      -2.054   1.005  -1.282  0.00  0.00    -0.489 OA
BRANCH  17  18
ATOM     18  C   UNL     1      -0.753   1.593  -1.232  0.00  0.00    +0.258 C 
BRANCH  18  19
ATOM     19  C   UNL     1      -0.013   1.086   0.008  0.00  0.00    +0.135 C 
BRANCH  19  20
ATOM     20  O   UNL     1      -0.682   1.547   1.184  0.00  0.00    -0.390 OA
ATOM     21  H   UNL     1      -0.732   2.510   1.256  0.00  0.00    +0.210 HD
ENDBRANCH  19  20
BRANCH  19  22
ATOM     22  C   UNL     1       1.423   1.615  -0.003  0.00  0.00    -0.047 C 
BRANCH  22  23
ATOM     23  N   UNL     1       2.164   1.027   1.129  0.00  0.00    +0.382 N 
ATOM     24  H   UNL     1       1.702   1.288   2.008  0.00  0.00    -0.085 HD
ATOM     25  H   UNL     1       2.168   0.004   1.035  0.00  0.00    -0.085 HD
BRANCH  23  27
ATOM     26  C   UNL     1       4.102   1.435   2.569  0.00  0.00    -0.014 C 
ATOM     27  C   UNL     1       3.554   1.520   1.143  0.00  0.00    -0.078 C 
ATOM     28  C   UNL     1       4.411   0.659   0.214  0.00  0.00    -0.014 C 
ENDBRANCH  23  27
ENDBRANCH  22  23
ENDBRANCH  19  22
ENDBRANCH  18  19
ENDBRANCH  17  18
ENDBRANCH   1  17
TORSDOF 8
