REMARK  Name = ZINC36545163
REMARK  13 active torsions:
REMARK  status: ('A' for Active; 'I' for Inactive)
REMARK    1  A    between atoms: C_1  and  C_2
REMARK    2  A    between atoms: C_5  and  C_9
REMARK    3  A    between atoms: C_6  and  C_8
REMARK    4  A    between atoms: C_9  and  C_11
REMARK    5  A    between atoms: C_9  and  N_18
REMARK    6  A    between atoms: N_13  and  C_14
REMARK    7  A    between atoms: C_14  and  C_15
REMARK    8  A    between atoms: C_14  and  C_16
REMARK    9  A    between atoms: C_14  and  C_17
REMARK   10  A    between atoms: N_18  and  C_19
REMARK   11  A    between atoms: C_26  and  C_28
REMARK   12  A    between atoms: C_29  and  O_35
REMARK   13  A    between atoms: C_33  and  O_34
REMARK                            x       y       z     vdW  Elec       q    Type
REMARK                         _______ _______ _______ _____ _____    ______ ____
ROOT
ATOM      1  N   UNL     1       0.212  -5.278  -1.092  0.00  0.00    -0.250 N 
ATOM      2  C   UNL     1      -0.880  -5.992  -1.430  0.00  0.00    +0.259 C 
ATOM      3  O   UNL     1      -1.762  -6.178  -0.613  0.00  0.00    -0.269 OA
ENDROOT
BRANCH   1   4
ATOM      4  C   UNL     1       1.181  -4.983  -2.057  0.00  0.00    +0.056 A 
ATOM      5  C   UNL     1       2.213  -5.879  -2.303  0.00  0.00    +0.025 A 
ATOM      6  C   UNL     1       3.168  -5.585  -3.256  0.00  0.00    +0.002 A 
ATOM      7  C   UNL     1       3.099  -4.400  -3.966  0.00  0.00    +0.002 A 
ATOM      8  C   UNL     1       2.073  -3.505  -3.723  0.00  0.00    +0.022 A 
ATOM      9  C   UNL     1       1.111  -3.795  -2.775  0.00  0.00    +0.062 A 
ATOM     10 CL   UNL     1      -0.180  -2.674  -2.475  0.00  0.00    -0.082 Cl
ENDBRANCH   1   4
BRANCH   2  11
ATOM     11  C   UNL     1      -1.006  -6.545  -2.788  0.00  0.00    +0.120 A 
ATOM     12  C   UNL     1      -0.386  -7.760  -3.116  0.00  0.00    +0.133 A 
ATOM     13  C   UNL     1      -0.510  -8.272  -4.397  0.00  0.00    +0.046 A 
ATOM     14  C   UNL     1      -1.243  -7.590  -5.351  0.00  0.00    +0.007 A 
ATOM     15  C   UNL     1      -1.858  -6.392  -5.039  0.00  0.00    +0.046 A 
ATOM     16  C   UNL     1      -1.752  -5.865  -3.762  0.00  0.00    +0.133 A 
BRANCH  16  17
ATOM     17  O   UNL     1      -2.361  -4.692  -3.457  0.00  0.00    -0.506 OA
ATOM     18  H   UNL     1      -1.843  -3.909  -3.685  0.00  0.00    +0.292 HD
ENDBRANCH  16  17
BRANCH  12  19
ATOM     19  O   UNL     1       0.334  -8.431  -2.182  0.00  0.00    -0.506 OA
ATOM     20  H   UNL     1      -0.184  -9.063  -1.665  0.00  0.00    +0.292 HD
ENDBRANCH  12  19
ENDBRANCH   2  11
BRANCH   1  21
ATOM     21  C   UNL     1       0.384  -4.811   0.286  0.00  0.00    +0.198 C 
BRANCH  21  26
ATOM     22  C   UNL     1       1.320   0.892   0.280  0.00  0.00    +0.044 C 
ATOM     23  C   UNL     1       1.076  -0.595   0.282  0.00  0.00    -0.050 A 
ATOM     24  C   UNL     1       2.143  -1.471   0.354  0.00  0.00    +0.004 A 
ATOM     25  C   UNL     1       1.919  -2.835   0.356  0.00  0.00    +0.006 A 
ATOM     26  C   UNL     1       0.628  -3.324   0.285  0.00  0.00    -0.015 A 
ATOM     27  C   UNL     1      -0.439  -2.448   0.214  0.00  0.00    -0.045 A 
ATOM     28  C   UNL     1      -0.215  -1.084   0.217  0.00  0.00    +0.007 A 
ATOM     29  C   UNL     1      -1.847  -2.981   0.136  0.00  0.00    +0.044 C 
ENDBRANCH  21  26
BRANCH  21  30
ATOM     30  C   UNL     1       1.562  -5.513   0.911  0.00  0.00    +0.239 C 
ATOM     31  O   UNL     1       2.284  -6.210   0.230  0.00  0.00    -0.273 OA
ATOM     32  N   UNL     1       1.813  -5.366   2.227  0.00  0.00    -0.309 N 
ATOM     33  H   UNL     1       1.197  -4.866   2.785  0.00  0.00    +0.149 HD
BRANCH  32  34
ATOM     34  C   UNL     1       3.016  -5.961   2.814  0.00  0.00    +0.026 C 
ATOM     35  C   UNL     1       4.257  -5.379   2.134  0.00  0.00    +0.031 C 
ATOM     36  C   UNL     1       3.061  -5.648   4.311  0.00  0.00    +0.031 C 
ATOM     37  C   UNL     1       2.986  -7.477   2.610  0.00  0.00    +0.031 C 
ENDBRANCH  32  34
ENDBRANCH  21  30
ENDBRANCH   1  21
TORSDOF 8
