REMARK  Name = ZINC08338822
REMARK  8 active torsions:
REMARK  status: ('A' for Active; 'I' for Inactive)
REMARK    1  A    between atoms: C_1  and  C_2
REMARK    2  A    between atoms: C_2  and  C_3
REMARK    3  A    between atoms: C_8  and  N_9
REMARK    4  A    between atoms: C_10  and  C_12
REMARK    5  A    between atoms: C_15  and  C_23
REMARK    6  A    between atoms: C_16  and  C_17
REMARK    7  A    between atoms: C_16  and  C_18
REMARK    8  A    between atoms: N_20  and  O_21
REMARK                            x       y       z     vdW  Elec       q    Type
REMARK                         _______ _______ _______ _____ _____    ______ ____
ROOT
ATOM      1  C   UNL     1      -1.451  -0.272  -4.864  0.00  0.00    +0.058 C 
ATOM      2  C   UNL     1      -0.167  -1.113  -5.143  0.00  0.00    +0.018 C 
ATOM      3  C   UNL     1       0.036  -1.012  -6.672  0.00  0.00    +0.014 C 
ATOM      4  C   UNL     1      -1.150  -0.129  -7.168  0.00  0.00    +0.015 C 
ATOM      5  C   UNL     1      -2.277  -0.565  -6.167  0.00  0.00    -0.010 C 
ATOM      6  C   UNL     1      -2.610  -2.051  -6.315  0.00  0.00    +0.013 C 
ATOM      7  C   UNL     1      -3.527   0.311  -6.264  0.00  0.00    +0.013 C 
ATOM      8  C   UNL     1      -0.828   1.278  -6.646  0.00  0.00    +0.065 C 
ATOM      9  N   UNL     1      -0.476   2.299  -7.332  0.00  0.00    -0.096 NA
ATOM     10  C   UNL     1      -1.033   1.207  -5.128  0.00  0.00    +0.071 C 
ATOM     11  C   UNL     1      -1.489  -0.242  -8.656  0.00  0.00    +0.018 C 
ENDROOT
BRANCH   1  13
ATOM     12  N   UNL     1      -1.505  -0.315  -2.391  0.00  0.00    -0.285 N 
ATOM     13  C   UNL     1      -2.147  -0.541  -3.555  0.00  0.00    +0.224 C 
ATOM     14  O   UNL     1      -3.285  -0.961  -3.548  0.00  0.00    -0.275 OA
ATOM     15  H   UNL     1      -0.620   0.082  -2.395  0.00  0.00    +0.155 HD
BRANCH  12  21
ATOM     16  C   UNL     1      -1.349  -1.119  -0.119  0.00  0.00    -0.026 A 
ATOM     17  C   UNL     1      -1.954  -1.445   1.079  0.00  0.00    +0.005 A 
ATOM     18  C   UNL     1      -3.322  -1.313   1.222  0.00  0.00    +0.000 A 
ATOM     19  C   UNL     1      -4.090  -0.854   0.168  0.00  0.00    +0.002 A 
ATOM     20  C   UNL     1      -3.491  -0.525  -1.033  0.00  0.00    +0.023 A 
ATOM     21  C   UNL     1      -2.116  -0.652  -1.178  0.00  0.00    +0.037 A 
BRANCH  16  23
ATOM     22  C   UNL     1       0.819   0.078   0.019  0.00  0.00    +0.009 C 
ATOM     23  C   UNL     1       0.143  -1.263  -0.275  0.00  0.00    +0.033 C 
ENDBRANCH  16  23
ENDBRANCH  12  21
ENDBRANCH   1  13
BRANCH   9  24
ATOM     24  O   UNL     1      -0.215   3.531  -6.686  0.00  0.00    -0.409 OA
ATOM     25  H   UNL     1       0.044   4.243  -7.286  0.00  0.00    +0.328 HD
ENDBRANCH   9  24
TORSDOF 4
