REMARK  Name = ZINC03627163
REMARK  8 active torsions:
REMARK  status: ('A' for Active; 'I' for Inactive)
REMARK    1  A    between atoms: C_1  and  C_2
REMARK    2  A    between atoms: C_4  and  N_30
REMARK    3  A    between atoms: C_5  and  C_13
REMARK    4  A    between atoms: C_9  and  C_12
REMARK    5  A    between atoms: N_15  and  C_16
REMARK    6  A    between atoms: N_15  and  C_23
REMARK    7  A    between atoms: C_16  and  C_17
REMARK    8  A    between atoms: C_23  and  C_24
REMARK                            x       y       z     vdW  Elec       q    Type
REMARK                         _______ _______ _______ _____ _____    ______ ____
ROOT
ATOM      1  C   UNL     1       4.339  -2.881  -2.614  0.00  0.00    +0.256 C 
ATOM      2  O   UNL     1       3.244  -3.268  -2.246  0.00  0.00    -0.269 OA
ATOM      3  N   UNL     1       5.232  -2.428  -1.711  0.00  0.00    -0.288 N 
ENDROOT
BRANCH   1   8
ATOM      4  C   UNL     1       3.733  -5.728  -7.320  0.00  0.00    +0.046 C 
ATOM      5  C   UNL     1       4.560  -4.474  -7.436  0.00  0.00    -0.019 A 
ATOM      6  C   UNL     1       4.790  -3.656  -6.302  0.00  0.00    +0.033 A 
ATOM      7  C   UNL     1       4.326  -3.846  -4.936  0.00  0.00    +0.054 A 
ATOM      8  C   UNL     1       4.674  -2.908  -3.991  0.00  0.00    +0.097 A 
ATOM      9  S   UNL     1       5.654  -1.738  -4.912  0.00  0.00    -0.062 S 
ATOM     10  C   UNL     1       5.577  -2.502  -6.513  0.00  0.00    +0.111 A 
ATOM     11  N   UNL     1       6.076  -2.192  -7.690  0.00  0.00    -0.243 NA
ATOM     12  C   UNL     1       5.865  -2.949  -8.748  0.00  0.00    +0.058 A 
ATOM     13  C   UNL     1       5.104  -4.105  -8.645  0.00  0.00    +0.066 A 
ATOM     14 CL   UNL     1       4.835  -5.090 -10.049  0.00  0.00    -0.081 Cl
ATOM     15  C   UNL     1       6.454  -2.557 -10.079  0.00  0.00    +0.067 C 
BRANCH   7  16
ATOM     16  N   UNL     1       3.548  -4.945  -4.596  0.00  0.00    -0.356 N 
ATOM     17  H   UNL     1       2.832  -4.850  -3.949  0.00  0.00    +0.142 HD
ATOM     18  H   UNL     1       3.721  -5.807  -5.005  0.00  0.00    +0.142 HD
ENDBRANCH   7  16
ENDBRANCH   1   8
BRANCH   3  19
ATOM     19  C   UNL     1       4.935  -2.517  -0.279  0.00  0.00    +0.143 C 
BRANCH  19  20
ATOM     20  C   UNL     1       4.228  -1.263   0.166  0.00  0.00    -0.030 A 
ATOM     21  C   UNL     1       2.848  -1.194   0.120  0.00  0.00    +0.005 A 
ATOM     22  C   UNL     1       2.199  -0.044   0.529  0.00  0.00    +0.000 A 
ATOM     23  C   UNL     1       2.930   1.038   0.983  0.00  0.00    +0.000 A 
ATOM     24  C   UNL     1       4.310   0.969   1.028  0.00  0.00    +0.000 A 
ATOM     25  C   UNL     1       4.959  -0.181   0.619  0.00  0.00    +0.005 A 
ENDBRANCH  19  20
ENDBRANCH   3  19
BRANCH   3  26
ATOM     26  C   UNL     1       6.498  -1.847  -2.163  0.00  0.00    +0.143 C 
BRANCH  26  27
ATOM     27  C   UNL     1       7.503  -2.947  -2.390  0.00  0.00    -0.030 A 
ATOM     28  C   UNL     1       8.482  -3.194  -1.446  0.00  0.00    +0.005 A 
ATOM     29  C   UNL     1       9.401  -4.207  -1.652  0.00  0.00    +0.000 A 
ATOM     30  C   UNL     1       9.346  -4.965  -2.807  0.00  0.00    +0.000 A 
ATOM     31  C   UNL     1       8.371  -4.713  -3.753  0.00  0.00    +0.000 A 
ATOM     32  C   UNL     1       7.449  -3.705  -3.545  0.00  0.00    +0.005 A 
ENDBRANCH  26  27
ENDBRANCH   3  26
TORSDOF 6
