REMARK  Name = ZINC36670700
REMARK  3 active torsions:
REMARK  status: ('A' for Active; 'I' for Inactive)
REMARK    1  A    between atoms: N_9  and  C_10
REMARK    2  A    between atoms: C_15  and  C_16
REMARK    3  A    between atoms: C_16  and  N_17
REMARK                            x       y       z     vdW  Elec       q    Type
REMARK                         _______ _______ _______ _____ _____    ______ ____
ROOT
ATOM      1  C   UNL     1       4.816  -0.612  -0.048  0.00  0.00    +0.070 A 
ATOM      2  C   UNL     1       5.271   0.697  -0.145  0.00  0.00    +0.043 A 
ATOM      3  C   UNL     1       6.628   0.956  -0.157  0.00  0.00    +0.020 A 
ATOM      4  C   UNL     1       7.534  -0.088  -0.072  0.00  0.00    +0.015 A 
ATOM      5  C   UNL     1       7.083  -1.391   0.024  0.00  0.00    +0.005 A 
ATOM      6  C   UNL     1       5.728  -1.656   0.042  0.00  0.00    -0.039 A 
ATOM      7 BR   UNL     1       7.249   2.737  -0.289  0.00  0.00    -0.050 Br
ENDROOT
BRANCH   1  16
ATOM      8  C   UNL     1       0.181   0.229  -2.297  0.00  0.00    +0.002 A 
ATOM      9  C   UNL     1       1.399   0.762  -2.699  0.00  0.00    +0.002 A 
ATOM     10  C   UNL     1       2.554   0.459  -2.014  0.00  0.00    +0.030 A 
ATOM     11  C   UNL     1       2.500  -0.388  -0.913  0.00  0.00    +0.095 A 
ATOM     12  C   UNL     1       1.268  -0.928  -0.505  0.00  0.00    +0.113 A 
ATOM     13  C   UNL     1       0.107  -0.604  -1.219  0.00  0.00    +0.032 A 
ATOM     14  N   UNL     1       1.501  -1.707   0.578  0.00  0.00    -0.129 NA
ATOM     15  N   UNL     1       2.753  -1.696   0.872  0.00  0.00    -0.060 NA
ATOM     16  N   UNL     1       3.441  -0.878  -0.036  0.00  0.00    -0.212 N 
ENDBRANCH   1  16
BRANCH   6  17
ATOM     17  C   UNL     1       5.238  -3.076   0.153  0.00  0.00    -0.048 C 
BRANCH  17  18
ATOM     18  N   UNL     1       4.860  -3.570  -1.178  0.00  0.00    +0.381 N 
ATOM     19  H   UNL     1       4.126  -2.990  -1.556  0.00  0.00    -0.090 HD
ATOM     20  H   UNL     1       5.663  -3.538  -1.789  0.00  0.00    -0.090 HD
ATOM     21  H   UNL     1       4.532  -4.521  -1.103  0.00  0.00    -0.090 HD
ENDBRANCH  17  18
ENDBRANCH   6  17
TORSDOF 3
