REMARK  Name = ZINC21734258
REMARK  8 active torsions:
REMARK  status: ('A' for Active; 'I' for Inactive)
REMARK    1  A    between atoms: C_1  and  C_2
REMARK    2  A    between atoms: C_5  and  C_8
REMARK    3  A    between atoms: C_8  and  C_10
REMARK    4  A    between atoms: C_8  and  N_15
REMARK    5  A    between atoms: C_16  and  C_18
REMARK    6  A    between atoms: C_18  and  N_19
REMARK    7  A    between atoms: C_22  and  C_26
REMARK    8  A    between atoms: C_22  and  C_27
REMARK                            x       y       z     vdW  Elec       q    Type
REMARK                         _______ _______ _______ _____ _____    ______ ____
ROOT
ATOM      1  C   UNL     1      -2.481   1.520   0.020  0.00  0.00    +0.213 C 
ENDROOT
BRANCH   1   2
ATOM      2  N   UNL     1      -1.099   2.007   0.017  0.00  0.00    -0.215 N 
ATOM      3  C   UNL     1      -0.014   1.208   0.009  0.00  0.00    +0.251 C 
ATOM      4  O   UNL     1       0.002  -0.004   0.002  0.00  0.00    -0.272 OA
ATOM      5  C   UNL     1       1.181   2.140   0.002  0.00  0.00    +0.135 C 
ATOM      6  N   UNL     1       0.574   3.482   0.015  0.00  0.00    -0.281 N 
ATOM      7  C   UNL     1      -0.759   3.301   0.026  0.00  0.00    +0.310 C 
ATOM      8  O   UNL     1      -1.564   4.212   0.039  0.00  0.00    -0.252 OA
ATOM      9  C   UNL     1       2.014   1.938  -1.265  0.00  0.00    +0.047 C 
ATOM     10  H   UNL     1       1.215   4.376   0.013  0.00  0.00    +0.152 HD
BRANCH   5  11
ATOM     11  C   UNL     1       2.027   1.926   1.231  0.00  0.00    -0.013 A 
ATOM     12  C   UNL     1       2.749   2.977   1.764  0.00  0.00    +0.009 A 
ATOM     13  C   UNL     1       3.525   2.783   2.891  0.00  0.00    +0.041 A 
ATOM     14  C   UNL     1       3.580   1.536   3.488  0.00  0.00    +0.158 A 
ATOM     15  C   UNL     1       2.856   0.481   2.953  0.00  0.00    +0.159 A 
ATOM     16  C   UNL     1       2.075   0.680   1.827  0.00  0.00    +0.047 A 
ATOM     17  F   UNL     1       2.907  -0.738   3.534  0.00  0.00    -0.202 F 
ATOM     18  F   UNL     1       4.338   1.345   4.589  0.00  0.00    -0.202 F 
ENDBRANCH   5  11
ENDBRANCH   1   2
BRANCH   1  20
ATOM     19  N   UNL     1      -4.197   0.902   1.690  0.00  0.00    -0.303 N 
ATOM     20  C   UNL     1      -2.949   1.345   1.442  0.00  0.00    +0.232 C 
ATOM     21  O   UNL     1      -2.202   1.602   2.362  0.00  0.00    -0.274 OA
ATOM     22  H   UNL     1      -4.875   0.669   0.856  0.00  0.00    +0.150 HD
BRANCH  19  23
ATOM     23  C   UNL     1      -4.653   0.732   3.072  0.00  0.00    +0.140 C 
BRANCH  23  28
ATOM     24  C   UNL     1      -8.881  -3.204   3.236  0.00  0.00    +0.044 C 
ATOM     25  C   UNL     1      -7.779  -2.177   3.194  0.00  0.00    -0.050 A 
ATOM     26  C   UNL     1      -6.816  -2.155   4.186  0.00  0.00    +0.004 A 
ATOM     27  C   UNL     1      -5.804  -1.214   4.146  0.00  0.00    +0.006 A 
ATOM     28  C   UNL     1      -5.755  -0.294   3.115  0.00  0.00    -0.022 A 
ATOM     29  C   UNL     1      -6.721  -0.313   2.126  0.00  0.00    +0.006 A 
ATOM     30  C   UNL     1      -7.730  -1.257   2.163  0.00  0.00    +0.004 A 
ENDBRANCH  23  28
BRANCH  23  31
ATOM     31  C   UNL     1      -5.170   2.047   3.597  0.00  0.00    +0.014 A 
ATOM     32  C   UNL     1      -5.010   2.598   4.825  0.00  0.00    +0.013 A 
ATOM     33  C   UNL     1      -5.580   3.830   5.085  0.00  0.00    +0.008 A 
ATOM     34  C   UNL     1      -6.281   4.451   4.105  0.00  0.00    +0.045 A 
ATOM     35  S   UNL     1      -6.144   3.286   2.759  0.00  0.00    -0.099 S 
ENDBRANCH  23  31
ENDBRANCH  19  23
ENDBRANCH   1  20
TORSDOF 6
