REMARK  Name = ZINC18276646
REMARK  2 active torsions:
REMARK  status: ('A' for Active; 'I' for Inactive)
REMARK    1  A    between atoms: C_4  and  C_7
REMARK    2  A    between atoms: C_12  and  C_22
REMARK                            x       y       z     vdW  Elec       q    Type
REMARK                         _______ _______ _______ _____ _____    ______ ____
ROOT
ATOM      1  C   UNL     1       1.154  -0.507  -0.761  0.00  0.00    +0.032 C 
ATOM      2  C   UNL     1      -0.052   0.014   0.018  0.00  0.00    +0.059 C 
ATOM      3  C   UNL     1      -0.050   1.534   0.018  0.00  0.00    +0.017 C 
ATOM      4  C   UNL     1       1.109   2.213   0.011  0.00  0.00    +0.036 C 
ATOM      5  C   UNL     1       1.257   3.716   0.033  0.00  0.00    +0.137 C 
ATOM      6  N   UNL     1       0.027   4.442  -0.204  0.00  0.00    -0.331 N 
ATOM      7  C   UNL     1      -1.038   4.365   0.691  0.00  0.00    +0.049 A 
ATOM      8  C   UNL     1      -1.463   5.473   1.408  0.00  0.00    +0.025 A 
ATOM      9  C   UNL     1      -2.496   5.338   2.319  0.00  0.00    +0.002 A 
ATOM     10  C   UNL     1      -3.099   4.110   2.517  0.00  0.00    +0.002 A 
ATOM     11  C   UNL     1      -2.688   3.005   1.791  0.00  0.00    +0.025 A 
ATOM     12  C   UNL     1      -1.670   3.143   0.864  0.00  0.00    +0.052 A 
ATOM     13  N   UNL     1      -1.283   2.103   0.029  0.00  0.00    -0.316 N 
ATOM     14  C   UNL     1       2.341   1.518  -0.019  0.00  0.00    +0.163 C 
ATOM     15  O   UNL     1       3.375   2.158  -0.000  0.00  0.00    -0.292 OA
ATOM     16  C   UNL     1       2.418   0.022  -0.074  0.00  0.00    +0.088 C 
ATOM     17  H   UNL     1      -0.057   4.991  -1.000  0.00  0.00    +0.147 HD
ATOM     18  H   UNL     1      -1.943   1.758  -0.592  0.00  0.00    +0.152 HD
ENDROOT
BRANCH   1  22
ATOM     19  C   UNL     1       1.166  -4.779  -0.721  0.00  0.00    +0.000 A 
ATOM     20  C   UNL     1       1.101  -4.099  -1.923  0.00  0.00    +0.000 A 
ATOM     21  C   UNL     1       1.097  -2.717  -1.936  0.00  0.00    +0.004 A 
ATOM     22  C   UNL     1       1.158  -2.014  -0.747  0.00  0.00    -0.044 A 
ATOM     23  C   UNL     1       1.230  -2.694   0.455  0.00  0.00    +0.004 A 
ATOM     24  C   UNL     1       1.229  -4.076   0.468  0.00  0.00    +0.000 A 
ENDBRANCH   1  22
BRANCH   5  25
ATOM     25  C   UNL     1       1.800   4.123   1.378  0.00  0.00    -0.005 A 
ATOM     26  C   UNL     1       1.057   3.910   2.530  0.00  0.00    +0.009 A 
ATOM     27  C   UNL     1       1.599   4.297   3.745  0.00  0.00    +0.020 A 
ATOM     28  C   UNL     1       2.849   4.888   3.769  0.00  0.00    +0.111 A 
ATOM     29  N   UNL     1       3.525   5.080   2.653  0.00  0.00    -0.263 NA
ATOM     30  C   UNL     1       3.043   4.719   1.479  0.00  0.00    +0.116 A 
ENDBRANCH   5  25
TORSDOF 2
