REMARK  Name = ZINC63354506
REMARK  9 active torsions:
REMARK  status: ('A' for Active; 'I' for Inactive)
REMARK    1  A    between atoms: C_1  and  C_2
REMARK    2  A    between atoms: C_5  and  C_8
REMARK    3  A    between atoms: N_10  and  C_11
REMARK    4  A    between atoms: C_11  and  C_24
REMARK    5  A    between atoms: C_12  and  C_13
REMARK    6  A    between atoms: N_16  and  C_23
REMARK    7  A    between atoms: N_26  and  C_27
REMARK    8  A    between atoms: C_27  and  C_28
REMARK    9  A    between atoms: C_28  and  C_29
REMARK                            x       y       z     vdW  Elec       q    Type
REMARK                         _______ _______ _______ _____ _____    ______ ____
ROOT
ATOM      1  C   UNL     1       0.160  -6.327   1.220  0.00  0.00    +0.093 C 
ATOM      2  C   UNL     1       0.244  -7.053   0.102  0.00  0.00    +0.011 C 
ENDROOT
BRANCH   2   3
ATOM      3  C   UNL     1       0.366  -6.369  -1.234  0.00  0.00    +0.063 C 
ATOM      4  C   UNL     1      -0.718  -6.877  -2.199  0.00  0.00    +0.117 C 
ATOM      5  N   UNL     1       0.014  -7.485  -3.313  0.00  0.00    -0.332 N 
ATOM      6  C   UNL     1       1.389  -7.383  -3.097  0.00  0.00    +0.033 A 
ATOM      7  C   UNL     1       1.673  -6.739  -1.899  0.00  0.00    -0.018 A 
ATOM      8  C   UNL     1       2.981  -6.537  -1.502  0.00  0.00    +0.006 A 
ATOM      9  C   UNL     1       4.024  -6.975  -2.297  0.00  0.00    +0.000 A 
ATOM     10  C   UNL     1       3.755  -7.616  -3.492  0.00  0.00    +0.002 A 
ATOM     11  C   UNL     1       2.446  -7.824  -3.895  0.00  0.00    +0.023 A 
ATOM     12  C   UNL     1      -0.607  -8.109  -4.484  0.00  0.00    +0.129 C 
ENDBRANCH   2   3
BRANCH   1  15
ATOM     13  C   UNL     1      -0.976  -4.290   1.692  0.00  0.00    +0.248 C 
ATOM     14  O   UNL     1      -1.892  -4.926   2.177  0.00  0.00    -0.270 OA
ATOM     15  N   UNL     1       0.074  -4.931   1.142  0.00  0.00    -0.278 N 
ATOM     16  H   UNL     1       0.769  -4.427   0.693  0.00  0.00    +0.155 HD
BRANCH  13  21
ATOM     17  C   UNL     1      -1.123   1.463   1.750  0.00  0.00    +0.044 C 
ATOM     18  C   UNL     1      -1.085  -0.044   1.735  0.00  0.00    -0.050 A 
ATOM     19  C   UNL     1      -2.128  -0.765   2.287  0.00  0.00    +0.004 A 
ATOM     20  C   UNL     1      -2.100  -2.144   2.276  0.00  0.00    +0.013 A 
ATOM     21  C   UNL     1      -1.014  -2.812   1.707  0.00  0.00    +0.037 A 
ATOM     22  C   UNL     1       0.036  -2.078   1.152  0.00  0.00    +0.013 A 
ATOM     23  C   UNL     1      -0.008  -0.700   1.165  0.00  0.00    +0.004 A 
ENDBRANCH  13  21
ENDBRANCH   1  15
BRANCH   1  24
ATOM     24  C   UNL     1       0.158  -6.995   2.535  0.00  0.00    +0.258 C 
ATOM     25  O   UNL     1       0.082  -6.333   3.553  0.00  0.00    -0.269 OA
ATOM     26  N   UNL     1       0.241  -8.338   2.610  0.00  0.00    -0.310 N 
ATOM     27  H   UNL     1       0.302  -8.866   1.798  0.00  0.00    +0.149 HD
BRANCH  26  28
ATOM     28  C   UNL     1       0.239  -9.001   3.916  0.00  0.00    +0.109 C 
BRANCH  28  29
ATOM     29  C   UNL     1       0.342 -10.514   3.720  0.00  0.00    +0.052 C 
BRANCH  29  30
ATOM     30  C   UNL     1       0.340 -11.196   5.064  0.00  0.00    -0.040 C 
ATOM     31  C   UNL     1      -0.728 -11.721   5.708  0.00  0.00    -0.001 A 
ATOM     32  C   UNL     1      -2.152 -11.810   5.364  0.00  0.00    +0.010 A 
ATOM     33  C   UNL     1      -3.000 -12.407   6.231  0.00  0.00    +0.001 A 
ATOM     34  C   UNL     1      -2.555 -12.941   7.448  0.00  0.00    +0.002 A 
ATOM     35  C   UNL     1      -1.262 -12.898   7.834  0.00  0.00    +0.026 A 
ATOM     36  C   UNL     1      -0.282 -12.294   6.999  0.00  0.00    +0.043 A 
ATOM     37  N   UNL     1       1.010 -12.129   7.147  0.00  0.00    -0.380 N 
ATOM     38  C   UNL     1       1.532 -11.438   5.963  0.00  0.00    +0.144 C 
ATOM     39  H   UNL     1       1.533 -12.419   7.910  0.00  0.00    +0.160 HD
ENDBRANCH  29  30
ENDBRANCH  28  29
ENDBRANCH  26  28
ENDBRANCH   1  24
TORSDOF 7
