REMARK  Name = ZINC35166974
REMARK  10 active torsions:
REMARK  status: ('A' for Active; 'I' for Inactive)
REMARK    1  A    between atoms: C_1  and  C_2
REMARK    2  A    between atoms: C_3  and  C_19
REMARK    3  A    between atoms: C_4  and  C_10
REMARK    4  A    between atoms: C_13  and  O_18
REMARK    5  A    between atoms: C_14  and  O_16
REMARK    6  A    between atoms: O_16  and  C_17
REMARK    7  A    between atoms: N_21  and  N_22
REMARK    8  A    between atoms: C_23  and  C_24
REMARK    9  A    between atoms: C_29  and  O_30
REMARK   10  A    between atoms: O_30  and  C_31
REMARK                            x       y       z     vdW  Elec       q    Type
REMARK                         _______ _______ _______ _____ _____    ______ ____
ROOT
ATOM      1  C   UNL     1      -0.129   1.449   0.374  0.00  0.00    +0.061 C 
ATOM      2  C   UNL     1      -0.041  -0.043   0.182  0.00  0.00    +0.017 C 
ATOM      3  C   UNL     1      -1.160  -0.744  -0.098  0.00  0.00    +0.057 C 
ATOM      4  C   UNL     1      -1.027  -2.242  -0.284  0.00  0.00    +0.139 C 
ATOM      5  N   UNL     1       0.323  -2.814  -0.144  0.00  0.00    -0.315 N 
ATOM      6  C   UNL     1       1.346  -1.983   0.138  0.00  0.00    +0.135 C 
ATOM      7  S   UNL     1       2.920  -2.635   0.303  0.00  0.00    -0.019 S 
ATOM      8  N   UNL     1       1.171  -0.664   0.287  0.00  0.00    -0.300 N 
ATOM      9  H   UNL     1       0.472  -3.766  -0.251  0.00  0.00    +0.149 HD
ATOM     10  H   UNL     1       1.949  -0.119   0.485  0.00  0.00    +0.154 HD
ENDROOT
BRANCH   4  11
ATOM     11  C   UNL     1      -1.536  -2.586  -1.660  0.00  0.00    -0.019 A 
ATOM     12  C   UNL     1      -2.650  -3.393  -1.801  0.00  0.00    +0.009 A 
ATOM     13  C   UNL     1      -3.121  -3.712  -3.061  0.00  0.00    +0.049 A 
ATOM     14  C   UNL     1      -2.477  -3.222  -4.186  0.00  0.00    +0.158 A 
ATOM     15  C   UNL     1      -1.356  -2.409  -4.044  0.00  0.00    +0.162 A 
ATOM     16  C   UNL     1      -0.892  -2.089  -2.778  0.00  0.00    +0.055 A 
BRANCH  15  17
ATOM     17  O   UNL     1      -0.721  -1.925  -5.145  0.00  0.00    -0.491 OA
ATOM     18  C   UNL     1       0.486  -1.192  -4.927  0.00  0.00    +0.277 C 
ENDBRANCH  15  17
BRANCH  14  19
ATOM     19  O   UNL     1      -2.938  -3.534  -5.426  0.00  0.00    -0.503 OA
ATOM     20  H   UNL     1      -3.592  -2.911  -5.772  0.00  0.00    +0.292 HD
ENDBRANCH  14  19
ENDBRANCH   4  11
BRANCH   3  21
ATOM     21  C   UNL     1      -2.417  -0.101  -0.213  0.00  0.00    +0.263 C 
ATOM     22  O   UNL     1      -2.484   1.115  -0.178  0.00  0.00    -0.269 OA
ATOM     23  N   UNL     1      -3.538  -0.834  -0.359  0.00  0.00    -0.203 N 
ATOM     24  H   UNL     1      -3.495  -1.802  -0.309  0.00  0.00    +0.178 HD
BRANCH  23  25
ATOM     25  N   UNL     1      -4.766  -0.198  -0.586  0.00  0.00    -0.187 NA
ATOM     26  C   UNL     1      -5.860  -0.896  -0.630  0.00  0.00    +0.142 C 
BRANCH  26  27
ATOM     27  C   UNL     1      -7.136  -0.245  -0.977  0.00  0.00    +0.036 A 
ATOM     28  C   UNL     1      -8.316  -0.991  -1.020  0.00  0.00    +0.013 A 
ATOM     29  C   UNL     1      -9.506  -0.376  -1.345  0.00  0.00    +0.001 A 
ATOM     30  C   UNL     1      -9.537   0.979  -1.629  0.00  0.00    +0.004 A 
ATOM     31  C   UNL     1      -8.376   1.728  -1.590  0.00  0.00    +0.046 A 
ATOM     32  C   UNL     1      -7.173   1.127  -1.260  0.00  0.00    +0.129 A 
BRANCH  32  33
ATOM     33  O   UNL     1      -6.032   1.863  -1.216  0.00  0.00    -0.494 OA
ATOM     34  C   UNL     1      -6.147   3.256  -1.517  0.00  0.00    +0.277 C 
ENDBRANCH  32  33
ENDBRANCH  26  27
ENDBRANCH  23  25
ENDBRANCH   3  21
TORSDOF 7
