REMARK  Name = ZINC39466814
REMARK  4 active torsions:
REMARK  status: ('A' for Active; 'I' for Inactive)
REMARK    1  A    between atoms: C_4  and  C_7
REMARK    2  A    between atoms: C_7  and  P_8
REMARK    3  A    between atoms: C_16  and  C_27
REMARK    4  A    between atoms: C_32  and  O_33
REMARK                            x       y       z     vdW  Elec       q    Type
REMARK                         _______ _______ _______ _____ _____    ______ ____
ROOT
ATOM      1  P   UNL     1       4.260  -1.012   1.674  0.00  0.00    +0.262 P 
ATOM      2  O   UNL     1       3.282  -1.870   2.380  0.00  0.00    -0.274 OA
ATOM      3  N   UNL     1       5.752  -1.716   1.680  0.00  0.00    -0.291 NA
ATOM      4  N   UNL     1       6.498  -1.631   2.837  0.00  0.00    +0.397 N 
ATOM      5  C   UNL     1       7.805  -2.232   2.523  0.00  0.00    -0.046 C 
ATOM      6  C   UNL     1       8.720  -2.213   3.740  0.00  0.00    +0.005 C 
ATOM      7  C   UNL     1       8.110  -3.000   4.869  0.00  0.00    -0.015 C 
ATOM      8  C   UNL     1       8.500  -2.750   6.131  0.00  0.00    -0.004 C 
ATOM      9  C   UNL     1       9.529  -1.715   6.377  0.00  0.00    +0.022 C 
ATOM     10  C   UNL     1       9.743  -0.770   5.469  0.00  0.00    -0.007 C 
ATOM     11  C   UNL     1       8.930  -0.767   4.198  0.00  0.00    +0.017 C 
ATOM     12  C   UNL     1       7.563  -0.142   4.479  0.00  0.00    -0.003 C 
ATOM     13  C   UNL     1       6.664  -0.233   3.240  0.00  0.00    -0.020 C 
ATOM     14  C   UNL     1       5.320   0.407   3.611  0.00  0.00    +0.156 C 
ATOM     15  O   UNL     1       4.449   0.397   2.466  0.00  0.00    -0.319 OA
ATOM     16 BR   UNL     1      10.534  -1.738   7.979  0.00  0.00    -0.050 Br
ATOM     17  H   UNL     1       6.094  -2.174   0.896  0.00  0.00    +0.111 HD
ATOM     18  H   UNL     1       6.042  -2.147   3.574  0.00  0.00    -0.055 HD
ENDROOT
BRANCH   8  19
ATOM     19  C   UNL     1       7.905  -3.501   7.263  0.00  0.00    +0.024 A 
ATOM     20  C   UNL     1       8.284  -4.820   7.504  0.00  0.00    +0.012 A 
ATOM     21  C   UNL     1       7.728  -5.514   8.558  0.00  0.00    +0.001 A 
ATOM     22  C   UNL     1       6.794  -4.905   9.379  0.00  0.00    +0.004 A 
ATOM     23  C   UNL     1       6.411  -3.598   9.149  0.00  0.00    +0.046 A 
ATOM     24  C   UNL     1       6.966  -2.886   8.097  0.00  0.00    +0.125 A 
BRANCH  24  25
ATOM     25  O   UNL     1       6.595  -1.599   7.874  0.00  0.00    -0.506 OA
ATOM     26  H   UNL     1       5.836  -1.505   7.282  0.00  0.00    +0.292 HD
ENDBRANCH  24  25
ENDBRANCH   8  19
BRANCH   1  27
ATOM     27  C   UNL     1       3.711  -0.707  -0.038  0.00  0.00    +0.147 C 
BRANCH  27  31
ATOM     28  C   UNL     1      -0.017   1.378   0.010  0.00  0.00    +0.000 A 
ATOM     29  C   UNL     1       1.171   2.086   0.002  0.00  0.00    +0.000 A 
ATOM     30  C   UNL     1       2.377   1.411  -0.013  0.00  0.00    +0.004 A 
ATOM     31  C   UNL     1       2.396   0.029  -0.020  0.00  0.00    -0.037 A 
ATOM     32  C   UNL     1       1.208  -0.679  -0.012  0.00  0.00    +0.004 A 
ATOM     33  C   UNL     1       0.002  -0.004   0.002  0.00  0.00    +0.000 A 
ENDBRANCH  27  31
ENDBRANCH   1  27
TORSDOF 4
