REMARK  Name = ZINC08690939
REMARK  4 active torsions:
REMARK  status: ('A' for Active; 'I' for Inactive)
REMARK    1  A    between atoms: C_1  and  C_2
REMARK    2  A    between atoms: C_2  and  C_26
REMARK    3  A    between atoms: C_6  and  C_16
REMARK    4  A    between atoms: C_13  and  O_15
REMARK                            x       y       z     vdW  Elec       q    Type
REMARK                         _______ _______ _______ _____ _____    ______ ____
ROOT
ATOM      1  C   UNL     1      -0.019   1.540   0.011  0.00  0.00    +0.031 C 
ATOM      2  C   UNL     1       0.002  -0.004   0.002  0.00  0.00    +0.031 C 
ATOM      3  C   UNL     1       0.699  -0.467  -1.271  0.00  0.00    +0.058 C 
ATOM      4  C   UNL     1       1.160  -1.915  -1.239  0.00  0.00    +0.074 C 
ATOM      5  C   UNL     1      -0.011  -2.854  -1.546  0.00  0.00    +0.082 C 
ATOM      6  C   UNL     1       0.548  -4.266  -1.774  0.00  0.00    +0.206 C 
ATOM      7  O   UNL     1       1.330  -4.240  -2.969  0.00  0.00    -0.484 OA
ATOM      8  C   UNL     1       2.249  -3.247  -3.095  0.00  0.00    +0.130 A 
ATOM      9  C   UNL     1       2.229  -2.118  -2.295  0.00  0.00    +0.020 A 
ATOM     10  C   UNL     1       3.213  -1.154  -2.440  0.00  0.00    +0.013 A 
ATOM     11  C   UNL     1       4.193  -1.294  -3.402  0.00  0.00    +0.046 A 
ATOM     12  C   UNL     1       4.203  -2.411  -4.224  0.00  0.00    +0.120 A 
ATOM     13  C   UNL     1       3.233  -3.387  -4.068  0.00  0.00    +0.091 A 
ATOM     14  N   UNL     1       1.734  -2.271   0.056  0.00  0.00    -0.357 N 
ATOM     15  C   UNL     1       1.515  -1.555   1.185  0.00  0.00    +0.140 C 
ATOM     16  N   UNL     1       0.715  -0.454   1.198  0.00  0.00    -0.320 N 
ATOM     17  S   UNL     1       2.248  -2.037   2.597  0.00  0.00    -0.016 SA
ATOM     18  C   UNL     1      -1.451  -0.489   0.041  0.00  0.00    +0.031 C 
ATOM     19  H   UNL     1       0.615   0.050   2.033  0.00  0.00    +0.148 HD
ATOM     20  H   UNL     1       2.302  -3.057   0.108  0.00  0.00    +0.162 HD
ENDROOT
BRANCH   6  21
ATOM     21  C   UNL     1      -0.589  -5.242  -1.930  0.00  0.00    -0.007 A 
ATOM     22  C   UNL     1      -1.177  -5.427  -3.167  0.00  0.00    +0.007 A 
ATOM     23  C   UNL     1      -2.220  -6.323  -3.311  0.00  0.00    +0.000 A 
ATOM     24  C   UNL     1      -2.675  -7.035  -2.216  0.00  0.00    +0.000 A 
ATOM     25  C   UNL     1      -2.086  -6.851  -0.979  0.00  0.00    +0.000 A 
ATOM     26  C   UNL     1      -1.041  -5.958  -0.837  0.00  0.00    +0.007 A 
ENDBRANCH   6  21
BRANCH  12  27
ATOM     27  O   UNL     1       5.160  -2.548  -5.179  0.00  0.00    -0.507 OA
ATOM     28  H   UNL     1       5.954  -3.009  -4.876  0.00  0.00    +0.292 HD
ENDBRANCH  12  27
TORSDOF 2
