REMARK  Name = ZINC58930146
REMARK  9 active torsions:
REMARK  status: ('A' for Active; 'I' for Inactive)
REMARK    1  A    between atoms: C_1  and  C_2
REMARK    2  A    between atoms: C_2  and  C_3
REMARK    3  A    between atoms: C_3  and  O_4
REMARK    4  A    between atoms: O_4  and  C_5
REMARK    5  A    between atoms: C_8  and  N_11
REMARK    6  A    between atoms: C_17  and  C_32
REMARK    7  A    between atoms: C_17  and  C_33
REMARK    8  A    between atoms: N_18  and  C_25
REMARK    9  A    between atoms: C_25  and  C_26
REMARK                            x       y       z     vdW  Elec       q    Type
REMARK                         _______ _______ _______ _____ _____    ______ ____
ROOT
ATOM      1  N   UNL     1       4.249  -3.939   5.463  0.00  0.00    -0.240 NA
ATOM      2  C   UNL     1       3.483  -4.884   5.995  0.00  0.00    +0.117 A 
ATOM      3  C   UNL     1       3.836  -5.742   7.079  0.00  0.00    +0.029 A 
ATOM      4  C   UNL     1       3.039  -6.711   7.626  0.00  0.00    +0.030 A 
ATOM      5  S   UNL     1       1.538  -6.827   6.875  0.00  0.00    -0.052 S 
ATOM      6  S   UNL     1       1.822  -5.305   5.485  0.00  0.00    -0.032 S 
ATOM      7  C   UNL     1       3.460  -7.587   8.789  0.00  0.00    +0.062 C 
ATOM      8  N   UNL     1       4.923  -7.716   8.775  0.00  0.00    -0.315 N 
ATOM      9  C   UNL     1       5.703  -6.586   8.519  0.00  0.00    +0.039 A 
ATOM     10  C   UNL     1       5.213  -5.579   7.685  0.00  0.00    +0.007 A 
ATOM     11  C   UNL     1       5.967  -4.449   7.415  0.00  0.00    +0.010 A 
ATOM     12  C   UNL     1       7.224  -4.325   7.983  0.00  0.00    +0.001 A 
ATOM     13  C   UNL     1       7.715  -5.320   8.809  0.00  0.00    +0.002 A 
ATOM     14  C   UNL     1       6.963  -6.450   9.081  0.00  0.00    +0.024 A 
ATOM     15  C   UNL     1       3.014  -6.943  10.103  0.00  0.00    +0.037 C 
ATOM     16  C   UNL     1       2.820  -8.970   8.648  0.00  0.00    +0.037 C 
ENDROOT
BRANCH   1  20
ATOM     17  C   UNL     1       2.830  -1.650   2.321  0.00  0.00    +0.121 A 
ATOM     18  C   UNL     1       3.489  -1.040   3.379  0.00  0.00    +0.048 A 
ATOM     19  C   UNL     1       3.963  -1.798   4.428  0.00  0.00    +0.031 A 
ATOM     20  C   UNL     1       3.780  -3.183   4.426  0.00  0.00    +0.065 A 
ATOM     21  C   UNL     1       3.116  -3.793   3.357  0.00  0.00    +0.031 A 
ATOM     22  C   UNL     1       2.640  -3.025   2.315  0.00  0.00    +0.048 A 
BRANCH  17  23
ATOM     23  O   UNL     1       2.364  -0.898   1.287  0.00  0.00    -0.492 OA
BRANCH  23  24
ATOM     24  C   UNL     1       2.593   0.511   1.356  0.00  0.00    +0.229 C 
BRANCH  24  26
ATOM     25  C   UNL     1       2.248   2.693   0.189  0.00  0.00    +0.007 C 
ATOM     26  C   UNL     1       2.003   1.184   0.116  0.00  0.00    +0.038 C 
ENDBRANCH  24  26
ENDBRANCH  23  24
ENDBRANCH  17  23
ENDBRANCH   1  20
BRANCH   8  27
ATOM     27  C   UNL     1       5.555  -9.014   9.028  0.00  0.00    +0.141 C 
BRANCH  27  28
ATOM     28  C   UNL     1       5.877  -9.680   7.715  0.00  0.00    -0.030 A 
ATOM     29  C   UNL     1       4.999 -10.599   7.173  0.00  0.00    +0.005 A 
ATOM     30  C   UNL     1       5.294 -11.210   5.969  0.00  0.00    +0.000 A 
ATOM     31  C   UNL     1       6.468 -10.902   5.306  0.00  0.00    +0.000 A 
ATOM     32  C   UNL     1       7.345  -9.981   5.848  0.00  0.00    +0.000 A 
ATOM     33  C   UNL     1       7.048  -9.367   7.050  0.00  0.00    +0.005 A 
ENDBRANCH  27  28
ENDBRANCH   8  27
TORSDOF 6
