REMARK  Name = ZINC12279744
REMARK  16 active torsions:
REMARK  status: ('A' for Active; 'I' for Inactive)
REMARK    1  A    between atoms: C_1  and  C_2
REMARK    2  A    between atoms: C_2  and  C_3
REMARK    3  A    between atoms: C_2  and  C_4
REMARK    4  A    between atoms: C_4  and  C_5
REMARK    5  A    between atoms: C_5  and  C_6
REMARK    6  A    between atoms: C_6  and  C_17
REMARK    7  A    between atoms: N_9  and  C_13
REMARK    8  A    between atoms: C_13  and  C_14
REMARK    9  A    between atoms: C_14  and  N_75
REMARK   10  A    between atoms: C_15  and  N_75
REMARK   11  A    between atoms: C_16  and  N_75
REMARK   12  A    between atoms: C_22  and  C_23
REMARK   13  A    between atoms: C_22  and  N_77
REMARK   14  A    between atoms: C_28  and  O_29
REMARK   15  A    between atoms: O_29  and  C_30
REMARK   16  A    between atoms: C_30  and  C_31
REMARK                            x       y       z     vdW  Elec       q    Type
REMARK                         _______ _______ _______ _____ _____    ______ ____
ROOT
ATOM      1  C   UNL     1       0.011   1.072   2.506  0.00  0.00    +0.115 C 
ATOM      2  C   UNL     1       0.062  -0.443   2.515  0.00  0.00    +0.247 C 
ATOM      3  O   UNL     1      -0.879  -1.206   2.548  0.00  0.00    -0.273 OA
ATOM      4  N   UNL     1       1.370  -0.764   2.477  0.00  0.00    -0.226 N 
ATOM      5  C   UNL     1       2.145   0.327   2.446  0.00  0.00    +0.309 C 
ATOM      6  O   UNL     1       3.359   0.292   2.409  0.00  0.00    -0.252 OA
ATOM      7  N   UNL     1       1.430   1.466   2.460  0.00  0.00    -0.285 N 
ATOM      8  H   UNL     1       1.780   2.370   2.443  0.00  0.00    +0.151 HD
ENDROOT
BRANCH   1   9
ATOM      9  C   UNL     1      -0.655   1.596   3.780  0.00  0.00    +0.018 C 
ATOM     10  C   UNL     1      -0.627   3.127   3.780  0.00  0.00    -0.013 C 
ATOM     11  C   UNL     1      -1.238   3.643   5.085  0.00  0.00    -0.078 C 
ATOM     12  C   UNL     1      -0.528   1.654   6.273  0.00  0.00    -0.078 C 
ATOM     13  C   UNL     1       0.105   1.078   5.005  0.00  0.00    -0.013 C 
ATOM     14  N   UNL     1      -0.447   3.129   6.223  0.00  0.00    +0.382 N 
ATOM     15  H   UNL     1       0.535   3.404   6.098  0.00  0.00    -0.081 HD
BRANCH  14  16
ATOM     16  C   UNL     1      -0.949   3.705   7.488  0.00  0.00    -0.039 C 
BRANCH  16  17
ATOM     17  C   UNL     1      -0.653   5.183   7.499  0.00  0.00    -0.022 A 
ATOM     18  C   UNL     1       0.443   5.664   8.189  0.00  0.00    +0.005 A 
ATOM     19  C   UNL     1       0.717   7.019   8.196  0.00  0.00    +0.000 A 
ATOM     20  C   UNL     1      -0.110   7.897   7.520  0.00  0.00    +0.004 A 
ATOM     21  C   UNL     1      -1.209   7.422   6.832  0.00  0.00    +0.046 A 
ATOM     22  C   UNL     1      -1.484   6.062   6.820  0.00  0.00    +0.122 A 
BRANCH  22  23
ATOM     23  O   UNL     1      -2.565   5.593   6.144  0.00  0.00    -0.488 OA
BRANCH  23  24
ATOM     24  C   UNL     1      -3.377   6.555   5.468  0.00  0.00    +0.256 C 
BRANCH  24  25
ATOM     25  C   UNL     1      -4.520   5.855   4.781  0.00  0.00    +0.006 C 
ATOM     26  C   UNL     1      -5.733   6.340   4.868  0.00  0.00    +0.007 C 
ENDBRANCH  24  25
ENDBRANCH  23  24
ENDBRANCH  22  23
ENDBRANCH  16  17
ENDBRANCH  14  16
ENDBRANCH   1   9
BRANCH   1  27
ATOM     27  C   UNL     1      -0.729   1.579   1.267  0.00  0.00    +0.036 C 
BRANCH  27  28
ATOM     28  C   UNL     1      -0.013   1.086   0.008  0.00  0.00    +0.005 C 
BRANCH  28  30
ATOM     29  C   UNL     1      -0.666   3.119  -1.289  0.00  0.00    +0.007 C 
ATOM     30  C   UNL     1      -0.753   1.593  -1.232  0.00  0.00    -0.017 C 
ATOM     31  C   UNL     1      -0.111   0.998  -2.487  0.00  0.00    +0.007 C 
ENDBRANCH  28  30
ENDBRANCH  27  28
ENDBRANCH   1  27
BRANCH   4  32
ATOM     32  C   UNL     1       1.881  -2.137   2.471  0.00  0.00    +0.099 C 
BRANCH  32  33
ATOM     33  C   UNL     1       2.014  -2.625   1.027  0.00  0.00    -0.060 C 
BRANCH  33  36
ATOM     34  C   UNL     1       2.445  -4.588  -0.323  0.00  0.00    -0.097 C 
ATOM     35  C   UNL     1       3.901  -4.055   1.536  0.00  0.00    -0.097 C 
ATOM     36  N   UNL     1       2.510  -4.018   1.039  0.00  0.00    +0.377 N 
ATOM     37  H   UNL     1       1.917  -4.577   1.663  0.00  0.00    -0.083 HD
ENDBRANCH  33  36
ENDBRANCH  32  33
ENDBRANCH   4  32
TORSDOF 12
