REMARK  Name = ZINC39835633
REMARK  13 active torsions:
REMARK  status: ('A' for Active; 'I' for Inactive)
REMARK    1  A    between atoms: C_1  and  C_2
REMARK    2  A    between atoms: C_2  and  C_3
REMARK    3  A    between atoms: C_3  and  C_4
REMARK    4  A    between atoms: C_4  and  C_5
REMARK    5  A    between atoms: C_5  and  C_7
REMARK    6  A    between atoms: C_5  and  C_9
REMARK    7  A    between atoms: C_7  and  C_8
REMARK    8  A    between atoms: C_9  and  N_10
REMARK    9  A    between atoms: C_14  and  C_15
REMARK   10  A    between atoms: C_16  and  O_26
REMARK   11  A    between atoms: O_26  and  C_27
REMARK   12  A    between atoms: C_30  and  C_33
REMARK   13  A    between atoms: C_33  and  C_34
REMARK                            x       y       z     vdW  Elec       q    Type
REMARK                         _______ _______ _______ _____ _____    ______ ____
ROOT
ATOM      1  C   UNL     1       0.828  -5.411  -7.418  0.00  0.00    +0.103 A 
ATOM      2  C   UNL     1      -0.334  -5.652  -6.653  0.00  0.00    +0.235 A 
ATOM      3  N   UNL     1      -1.523  -5.382  -7.167  0.00  0.00    -0.194 NA
ATOM      4  C   UNL     1      -1.657  -4.885  -8.398  0.00  0.00    +0.144 A 
ATOM      5  C   UNL     1      -2.946  -4.618  -8.891  0.00  0.00    +0.047 A 
ATOM      6  C   UNL     1      -3.093  -4.111 -10.148  0.00  0.00    +0.005 A 
ATOM      7  C   UNL     1      -1.958  -3.862 -10.931  0.00  0.00    +0.018 A 
ATOM      8  C   UNL     1      -0.725  -4.125 -10.440  0.00  0.00    +0.096 A 
ATOM      9  N   UNL     1      -0.568  -4.632  -9.184  0.00  0.00    -0.268 N 
ATOM     10  C   UNL     1       0.677  -4.879  -8.722  0.00  0.00    +0.269 A 
ATOM     11  O   UNL     1       1.652  -4.651  -9.416  0.00  0.00    -0.266 OA
ENDROOT
BRANCH   1  16
ATOM     12  N   UNL     1       2.472  -3.689  -3.845  0.00  0.00    -0.255 N 
ATOM     13  C   UNL     1       1.874  -4.098  -4.951  0.00  0.00    +0.258 C 
ATOM     14  O   UNL     1       0.805  -3.626  -5.296  0.00  0.00    -0.269 OA
ATOM     15  C   UNL     1       2.515  -5.105  -5.728  0.00  0.00    +0.077 C 
ATOM     16  C   UNL     1       2.113  -5.689  -6.894  0.00  0.00    +0.039 C 
ATOM     17  S   UNL     1       3.990  -5.394  -4.761  0.00  0.00    -0.061 S 
ATOM     18  C   UNL     1       3.660  -4.209  -3.466  0.00  0.00    +0.121 C 
ATOM     19  S   UNL     1       4.607  -3.830  -2.091  0.00  0.00    -0.027 S 
BRANCH  12  20
ATOM     20  C   UNL     1       1.840  -2.655  -3.023  0.00  0.00    +0.118 C 
BRANCH  20  21
ATOM     21  C   UNL     1       2.308  -1.275  -3.491  0.00  0.00    +0.007 C 
BRANCH  21  22
ATOM     22  C   UNL     1       1.806  -1.023  -4.914  0.00  0.00    +0.002 C 
ATOM     23  C   UNL     1       2.372   0.303  -5.426  0.00  0.00    +0.004 C 
ENDBRANCH  21  22
BRANCH  21  24
ATOM     24  C   UNL     1       1.748  -0.202  -2.555  0.00  0.00    +0.005 C 
BRANCH  24  25
ATOM     25  C   UNL     1       2.354  -0.374  -1.161  0.00  0.00    +0.000 C 
BRANCH  25  27
ATOM     26  C   UNL     1       2.502   0.602   1.134  0.00  0.00    +0.004 C 
ATOM     27  C   UNL     1       1.895   0.774  -0.260  0.00  0.00    -0.003 C 
ENDBRANCH  25  27
ENDBRANCH  24  25
ENDBRANCH  21  24
ENDBRANCH  20  21
ENDBRANCH  12  20
ENDBRANCH   1  16
BRANCH   2  28
ATOM     28  O   UNL     1      -0.233  -6.155  -5.402  0.00  0.00    -0.437 OA
BRANCH  28  29
ATOM     29  C   UNL     1      -1.380  -6.471  -4.746  0.00  0.00    +0.130 A 
ATOM     30  C   UNL     1      -2.080  -7.621  -5.084  0.00  0.00    +0.046 A 
ATOM     31  C   UNL     1      -3.246  -7.939  -4.416  0.00  0.00    +0.007 A 
ATOM     32  C   UNL     1      -3.716  -7.114  -3.411  0.00  0.00    -0.047 A 
ATOM     33  C   UNL     1      -3.021  -5.968  -3.072  0.00  0.00    +0.007 A 
ATOM     34  C   UNL     1      -1.851  -5.648  -3.733  0.00  0.00    +0.046 A 
BRANCH  32  35
ATOM     35  C   UNL     1      -4.989  -7.465  -2.684  0.00  0.00    +0.032 C 
ATOM     36  C   UNL     1      -4.659  -8.332  -1.468  0.00  0.00    +0.009 C 
ENDBRANCH  32  35
ENDBRANCH  28  29
ENDBRANCH   2  28
TORSDOF 10
