REMARK  Name = ZINC38572423
REMARK  8 active torsions:
REMARK  status: ('A' for Active; 'I' for Inactive)
REMARK    1  A    between atoms: C_1  and  O_2
REMARK    2  A    between atoms: O_2  and  C_3
REMARK    3  A    between atoms: C_5  and  C_22
REMARK    4  A    between atoms: C_8  and  O_9
REMARK    5  A    between atoms: O_9  and  C_10
REMARK    6  A    between atoms: C_10  and  C_12
REMARK    7  A    between atoms: C_23  and  C_24
REMARK    8  A    between atoms: C_23  and  C_26
REMARK                            x       y       z     vdW  Elec       q    Type
REMARK                         _______ _______ _______ _____ _____    ______ ____
ROOT
ATOM      1  C   UNL     1      -1.250  -0.861   0.168  0.00  0.00    +0.163 A 
ATOM      2  C   UNL     1      -2.370  -0.053   0.188  0.00  0.00    +0.057 A 
ATOM      3  C   UNL     1      -3.642  -0.624   0.065  0.00  0.00    -0.020 A 
ATOM      4  C   UNL     1      -3.772  -2.010  -0.076  0.00  0.00    +0.012 A 
ATOM      5  C   UNL     1      -2.649  -2.808  -0.095  0.00  0.00    +0.051 A 
ATOM      6  C   UNL     1      -1.387  -2.240   0.020  0.00  0.00    +0.173 A 
ENDROOT
BRANCH   1   8
ATOM      7  C   UNL     1       0.054   1.110   0.434  0.00  0.00    +0.277 C 
ATOM      8  O   UNL     1      -0.013  -0.310   0.286  0.00  0.00    -0.491 OA
ENDBRANCH   1   8
BRANCH   3   9
ATOM      9  C   UNL     1      -4.839   0.231   0.086  0.00  0.00    +0.026 C 
ATOM     10  C   UNL     1      -5.933  -0.123  -0.620  0.00  0.00    +0.072 C 
BRANCH  10  11
ATOM     11  C   UNL     1      -7.209   0.665  -0.477  0.00  0.00    +0.216 C 
ATOM     12  N   UNL     1      -8.305  -0.221  -0.063  0.00  0.00    -0.359 N 
ATOM     13  C   UNL     1      -9.214  -0.179  -0.994  0.00  0.00    +0.060 A 
ATOM     14  C   UNL     1     -10.517  -0.839  -1.148  0.00  0.00    +0.027 A 
ATOM     15  C   UNL     1     -11.260  -0.599  -2.247  0.00  0.00    +0.002 A 
ATOM     16  C   UNL     1     -10.838   0.269  -3.271  0.00  0.00    +0.002 A 
ATOM     17  C   UNL     1      -9.661   0.924  -3.230  0.00  0.00    +0.027 A 
ATOM     18  C   UNL     1      -8.768   0.739  -2.078  0.00  0.00    +0.060 A 
ATOM     19  N   UNL     1      -7.601   1.230  -1.775  0.00  0.00    -0.359 N 
ATOM     20  H   UNL     1      -8.344  -0.742   0.754  0.00  0.00    +0.162 HD
ATOM     21  H   UNL     1      -7.085   1.854  -2.309  0.00  0.00    +0.162 HD
ENDBRANCH  10  11
BRANCH  10  22
ATOM     22  C   UNL     1      -5.880  -1.247  -1.506  0.00  0.00    +0.099 C 
ATOM     23  N   UNL     1      -5.839  -2.139  -2.208  0.00  0.00    -0.191 NA
ENDBRANCH  10  22
ENDBRANCH   3   9
BRANCH   6  24
ATOM     24  O   UNL     1      -0.283  -3.032  -0.005  0.00  0.00    -0.422 OA
BRANCH  24  25
ATOM     25  C   UNL     1       0.226  -3.442   1.168  0.00  0.00    +0.319 C 
ATOM     26  O   UNL     1      -0.349  -3.184   2.199  0.00  0.00    -0.250 OA
BRANCH  25  27
ATOM     27  C   UNL     1       1.513  -4.224   1.198  0.00  0.00    +0.069 C 
ATOM     28  C   UNL     1       2.635  -3.385   0.583  0.00  0.00    +0.021 C 
ATOM     29  C   UNL     1       3.942  -4.179   0.614  0.00  0.00    -0.009 C 
ATOM     30  C   UNL     1       4.297  -4.521   2.062  0.00  0.00    +0.007 C 
ATOM     31  C   UNL     1       3.176  -5.360   2.678  0.00  0.00    -0.009 C 
ATOM     32  C   UNL     1       1.868  -4.565   2.647  0.00  0.00    +0.021 C 
ATOM     33  C   UNL     1       3.006  -6.652   1.877  0.00  0.00    +0.007 C 
ATOM     34  C   UNL     1       2.651  -6.311   0.428  0.00  0.00    -0.009 C 
ATOM     35  C   UNL     1       3.773  -5.472  -0.188  0.00  0.00    +0.007 C 
ATOM     36  C   UNL     1       1.344  -5.517   0.397  0.00  0.00    +0.021 C 
ENDBRANCH  25  27
ENDBRANCH  24  25
ENDBRANCH   6  24
TORSDOF 7
