REMARK  Name = ZINC00646444
REMARK  10 active torsions:
REMARK  status: ('A' for Active; 'I' for Inactive)
REMARK    1  A    between atoms: C_1  and  C_2
REMARK    2  A    between atoms: C_3  and  C_31
REMARK    3  A    between atoms: C_4  and  C_21
REMARK    4  A    between atoms: C_10  and  S_12
REMARK    5  A    between atoms: S_12  and  C_13
REMARK    6  A    between atoms: C_13  and  C_14
REMARK    7  A    between atoms: C_24  and  O_29
REMARK    8  A    between atoms: C_26  and  O_27
REMARK    9  A    between atoms: O_27  and  C_28
REMARK   10  A    between atoms: O_29  and  C_30
REMARK                            x       y       z     vdW  Elec       q    Type
REMARK                         _______ _______ _______ _____ _____    ______ ____
ROOT
ATOM      1  C   UNL     1       0.492   1.307   0.469  0.00  0.00    +0.064 C 
ATOM      2  C   UNL     1       0.265  -0.157   0.192  0.00  0.00    +0.026 C 
ATOM      3  C   UNL     1      -1.016  -0.614   0.050  0.00  0.00    +0.060 C 
ATOM      4  C   UNL     1      -1.198  -2.096  -0.229  0.00  0.00    +0.169 C 
ATOM      5  N   UNL     1       0.032  -2.891  -0.317  0.00  0.00    -0.187 N 
ATOM      6  C   UNL     1       1.244  -2.264  -0.147  0.00  0.00    +0.217 C 
ATOM      7  N   UNL     1       1.311  -0.961   0.088  0.00  0.00    -0.330 N 
ATOM      8  N   UNL     1       2.199  -3.195  -0.273  0.00  0.00    -0.190 NA
ATOM      9  C   UNL     1       1.660  -4.377  -0.513  0.00  0.00    +0.197 C 
ATOM     10  N   UNL     1       0.298  -4.243  -0.551  0.00  0.00    -0.118 NA
ATOM     11  H   UNL     1       2.191  -0.568   0.197  0.00  0.00    +0.168 HD
ENDROOT
BRANCH   4  12
ATOM     12  C   UNL     1      -1.941  -2.241  -1.531  0.00  0.00    +0.021 A 
ATOM     13  C   UNL     1      -2.046  -1.164  -2.390  0.00  0.00    +0.013 A 
ATOM     14  C   UNL     1      -2.727  -1.294  -3.586  0.00  0.00    +0.046 A 
ATOM     15  C   UNL     1      -3.308  -2.508  -3.926  0.00  0.00    +0.124 A 
ATOM     16  C   UNL     1      -3.204  -3.590  -3.066  0.00  0.00    +0.091 A 
ATOM     17  C   UNL     1      -2.515  -3.458  -1.870  0.00  0.00    +0.129 A 
BRANCH  17  18
ATOM     18  O   UNL     1      -2.407  -4.519  -1.027  0.00  0.00    -0.495 OA
ATOM     19  C   UNL     1      -2.931  -5.767  -1.484  0.00  0.00    +0.277 C 
ENDBRANCH  17  18
BRANCH  15  20
ATOM     20  O   UNL     1      -3.978  -2.635  -5.101  0.00  0.00    -0.495 OA
ATOM     21  C   UNL     1      -4.045  -1.479  -5.938  0.00  0.00    +0.277 C 
ENDBRANCH  15  20
ENDBRANCH   4  12
BRANCH   3  22
ATOM     22  C   UNL     1      -2.119   0.252   0.158  0.00  0.00    +0.241 C 
ATOM     23  O   UNL     1      -1.942   1.452   0.273  0.00  0.00    -0.271 OA
ATOM     24  N   UNL     1      -3.371  -0.246   0.133  0.00  0.00    -0.325 N 
ATOM     25  H   UNL     1      -3.515  -1.190  -0.037  0.00  0.00    +0.145 HD
ATOM     26  H   UNL     1      -4.129   0.340   0.285  0.00  0.00    +0.145 HD
ENDBRANCH   3  22
BRANCH   9  27
ATOM     27  S   UNL     1       2.548  -5.880  -0.746  0.00  0.00    -0.082 S 
BRANCH  27  28
ATOM     28  C   UNL     1       4.287  -5.393  -0.577  0.00  0.00    +0.113 C 
BRANCH  28  29
ATOM     29  C   UNL     1       5.168  -6.603  -0.757  0.00  0.00    -0.019 A 
ATOM     30  C   UNL     1       5.513  -7.375   0.336  0.00  0.00    +0.006 A 
ATOM     31  C   UNL     1       6.320  -8.485   0.171  0.00  0.00    +0.000 A 
ATOM     32  C   UNL     1       6.784  -8.823  -1.087  0.00  0.00    +0.001 A 
ATOM     33  C   UNL     1       6.439  -8.051  -2.180  0.00  0.00    +0.020 A 
ATOM     34  C   UNL     1       5.626  -6.943  -2.017  0.00  0.00    +0.045 A 
ATOM     35 CL   UNL     1       5.188  -5.977  -3.391  0.00  0.00    -0.083 Cl
ENDBRANCH  28  29
ENDBRANCH  27  28
ENDBRANCH   9  27
TORSDOF 7
