REMARK  Name = ZINC13981465
REMARK  6 active torsions:
REMARK  status: ('A' for Active; 'I' for Inactive)
REMARK    1  A    between atoms: C_3  and  C_8
REMARK    2  A    between atoms: C_9  and  C_10
REMARK    3  A    between atoms: N_12  and  C_13
REMARK    4  A    between atoms: C_15  and  N_21
REMARK    5  A    between atoms: C_22  and  C_24
REMARK    6  A    between atoms: C_25  and  C_26
REMARK                            x       y       z     vdW  Elec       q    Type
REMARK                         _______ _______ _______ _____ _____    ______ ____
ROOT
ATOM      1  C   UNL     1       6.142   6.347  -0.025  0.00  0.00    +0.093 C 
ATOM      2  C   UNL     1       5.908   7.735  -0.625  0.00  0.00    +0.093 C 
ATOM      3  C   UNL     1       7.224   8.515  -0.634  0.00  0.00    +0.024 C 
ATOM      4  C   UNL     1       7.741   8.659   0.799  0.00  0.00    +0.002 C 
ATOM      5  C   UNL     1       7.975   7.272   1.399  0.00  0.00    +0.002 C 
ATOM      6  C   UNL     1       6.658   6.492   1.408  0.00  0.00    +0.024 C 
ENDROOT
BRANCH   1   9
ATOM      7  C   UNL     1       4.896   4.253  -0.023  0.00  0.00    +0.237 C 
ATOM      8  O   UNL     1       5.957   3.656  -0.037  0.00  0.00    -0.271 OA
ATOM      9  N   UNL     1       4.881   5.600  -0.016  0.00  0.00    -0.307 N 
ATOM     10  H   UNL     1       4.036   6.076  -0.006  0.00  0.00    +0.149 HD
BRANCH   7  12
ATOM     11  C   UNL     1       3.652   2.158  -0.022  0.00  0.00    +0.014 C 
ATOM     12  C   UNL     1       3.637   3.507  -0.015  0.00  0.00    +0.068 C 
BRANCH  11  15
ATOM     13  C   UNL     1      -0.017   1.380   0.010  0.00  0.00    +0.001 A 
ATOM     14  C   UNL     1       1.165   2.090   0.002  0.00  0.00    +0.009 A 
ATOM     15  C   UNL     1       2.386   1.408  -0.013  0.00  0.00    -0.007 A 
ATOM     16  C   UNL     1       2.397   0.008  -0.021  0.00  0.00    +0.048 A 
ATOM     17  C   UNL     1       1.205  -0.687  -0.013  0.00  0.00    +0.020 A 
ATOM     18  C   UNL     1       0.002  -0.004   0.002  0.00  0.00    +0.001 A 
ATOM     19 CL   UNL     1       3.906  -0.850  -0.040  0.00  0.00    -0.083 Cl
ENDBRANCH  11  15
ENDBRANCH   7  12
ENDBRANCH   1   9
BRANCH   2  20
ATOM     20  N   UNL     1       4.919   8.455   0.180  0.00  0.00    -0.307 N 
ATOM     21  C   UNL     1       4.184   9.438  -0.376  0.00  0.00    +0.237 C 
ATOM     22  O   UNL     1       4.341   9.727  -1.548  0.00  0.00    -0.271 OA
ATOM     23  H   UNL     1       4.794   8.225   1.114  0.00  0.00    +0.149 HD
BRANCH  21  24
ATOM     24  C   UNL     1       3.195  10.158   0.428  0.00  0.00    +0.068 C 
ATOM     25  C   UNL     1       2.459  11.141  -0.129  0.00  0.00    +0.014 C 
BRANCH  25  26
ATOM     26  C   UNL     1       1.466  11.865   0.681  0.00  0.00    -0.007 A 
ATOM     27  C   UNL     1       0.696  12.882   0.105  0.00  0.00    +0.048 A 
ATOM     28  C   UNL     1      -0.234  13.556   0.871  0.00  0.00    +0.020 A 
ATOM     29  C   UNL     1      -0.405  13.228   2.204  0.00  0.00    +0.001 A 
ATOM     30  C   UNL     1       0.353  12.223   2.780  0.00  0.00    +0.001 A 
ATOM     31  C   UNL     1       1.282  11.536   2.027  0.00  0.00    +0.009 A 
ATOM     32 CL   UNL     1       0.910  13.296  -1.568  0.00  0.00    -0.083 Cl
ENDBRANCH  25  26
ENDBRANCH  21  24
ENDBRANCH   2  20
TORSDOF 6
