REMARK  Name = ZINC34747330
REMARK  8 active torsions:
REMARK  status: ('A' for Active; 'I' for Inactive)
REMARK    1  A    between atoms: C_1  and  C_2
REMARK    2  A    between atoms: C_5  and  C_9
REMARK    3  A    between atoms: C_6  and  C_8
REMARK    4  A    between atoms: C_9  and  N_10
REMARK    5  A    between atoms: N_29  and  C_30
REMARK    6  A    between atoms: C_30  and  C_31
REMARK    7  A    between atoms: C_31  and  C_32
REMARK    8  A    between atoms: C_32  and  C_33
REMARK                            x       y       z     vdW  Elec       q    Type
REMARK                         _______ _______ _______ _____ _____    ______ ____
ROOT
ATOM      1  N   UNL     1      -2.288  -3.904   0.423  0.00  0.00    +0.384 N 
ATOM      2  C   UNL     1      -3.669  -4.128   0.871  0.00  0.00    -0.059 C 
ATOM      3  C   UNL     1      -3.930  -5.633   0.986  0.00  0.00    +0.089 C 
ATOM      4  N   UNL     1      -3.599  -6.264  -0.301  0.00  0.00    -0.304 N 
ATOM      5  C   UNL     1      -2.292  -5.962  -0.905  0.00  0.00    +0.089 C 
ATOM      6  C   UNL     1      -2.108  -4.441  -0.931  0.00  0.00    -0.059 C 
ATOM      7  C   UNL     1      -4.485  -7.110  -0.921  0.00  0.00    +0.202 A 
ATOM      8  N   UNL     1      -5.399  -6.615  -1.729  0.00  0.00    -0.208 NA
ATOM      9  C   UNL     1      -6.268  -7.410  -2.342  0.00  0.00    +0.117 A 
ATOM     10  C   UNL     1      -6.260  -8.804  -2.164  0.00  0.00    +0.076 A 
ATOM     11  C   UNL     1      -7.280  -9.549  -2.904  0.00  0.00    -0.023 A 
ATOM     12  C   UNL     1      -8.120  -8.833  -3.679  0.00  0.00    -0.004 A 
ATOM     13  S   UNL     1      -7.611  -7.147  -3.472  0.00  0.00    -0.073 S 
ATOM     14  C   UNL     1      -9.238  -9.354  -4.528  0.00  0.00    +0.043 C 
ATOM     15  C   UNL     1      -9.063 -10.872  -4.682  0.00  0.00    +0.005 C 
ATOM     16  C   UNL     1      -8.794 -11.478  -3.301  0.00  0.00    +0.005 C 
ATOM     17  C   UNL     1      -7.404 -11.068  -2.816  0.00  0.00    +0.037 C 
ATOM     18  C   UNL     1      -5.256  -9.313  -1.280  0.00  0.00    +0.264 A 
ATOM     19  O   UNL     1      -5.172 -10.510  -1.065  0.00  0.00    -0.267 OA
ATOM     20  N   UNL     1      -4.403  -8.452  -0.695  0.00  0.00    -0.280 N 
ATOM     21  H   UNL     1      -1.653  -4.369   1.055  0.00  0.00    -0.081 HD
ENDROOT
BRANCH   1  22
ATOM     22  C   UNL     1      -2.004  -2.463   0.418  0.00  0.00    -0.043 C 
BRANCH  22  27
ATOM     23  C   UNL     1      -2.251  -0.436   5.824  0.00  0.00    +0.044 C 
ATOM     24  C   UNL     1      -2.187  -0.965   4.414  0.00  0.00    -0.050 A 
ATOM     25  C   UNL     1      -3.260  -0.790   3.561  0.00  0.00    +0.003 A 
ATOM     26  C   UNL     1      -3.201  -1.274   2.268  0.00  0.00    +0.002 A 
ATOM     27  C   UNL     1      -2.068  -1.934   1.828  0.00  0.00    -0.061 A 
ATOM     28  C   UNL     1      -0.995  -2.108   2.681  0.00  0.00    -0.049 A 
ATOM     29  C   UNL     1      -1.052  -1.619   3.973  0.00  0.00    +0.007 A 
ATOM     30  C   UNL     1       0.240  -2.827   2.201  0.00  0.00    +0.044 C 
ENDBRANCH  22  27
ENDBRANCH   1  22
BRANCH  20  31
ATOM     31  C   UNL     1      -3.369  -8.967   0.206  0.00  0.00    +0.128 C 
BRANCH  31  32
ATOM     32  C   UNL     1      -3.957  -9.145   1.607  0.00  0.00    +0.026 C 
BRANCH  32  33
ATOM     33  C   UNL     1      -2.877  -9.683   2.549  0.00  0.00    +0.037 C 
BRANCH  33  34
ATOM     34  C   UNL     1      -3.456  -9.858   3.929  0.00  0.00    -0.047 A 
ATOM     35  C   UNL     1      -3.409  -8.816   4.836  0.00  0.00    +0.003 A 
ATOM     36  C   UNL     1      -3.940  -8.977   6.102  0.00  0.00    +0.000 A 
ATOM     37  C   UNL     1      -4.518 -10.180   6.461  0.00  0.00    +0.000 A 
ATOM     38  C   UNL     1      -4.566 -11.222   5.554  0.00  0.00    +0.000 A 
ATOM     39  C   UNL     1      -4.039 -11.060   4.286  0.00  0.00    +0.003 A 
ENDBRANCH  33  34
ENDBRANCH  32  33
ENDBRANCH  31  32
ENDBRANCH  20  31
TORSDOF 6
