REMARK  Name = ZINC39468284
REMARK  4 active torsions:
REMARK  status: ('A' for Active; 'I' for Inactive)
REMARK    1  A    between atoms: C_1  and  S_2
REMARK    2  A    between atoms: S_2  and  P_3
REMARK    3  A    between atoms: C_12  and  C_21
REMARK    4  A    between atoms: C_26  and  O_27
REMARK                            x       y       z     vdW  Elec       q    Type
REMARK                         _______ _______ _______ _____ _____    ______ ____
ROOT
ATOM      1  P   UNL     1       1.020  -0.493  -1.792  0.00  0.00    +0.314 P 
ATOM      2  O   UNL     1       0.268   0.011  -2.962  0.00  0.00    -0.262 OA
ATOM      3  N   UNL     1       1.232  -2.126  -1.903  0.00  0.00    -0.283 NA
ATOM      4  N   UNL     1       2.243  -2.696  -1.159  0.00  0.00    +0.398 N 
ATOM      5  C   UNL     1       2.275  -4.118  -1.536  0.00  0.00    -0.046 C 
ATOM      6  C   UNL     1       3.350  -4.865  -0.758  0.00  0.00    +0.007 C 
ATOM      7  C   UNL     1       3.082  -4.786   0.721  0.00  0.00    +0.014 C 
ATOM      8  C   UNL     1       4.081  -4.967   1.582  0.00  0.00    +0.127 C 
ATOM      9  C   UNL     1       5.439  -5.256   1.068  0.00  0.00    +0.017 C 
ATOM     10  C   UNL     1       5.757  -4.914  -0.190  0.00  0.00    -0.012 C 
ATOM     11  C   UNL     1       4.717  -4.238  -1.051  0.00  0.00    +0.016 C 
ATOM     12  C   UNL     1       4.658  -2.752  -0.696  0.00  0.00    -0.003 C 
ATOM     13  C   UNL     1       3.526  -2.059  -1.464  0.00  0.00    -0.020 C 
ATOM     14  C   UNL     1       3.536  -0.583  -1.045  0.00  0.00    +0.157 C 
ATOM     15  O   UNL     1       2.523   0.131  -1.776  0.00  0.00    -0.312 OA
ATOM     16  F   UNL     1       3.858  -4.887   2.912  0.00  0.00    -0.205 F 
ATOM     17  H   UNL     1       0.663  -2.667  -2.473  0.00  0.00    +0.112 HD
ATOM     18  H   UNL     1       2.039  -2.597  -0.176  0.00  0.00    -0.055 HD
ENDROOT
BRANCH   9  19
ATOM     19  C   UNL     1       6.441  -5.919   1.938  0.00  0.00    +0.026 A 
ATOM     20  C   UNL     1       7.482  -5.179   2.495  0.00  0.00    +0.012 A 
ATOM     21  C   UNL     1       8.412  -5.801   3.304  0.00  0.00    +0.001 A 
ATOM     22  C   UNL     1       8.314  -7.156   3.564  0.00  0.00    +0.004 A 
ATOM     23  C   UNL     1       7.286  -7.899   3.015  0.00  0.00    +0.046 A 
ATOM     24  C   UNL     1       6.342  -7.287   2.206  0.00  0.00    +0.125 A 
BRANCH  24  25
ATOM     25  O   UNL     1       5.328  -8.016   1.671  0.00  0.00    -0.506 OA
ATOM     26  H   UNL     1       5.533  -8.402   0.809  0.00  0.00    +0.292 HD
ENDBRANCH  24  25
ENDBRANCH   9  19
BRANCH   1  28
ATOM     27  C   UNL     1      -0.022   1.810   0.012  0.00  0.00    +0.096 C 
ATOM     28  S   UNL     1       0.002  -0.004   0.002  0.00  0.00    -0.059 S 
ENDBRANCH   1  28
TORSDOF 3
