REMARK  Name = ZINC40649278
REMARK  5 active torsions:
REMARK  status: ('A' for Active; 'I' for Inactive)
REMARK    1  A    between atoms: C_6  and  C_7
REMARK    2  A    between atoms: C_7  and  N_8
REMARK    3  A    between atoms: C_10  and  N_23
REMARK    4  A    between atoms: C_11  and  N_15
REMARK    5  A    between atoms: N_15  and  C_16
REMARK                            x       y       z     vdW  Elec       q    Type
REMARK                         _______ _______ _______ _____ _____    ______ ____
ROOT
ATOM      1  N   UNL     1      -1.955  -0.699  -1.348  0.00  0.00    -0.323 N 
ATOM      2  C   UNL     1      -3.003  -1.570  -1.604  0.00  0.00    +0.155 A 
ATOM      3  C   UNL     1      -3.437  -1.788  -2.909  0.00  0.00    +0.205 A 
ATOM      4  C   UNL     1      -4.492  -2.672  -3.112  0.00  0.00    +0.159 A 
ATOM      5  N   UNL     1      -5.045  -3.273  -2.060  0.00  0.00    -0.218 NA
ATOM      6  C   UNL     1      -4.605  -3.040  -0.840  0.00  0.00    +0.225 A 
ATOM      7  N   UNL     1      -3.605  -2.214  -0.607  0.00  0.00    -0.218 NA
ATOM      8  H   UNL     1      -1.522  -0.234  -2.081  0.00  0.00    +0.148 HD
ENDROOT
BRANCH   3   9
ATOM      9  N   UNL     1      -2.794  -1.097  -4.049  0.00  0.00    +0.063 N 
ATOM     10  O   UNL     1      -1.851  -1.605  -4.609  0.00  0.00    -0.126 OA
ATOM     11  O   UNL     1      -3.212  -0.025  -4.420  0.00  0.00    -0.126 OA
ENDBRANCH   3   9
BRANCH   4  12
ATOM     12  N   UNL     1      -4.963  -2.923  -4.393  0.00  0.00    -0.297 N 
ATOM     13  H   UNL     1      -4.504  -2.546  -5.161  0.00  0.00    +0.154 HD
BRANCH  12  14
ATOM     14  C   UNL     1      -6.097  -3.719  -4.578  0.00  0.00    +0.032 A 
ATOM     15  C   UNL     1      -6.176  -4.575  -5.669  0.00  0.00    +0.024 A 
ATOM     16  C   UNL     1      -7.298  -5.361  -5.848  0.00  0.00    +0.016 A 
ATOM     17  C   UNL     1      -8.341  -5.296  -4.943  0.00  0.00    +0.013 A 
ATOM     18  C   UNL     1      -8.266  -4.444  -3.856  0.00  0.00    +0.016 A 
ATOM     19  C   UNL     1      -7.144  -3.660  -3.668  0.00  0.00    +0.024 A 
ATOM     20  I   UNL     1     -10.041  -6.489  -5.220  0.00  0.00    -0.044 I 
ENDBRANCH  12  14
ENDBRANCH   4  12
BRANCH   1  21
ATOM     21  C   UNL     1      -1.502  -0.482   0.028  0.00  0.00    +0.138 C 
BRANCH  21  27
ATOM     22  C   UNL     1      -0.615   1.855   0.147  0.00  0.00    +0.006 A 
ATOM     23  C   UNL     1       0.432   2.757   0.152  0.00  0.00    +0.020 A 
ATOM     24  C   UNL     1       1.735   2.306   0.041  0.00  0.00    +0.041 A 
ATOM     25  C   UNL     1       1.989   0.951  -0.075  0.00  0.00    +0.020 A 
ATOM     26  C   UNL     1       0.941   0.049  -0.079  0.00  0.00    +0.006 A 
ATOM     27  C   UNL     1      -0.361   0.501   0.032  0.00  0.00    -0.030 A 
ATOM     28 CL   UNL     1       3.050   3.438   0.045  0.00  0.00    -0.084 Cl
ENDBRANCH  21  27
ENDBRANCH   1  21
TORSDOF 5
