REMARK  Name = ZINC39024848
REMARK  6 active torsions:
REMARK  status: ('A' for Active; 'I' for Inactive)
REMARK    1  A    between atoms: C_4  and  C_7
REMARK    2  A    between atoms: C_9  and  C_21
REMARK    3  A    between atoms: N_23  and  C_24
REMARK    4  A    between atoms: C_24  and  C_25
REMARK    5  A    between atoms: C_25  and  C_27
REMARK    6  A    between atoms: C_25  and  O_33
REMARK                            x       y       z     vdW  Elec       q    Type
REMARK                         _______ _______ _______ _____ _____    ______ ____
ROOT
ATOM      1  C   UNL     1       3.690  -0.677  -0.037  0.00  0.00    +0.076 C 
ATOM      2  N   UNL     1       4.818  -0.012  -0.138  0.00  0.00    -0.244 NA
ATOM      3  C   UNL     1       6.035  -0.564  -0.019  0.00  0.00    +0.126 C 
ATOM      4  C   UNL     1       6.202  -1.846   0.510  0.00  0.00    +0.039 C 
ATOM      5  C   UNL     1       5.040  -2.578   0.708  0.00  0.00    -0.008 C 
ATOM      6  C   UNL     1       4.715  -3.675   1.460  0.00  0.00    +0.004 A 
ATOM      7  C   UNL     1       5.509  -4.637   2.125  0.00  0.00    +0.010 A 
ATOM      8  C   UNL     1       4.850  -5.593   2.841  0.00  0.00    +0.001 A 
ATOM      9  C   UNL     1       3.460  -5.656   2.940  0.00  0.00    +0.002 A 
ATOM     10  C   UNL     1       2.622  -4.784   2.314  0.00  0.00    +0.026 A 
ATOM     11  C   UNL     1       3.228  -3.765   1.526  0.00  0.00    +0.044 A 
ATOM     12  N   UNL     1       2.675  -2.843   0.777  0.00  0.00    -0.372 N 
ATOM     13  C   UNL     1       3.729  -2.160   0.066  0.00  0.00    +0.160 C 
ATOM     14  H   UNL     1       1.726  -2.652   0.714  0.00  0.00    +0.161 HD
ENDROOT
BRANCH   1  18
ATOM     15  C   UNL     1      -0.017   1.380   0.011  0.00  0.00    +0.000 A 
ATOM     16  C   UNL     1       0.037   0.069  -0.429  0.00  0.00    +0.001 A 
ATOM     17  C   UNL     1       1.238  -0.608  -0.449  0.00  0.00    +0.010 A 
ATOM     18  C   UNL     1       2.406   0.036  -0.021  0.00  0.00    -0.001 A 
ATOM     19  C   UNL     1       2.342   1.362   0.424  0.00  0.00    +0.010 A 
ATOM     20  C   UNL     1       1.133   2.024   0.436  0.00  0.00    +0.001 A 
ENDBRANCH   1  18
BRANCH   3  21
ATOM     21  C   UNL     1       7.224   0.200  -0.458  0.00  0.00    +0.262 C 
ATOM     22  O   UNL     1       8.332  -0.289  -0.356  0.00  0.00    -0.269 OA
ATOM     23  N   UNL     1       7.078   1.437  -0.971  0.00  0.00    -0.307 N 
ATOM     24  H   UNL     1       6.194   1.828  -1.052  0.00  0.00    +0.149 HD
BRANCH  23  25
ATOM     25  C   UNL     1       8.255   2.194  -1.405  0.00  0.00    +0.140 C 
BRANCH  25  26
ATOM     26  C   UNL     1       7.816   3.557  -1.943  0.00  0.00    +0.162 C 
BRANCH  26  27
ATOM     27  C   UNL     1       9.011   4.285  -2.503  0.00  0.00    -0.018 A 
ATOM     28  C   UNL     1       9.884   4.936  -1.651  0.00  0.00    +0.006 A 
ATOM     29  C   UNL     1      10.980   5.604  -2.164  0.00  0.00    +0.000 A 
ATOM     30  C   UNL     1      11.203   5.621  -3.529  0.00  0.00    +0.000 A 
ATOM     31  C   UNL     1      10.330   4.970  -4.380  0.00  0.00    +0.000 A 
ATOM     32  C   UNL     1       9.236   4.298  -3.866  0.00  0.00    +0.006 A 
ENDBRANCH  26  27
BRANCH  26  33
ATOM     33  O   UNL     1       7.243   4.325  -0.883  0.00  0.00    -0.386 OA
ATOM     34  H   UNL     1       7.847   4.490  -0.147  0.00  0.00    +0.210 HD
ENDBRANCH  26  33
ENDBRANCH  25  26
ENDBRANCH  23  25
ENDBRANCH   3  21
TORSDOF 6
