REMARK  Name = ZINC12951039
REMARK  6 active torsions:
REMARK  status: ('A' for Active; 'I' for Inactive)
REMARK    1  A    between atoms: C_1  and  C_2
REMARK    2  A    between atoms: C_2  and  C_3
REMARK    3  A    between atoms: C_3  and  C_22
REMARK    4  A    between atoms: N_6  and  C_10
REMARK    5  A    between atoms: C_10  and  C_11
REMARK    6  A    between atoms: C_14  and  C_16
REMARK                            x       y       z     vdW  Elec       q    Type
REMARK                         _______ _______ _______ _____ _____    ______ ____
ROOT
ATOM      1  C   UNL     1      -0.019   1.526   0.010  0.00  0.00    +0.138 C 
ATOM      2  C   UNL     1       1.393   2.078  -0.000  0.00  0.00    +0.251 C 
ATOM      3  O   UNL     1       2.251   1.911   0.840  0.00  0.00    -0.272 OA
ATOM      4  N   UNL     1       1.495   2.794  -1.137  0.00  0.00    -0.215 N 
ATOM      5  C   UNL     1       0.357   2.771  -1.839  0.00  0.00    +0.310 C 
ATOM      6  O   UNL     1       0.205   3.344  -2.901  0.00  0.00    -0.252 OA
ATOM      7  N   UNL     1      -0.602   2.043  -1.239  0.00  0.00    -0.281 N 
ATOM      8  H   UNL     1      -1.502   1.889  -1.566  0.00  0.00    +0.152 HD
ENDROOT
BRANCH   1   9
ATOM      9  C   UNL     1      -0.779   2.038   1.206  0.00  0.00    -0.015 A 
ATOM     10  C   UNL     1      -0.808   1.299   2.375  0.00  0.00    +0.007 A 
ATOM     11  C   UNL     1      -1.501   1.771   3.474  0.00  0.00    +0.020 A 
ATOM     12  C   UNL     1      -2.175   2.977   3.401  0.00  0.00    +0.041 A 
ATOM     13  C   UNL     1      -2.151   3.712   2.229  0.00  0.00    +0.020 A 
ATOM     14  C   UNL     1      -1.453   3.242   1.133  0.00  0.00    +0.007 A 
ATOM     15 CL   UNL     1      -3.053   3.566   4.778  0.00  0.00    -0.084 Cl
ENDBRANCH   1   9
BRANCH   1  17
ATOM     16  C   UNL     1       0.734  -0.497  -1.248  0.00  0.00    +0.007 C 
ATOM     17  C   UNL     1       0.002  -0.004   0.002  0.00  0.00    +0.037 C 
ENDBRANCH   1  17
BRANCH   4  18
ATOM     18  C   UNL     1       2.704   3.509  -1.554  0.00  0.00    +0.214 C 
BRANCH  18  19
ATOM     19  C   UNL     1       3.567   2.595  -2.386  0.00  0.00    +0.214 A 
ATOM     20  N   UNL     1       3.499   2.462  -3.681  0.00  0.00    -0.220 NA
ATOM     21  C   UNL     1       4.417   1.567  -4.074  0.00  0.00    +0.161 A 
ATOM     22  C   UNL     1       5.066   1.131  -2.964  0.00  0.00    +0.155 A 
ATOM     23  O   UNL     1       4.523   1.784  -1.913  0.00  0.00    -0.438 OA
BRANCH  22  24
ATOM     24  C   UNL     1       6.157   0.135  -2.915  0.00  0.00    +0.019 A 
ATOM     25  C   UNL     1       6.613  -0.463  -4.090  0.00  0.00    +0.011 A 
ATOM     26  C   UNL     1       7.634  -1.389  -4.038  0.00  0.00    +0.001 A 
ATOM     27  C   UNL     1       8.200  -1.731  -2.823  0.00  0.00    +0.000 A 
ATOM     28  C   UNL     1       7.749  -1.146  -1.653  0.00  0.00    +0.001 A 
ATOM     29  C   UNL     1       6.731  -0.215  -1.692  0.00  0.00    +0.011 A 
ENDBRANCH  22  24
ENDBRANCH  18  19
ENDBRANCH   4  18
TORSDOF 5
