REMARK  Name = ZINC38789868
REMARK  7 active torsions:
REMARK  status: ('A' for Active; 'I' for Inactive)
REMARK    1  A    between atoms: C_1  and  C_2
REMARK    2  A    between atoms: C_2  and  C_3
REMARK    3  A    between atoms: C_2  and  C_4
REMARK    4  A    between atoms: C_11  and  C_16
REMARK    5  A    between atoms: C_16  and  N_17
REMARK    6  A    between atoms: N_17  and  C_18
REMARK    7  A    between atoms: C_21  and  N_24
REMARK                            x       y       z     vdW  Elec       q    Type
REMARK                         _______ _______ _______ _____ _____    ______ ____
ROOT
ATOM      1  N   UNL     1      -7.159  -3.276  -3.231  0.00  0.00    -0.343 N 
ATOM      2  H   UNL     1      -7.424  -3.905  -2.542  0.00  0.00    +0.146 HD
ENDROOT
BRANCH   1   3
ATOM      3  C   UNL     1      -8.022  -2.999  -4.297  0.00  0.00    +0.027 A 
ATOM      4  C   UNL     1      -7.640  -2.102  -5.286  0.00  0.00    +0.025 A 
ATOM      5  C   UNL     1      -8.492  -1.829  -6.338  0.00  0.00    +0.025 A 
ATOM      6  C   UNL     1      -9.731  -2.452  -6.407  0.00  0.00    +0.030 A 
ATOM      7  C   UNL     1     -10.113  -3.349  -5.419  0.00  0.00    +0.025 A 
ATOM      8  C   UNL     1      -9.259  -3.626  -4.370  0.00  0.00    +0.025 A 
BRANCH   6   9
ATOM      9  N   UNL     1     -10.595  -2.175  -7.473  0.00  0.00    -0.328 N 
ATOM     10  C   UNL     1     -11.834  -2.941  -7.591  0.00  0.00    +0.114 C 
ATOM     11  C   UNL     1     -11.809  -3.761  -8.885  0.00  0.00    +0.114 C 
ATOM     12  C   UNL     1     -12.176  -2.855 -10.039  0.00  0.00    +0.215 C 
ATOM     13  O   UNL     1     -13.251  -2.982 -10.586  0.00  0.00    -0.276 OA
ATOM     14  N   UNL     1     -11.325  -1.914 -10.458  0.00  0.00    -0.314 N 
ATOM     15  C   UNL     1     -10.015  -1.748  -9.813  0.00  0.00    +0.123 C 
ATOM     16  C   UNL     1     -10.226  -1.127  -8.422  0.00  0.00    +0.124 C 
ATOM     17  H   UNL     1     -11.573  -1.336 -11.196  0.00  0.00    +0.149 HD
ENDBRANCH   6   9
ENDBRANCH   1   3
BRANCH   1  18
ATOM     18  C   UNL     1      -5.854  -2.614  -3.154  0.00  0.00    +0.118 C 
BRANCH  18  26
ATOM     19  C   UNL     1      -1.356  -0.576  -0.046  0.00  0.00    -0.044 A 
ATOM     20  C   UNL     1      -2.189  -0.215   1.014  0.00  0.00    +0.006 A 
ATOM     21  C   UNL     1      -3.481  -0.626   1.103  0.00  0.00    +0.024 A 
ATOM     22  C   UNL     1      -4.039  -1.448   0.107  0.00  0.00    +0.040 A 
ATOM     23  N   UNL     1      -5.308  -1.845   0.204  0.00  0.00    -0.284 N 
ATOM     24  C   UNL     1      -5.894  -2.617  -0.695  0.00  0.00    +0.226 C 
ATOM     25  O   UNL     1      -7.056  -2.947  -0.553  0.00  0.00    -0.275 OA
ATOM     26  C   UNL     1      -5.114  -3.089  -1.902  0.00  0.00    +0.115 C 
ATOM     27  C   UNL     1      -3.670  -2.640  -2.018  0.00  0.00    -0.003 C 
ATOM     28  C   UNL     1      -3.182  -1.844  -1.024  0.00  0.00    -0.007 A 
ATOM     29  C   UNL     1      -1.801  -1.362  -1.060  0.00  0.00    +0.013 A 
ATOM     30  H   UNL     1      -5.826  -1.553   0.971  0.00  0.00    +0.155 HD
BRANCH  19  32
ATOM     31  C   UNL     1       0.069   1.454  -0.080  0.00  0.00    +0.012 C 
ATOM     32  C   UNL     1       0.066  -0.076  -0.069  0.00  0.00    +0.013 C 
ATOM     33  C   UNL     1       0.803  -0.579   1.174  0.00  0.00    +0.012 C 
ENDBRANCH  19  32
ENDBRANCH  18  26
ENDBRANCH   1  18
TORSDOF 5
