REMARK  Name = ZINC22750603
REMARK  9 active torsions:
REMARK  status: ('A' for Active; 'I' for Inactive)
REMARK    1  A    between atoms: C_1  and  C_2
REMARK    2  A    between atoms: C_2  and  C_3
REMARK    3  A    between atoms: C_2  and  C_4
REMARK    4  A    between atoms: C_6  and  C_9
REMARK    5  A    between atoms: C_9  and  O_10
REMARK    6  A    between atoms: O_10  and  C_11
REMARK    7  A    between atoms: C_11  and  C_13
REMARK    8  A    between atoms: C_17  and  N_18
REMARK    9  A    between atoms: C_19  and  C_21
REMARK                            x       y       z     vdW  Elec       q    Type
REMARK                         _______ _______ _______ _____ _____    ______ ____
ROOT
ATOM      1  C   UNL     1      -8.078   1.801  -1.561  0.00  0.00    +0.091 A 
ATOM      2  C   UNL     1      -8.634   0.645  -2.265  0.00  0.00    -0.021 A 
ATOM      3  C   UNL     1      -9.121   0.904  -3.492  0.00  0.00    -0.004 A 
ATOM      4  S   UNL     1      -8.841   2.642  -3.732  0.00  0.00    -0.077 S 
ATOM      5  C   UNL     1      -8.095   3.021  -2.217  0.00  0.00    +0.086 A 
ATOM      6  C   UNL     1      -9.684  -0.328  -4.147  0.00  0.00    +0.043 C 
ATOM      7  C   UNL     1      -9.883  -1.329  -2.988  0.00  0.00    +0.010 C 
ATOM      8  C   UNL     1      -8.835  -0.842  -1.969  0.00  0.00    +0.037 C 
ENDROOT
BRANCH   5   9
ATOM      9  N   UNL     1      -7.628   4.246  -1.770  0.00  0.00    -0.279 N 
ATOM     10  C   UNL     1      -7.731   5.335  -2.557  0.00  0.00    +0.221 C 
ATOM     11  O   UNL     1      -8.233   5.243  -3.657  0.00  0.00    -0.275 OA
ATOM     12  H   UNL     1      -7.173   4.330  -0.772  0.00  0.00    +0.155 HD
BRANCH  10  13
ATOM     13  C   UNL     1      -7.223   6.668  -2.070  0.00  0.00    +0.075 C 
ATOM     14  C   UNL     1      -7.968   7.063  -0.794  0.00  0.00    +0.013 C 
ATOM     15  C   UNL     1      -7.452   8.416  -0.300  0.00  0.00    +0.001 C 
ATOM     16  C   UNL     1      -7.689   9.476  -1.377  0.00  0.00    +0.000 C 
ATOM     17  C   UNL     1      -6.943   9.081  -2.654  0.00  0.00    +0.001 C 
ATOM     18  C   UNL     1      -7.459   7.728  -3.148  0.00  0.00    +0.013 C 
ENDBRANCH  10  13
ENDBRANCH   5   9
BRANCH   1  19
ATOM     19  C   UNL     1      -7.519   1.671  -0.214  0.00  0.00    +0.342 C 
ATOM     20  O   UNL     1      -8.233   1.826   0.759  0.00  0.00    -0.245 OA
BRANCH  19  21
ATOM     21  O   UNL     1      -6.212   1.380  -0.051  0.00  0.00    -0.451 OA
BRANCH  21  22
ATOM     22  C   UNL     1      -5.726   1.267   1.313  0.00  0.00    +0.331 C 
BRANCH  22  25
ATOM     23  C   UNL     1      -2.143   1.058   1.278  0.00  0.00    +0.174 A 
ATOM     24  N   UNL     1      -3.265   1.799   1.292  0.00  0.00    -0.193 NA
ATOM     25  C   UNL     1      -4.255   0.940   1.297  0.00  0.00    +0.265 A 
ATOM     26  O   UNL     1      -3.711  -0.280   1.284  0.00  0.00    -0.334 OA
ATOM     27  N   UNL     1      -2.502  -0.191   1.268  0.00  0.00    -0.061 NA
BRANCH  23  29
ATOM     28  C   UNL     1      -0.013   1.086   0.008  0.00  0.00    +0.015 C 
ATOM     29  C   UNL     1      -0.729   1.579   1.267  0.00  0.00    +0.054 C 
ATOM     30  C   UNL     1       0.011   1.072   2.506  0.00  0.00    +0.015 C 
ENDBRANCH  23  29
ENDBRANCH  22  25
ENDBRANCH  21  22
ENDBRANCH  19  21
ENDBRANCH   1  19
TORSDOF 7
