REMARK  Name = ZINC59019481
REMARK  9 active torsions:
REMARK  status: ('A' for Active; 'I' for Inactive)
REMARK    1  A    between atoms: C_1  and  C_2
REMARK    2  A    between atoms: C_5  and  C_8
REMARK    3  A    between atoms: N_9  and  N_10
REMARK    4  A    between atoms: C_13  and  S_16
REMARK    5  A    between atoms: S_16  and  C_17
REMARK    6  A    between atoms: C_17  and  C_18
REMARK    7  A    between atoms: N_20  and  C_21
REMARK    8  A    between atoms: C_26  and  O_27
REMARK    9  A    between atoms: O_27  and  C_28
REMARK                            x       y       z     vdW  Elec       q    Type
REMARK                         _______ _______ _______ _____ _____    ______ ____
ROOT
ATOM      1  S   UNL     1       0.716  -7.408   6.032  0.00  0.00    -0.075 S 
ENDROOT
BRANCH   1   5
ATOM      2  N   UNL     1       0.143  -6.582   0.989  0.00  0.00    -0.205 N 
ATOM      3  C   UNL     1       0.093  -7.224   2.213  0.00  0.00    +0.232 A 
ATOM      4  N   UNL     1       0.514  -6.736   3.361  0.00  0.00    -0.186 NA
ATOM      5  C   UNL     1       0.308  -7.630   4.333  0.00  0.00    +0.211 A 
ATOM      6  N   UNL     1      -0.247  -8.701   3.816  0.00  0.00    -0.144 NA
ATOM      7  N   UNL     1      -0.403  -8.459   2.442  0.00  0.00    -0.245 N 
ATOM      8  H   UNL     1      -0.198  -7.024   0.196  0.00  0.00    +0.177 HD
ATOM      9  H   UNL     1      -0.788  -9.061   1.786  0.00  0.00    +0.192 HD
BRANCH   2  11
ATOM     10  C   UNL     1       0.734  -4.692  -0.254  0.00  0.00    +0.138 C 
ATOM     11  N   UNL     1       0.686  -5.294   0.895  0.00  0.00    -0.188 NA
BRANCH  10  16
ATOM     12  C   UNL     1       2.964   0.596  -0.639  0.00  0.00    +0.044 C 
ATOM     13  C   UNL     1       2.379  -0.790  -0.538  0.00  0.00    -0.050 A 
ATOM     14  C   UNL     1       1.895  -1.417  -1.672  0.00  0.00    +0.004 A 
ATOM     15  C   UNL     1       1.359  -2.685  -1.587  0.00  0.00    +0.010 A 
ATOM     16  C   UNL     1       1.306  -3.336  -0.352  0.00  0.00    -0.005 A 
ATOM     17  C   UNL     1       1.797  -2.697   0.788  0.00  0.00    +0.010 A 
ATOM     18  C   UNL     1       2.335  -1.431   0.688  0.00  0.00    +0.004 A 
ENDBRANCH  10  16
ENDBRANCH   2  11
ENDBRANCH   1   5
BRANCH   1  19
ATOM     19  C   UNL     1       0.194  -8.959   6.816  0.00  0.00    +0.173 C 
BRANCH  19  20
ATOM     20  C   UNL     1       0.491  -8.900   8.292  0.00  0.00    +0.228 C 
ATOM     21  O   UNL     1       1.004  -7.910   8.769  0.00  0.00    -0.275 OA
ATOM     22  N   UNL     1       0.186  -9.948   9.083  0.00  0.00    -0.282 N 
ATOM     23  H   UNL     1      -0.245 -10.731   8.706  0.00  0.00    +0.155 HD
BRANCH  22  24
ATOM     24  C   UNL     1       0.491  -9.907  10.450  0.00  0.00    +0.076 A 
ATOM     25  C   UNL     1       0.673  -8.687  11.085  0.00  0.00    +0.027 A 
ATOM     26  C   UNL     1       0.974  -8.649  12.433  0.00  0.00    +0.002 A 
ATOM     27  C   UNL     1       1.095  -9.824  13.152  0.00  0.00    +0.004 A 
ATOM     28  C   UNL     1       0.916 -11.044  12.526  0.00  0.00    +0.048 A 
ATOM     29  C   UNL     1       0.608 -11.091  11.175  0.00  0.00    +0.150 A 
BRANCH  29  30
ATOM     30  O   UNL     1       0.425 -12.289  10.559  0.00  0.00    -0.454 OA
BRANCH  30  31
ATOM     31  C   UNL     1       0.448 -13.410  11.326  0.00  0.00    +0.129 A 
ATOM     32  C   UNL     1      -0.633 -13.718  12.140  0.00  0.00    +0.046 A 
ATOM     33  C   UNL     1      -0.607 -14.859  12.918  0.00  0.00    +0.004 A 
ATOM     34  C   UNL     1       0.495 -15.694  12.887  0.00  0.00    +0.000 A 
ATOM     35  C   UNL     1       1.573 -15.390  12.076  0.00  0.00    +0.004 A 
ATOM     36  C   UNL     1       1.550 -14.253  11.292  0.00  0.00    +0.046 A 
ENDBRANCH  30  31
ENDBRANCH  29  30
ENDBRANCH  22  24
ENDBRANCH  19  20
ENDBRANCH   1  19
TORSDOF 8
