REMARK  Name = ZINC15663394
REMARK  7 active torsions:
REMARK  status: ('A' for Active; 'I' for Inactive)
REMARK    1  A    between atoms: C_9  and  C_12
REMARK    2  A    between atoms: N_14  and  N_15
REMARK    3  A    between atoms: C_16  and  C_18
REMARK    4  A    between atoms: C_18  and  C_19
REMARK    5  A    between atoms: C_19  and  S_20
REMARK    6  A    between atoms: S_20  and  C_21
REMARK    7  A    between atoms: C_21  and  C_22
REMARK                            x       y       z     vdW  Elec       q    Type
REMARK                         _______ _______ _______ _____ _____    ______ ____
ROOT
ATOM      1  N   UNL     1      -3.326   4.696 -12.142  0.00  0.00    -0.234 N 
ATOM      2  C   UNL     1      -2.362   4.188 -11.349  0.00  0.00    +0.230 C 
ATOM      3  O   UNL     1      -1.285   3.887 -11.820  0.00  0.00    -0.274 OA
ATOM      4  H   UNL     1      -4.187   4.937 -11.765  0.00  0.00    +0.173 HD
ENDROOT
BRANCH   1   7
ATOM      5  C   UNL     1      -4.048   5.386 -14.303  0.00  0.00    +0.273 C 
ATOM      6  O   UNL     1      -5.125   5.687 -13.832  0.00  0.00    -0.270 OA
ATOM      7  N   UNL     1      -3.084   4.878 -13.510  0.00  0.00    -0.231 N 
ATOM      8  H   UNL     1      -2.223   4.638 -13.886  0.00  0.00    +0.173 HD
BRANCH   5  17
ATOM      9  C   UNL     1      -5.107   6.195 -20.509  0.00  0.00    +0.004 A 
ATOM     10  C   UNL     1      -5.874   7.086 -19.782  0.00  0.00    +0.004 A 
ATOM     11  C   UNL     1      -5.806   7.094 -18.401  0.00  0.00    +0.049 A 
ATOM     12  C   UNL     1      -4.968   6.207 -17.742  0.00  0.00    +0.163 A 
ATOM     13  C   UNL     1      -4.195   5.313 -18.473  0.00  0.00    +0.162 A 
ATOM     14  C   UNL     1      -4.269   5.309 -19.858  0.00  0.00    +0.049 A 
ATOM     15  O   UNL     1      -3.361   4.440 -17.846  0.00  0.00    -0.484 OA
ATOM     16  C   UNL     1      -3.590   4.218 -16.450  0.00  0.00    +0.283 C 
ATOM     17  C   UNL     1      -3.788   5.582 -15.774  0.00  0.00    +0.297 C 
ATOM     18  O   UNL     1      -4.914   6.225 -16.382  0.00  0.00    -0.472 OA
ENDBRANCH   5  17
ENDBRANCH   1   7
BRANCH   2  19
ATOM     19  C   UNL     1      -2.622   3.993  -9.877  0.00  0.00    +0.108 C 
BRANCH  19  20
ATOM     20  C   UNL     1      -1.375   3.406  -9.213  0.00  0.00    +0.079 C 
BRANCH  20  21
ATOM     21  S   UNL     1      -1.688   3.171  -7.441  0.00  0.00    -0.153 S 
BRANCH  21  22
ATOM     22  C   UNL     1      -0.134   2.479  -6.809  0.00  0.00    +0.143 C 
BRANCH  22  23
ATOM     23  C   UNL     1      -0.260   2.233  -5.328  0.00  0.00    +0.121 A 
ATOM     24  N   UNL     1       0.794   1.713  -4.647  0.00  0.00    -0.310 N 
ATOM     25  H   UNL     1       1.613   1.508  -5.124  0.00  0.00    +0.170 HD
ATOM     26  C   UNL     1       0.724   1.477  -3.323  0.00  0.00    +0.260 A 
ATOM     27  O   UNL     1       1.678   1.010  -2.725  0.00  0.00    -0.267 OA
ATOM     28  C   UNL     1      -0.492   1.786  -2.631  0.00  0.00    +0.075 A 
ATOM     29  C   UNL     1      -0.791   1.611  -1.202  0.00  0.00    -0.023 A 
ATOM     30  C   UNL     1      -2.015   1.979  -0.788  0.00  0.00    -0.004 A 
ATOM     31  S   UNL     1      -2.837   2.567  -2.252  0.00  0.00    -0.073 S 
ATOM     32  C   UNL     1      -1.523   2.317  -3.416  0.00  0.00    +0.116 A 
ATOM     33  N   UNL     1      -1.381   2.523  -4.723  0.00  0.00    -0.226 NA
ATOM     34  C   UNL     1      -2.206   1.760   0.689  0.00  0.00    +0.043 C 
ATOM     35  C   UNL     1      -0.772   1.602   1.246  0.00  0.00    +0.010 C 
ATOM     36  C   UNL     1      -0.013   1.086   0.008  0.00  0.00    +0.037 C 
ENDBRANCH  22  23
ENDBRANCH  21  22
ENDBRANCH  20  21
ENDBRANCH  19  20
ENDBRANCH   2  19
TORSDOF 7
