REMARK  Name = ZINC36303587
REMARK  13 active torsions:
REMARK  status: ('A' for Active; 'I' for Inactive)
REMARK    1  A    between atoms: C_1  and  C_2
REMARK    2  A    between atoms: C_3  and  C_21
REMARK    3  A    between atoms: C_4  and  O_13
REMARK    4  A    between atoms: N_5  and  C_7
REMARK    5  A    between atoms: O_13  and  C_14
REMARK    6  A    between atoms: C_21  and  N_22
REMARK    7  A    between atoms: N_22  and  C_23
REMARK    8  A    between atoms: N_22  and  C_27
REMARK    9  A    between atoms: C_23  and  C_24
REMARK   10  A    between atoms: C_27  and  C_28
REMARK   11  A    between atoms: C_28  and  C_30
REMARK   12  A    between atoms: C_28  and  O_37
REMARK   13  A    between atoms: C_30  and  C_31
REMARK                            x       y       z     vdW  Elec       q    Type
REMARK                         _______ _______ _______ _____ _____    ______ ____
ROOT
ATOM      1  C   UNL     1       1.184   2.191  -0.471  0.00  0.00    +0.068 C 
ATOM      2  C   UNL     1       1.227   0.709  -0.200  0.00  0.00    +0.065 A 
ATOM      3  C   UNL     1       0.950  -0.300  -1.127  0.00  0.00    +0.021 A 
ATOM      4  C   UNL     1       1.098  -1.496  -0.498  0.00  0.00    +0.225 A 
ATOM      5  N   UNL     1       1.459  -1.241   0.788  0.00  0.00    -0.200 N 
ATOM      6  N   UNL     1       1.536   0.149   0.942  0.00  0.00    -0.168 NA
ENDROOT
BRANCH   5   7
ATOM      7  C   UNL     1       1.712  -2.197   1.780  0.00  0.00    +0.069 A 
ATOM      8  C   UNL     1       0.889  -3.308   1.902  0.00  0.00    +0.028 A 
ATOM      9  C   UNL     1       1.142  -4.250   2.881  0.00  0.00    +0.002 A 
ATOM     10  C   UNL     1       2.214  -4.086   3.739  0.00  0.00    +0.000 A 
ATOM     11  C   UNL     1       3.035  -2.980   3.620  0.00  0.00    +0.002 A 
ATOM     12  C   UNL     1       2.791  -2.038   2.640  0.00  0.00    +0.028 A 
ENDBRANCH   5   7
BRANCH   4  13
ATOM     13  O   UNL     1       0.918  -2.722  -1.053  0.00  0.00    -0.436 OA
BRANCH  13  14
ATOM     14  C   UNL     1      -0.340  -3.234  -1.075  0.00  0.00    +0.149 A 
ATOM     15  C   UNL     1      -1.410  -2.469  -0.634  0.00  0.00    +0.048 A 
ATOM     16  C   UNL     1      -2.688  -2.991  -0.657  0.00  0.00    +0.004 A 
ATOM     17  C   UNL     1      -2.903  -4.277  -1.119  0.00  0.00    +0.002 A 
ATOM     18  C   UNL     1      -1.840  -5.043  -1.559  0.00  0.00    +0.024 A 
ATOM     19  C   UNL     1      -0.559  -4.523  -1.544  0.00  0.00    +0.083 A 
ATOM     20 CL   UNL     1       0.775  -5.482  -2.103  0.00  0.00    -0.080 Cl
ENDBRANCH  13  14
ENDBRANCH   4  13
BRANCH   3  21
ATOM     21  C   UNL     1       0.556  -0.097  -2.567  0.00  0.00    -0.036 C 
BRANCH  21  22
ATOM     22  N   UNL     1       1.762  -0.059  -3.404  0.00  0.00    +0.384 N 
ATOM     23  H   UNL     1       2.391   0.648  -3.056  0.00  0.00    -0.081 HD
BRANCH  22  24
ATOM     24  C   UNL     1       2.427  -1.369  -3.364  0.00  0.00    -0.075 C 
BRANCH  24  25
ATOM     25  C   UNL     1       3.750  -1.292  -4.128  0.00  0.00    -0.028 C 
ATOM     26  C   UNL     1       3.885  -2.140  -5.395  0.00  0.00    +0.002 C 
ATOM     27  C   UNL     1       4.641  -2.537  -4.125  0.00  0.00    +0.002 C 
ENDBRANCH  24  25
ENDBRANCH  22  24
BRANCH  22  28
ATOM     28  C   UNL     1       1.388   0.257  -4.789  0.00  0.00    -0.046 C 
BRANCH  28  29
ATOM     29  C   UNL     1       0.833   1.681  -4.855  0.00  0.00    +0.102 C 
BRANCH  29  30
ATOM     30  O   UNL     1       1.838   2.604  -4.430  0.00  0.00    -0.393 OA
ATOM     31  H   UNL     1       2.611   2.639  -5.011  0.00  0.00    +0.210 HD
ENDBRANCH  29  30
BRANCH  29  32
ATOM     32  C   UNL     1       0.420   2.002  -6.293  0.00  0.00    +0.064 C 
BRANCH  32  33
ATOM     33  C   UNL     1      -0.238   3.357  -6.336  0.00  0.00    -0.045 A 
ATOM     34  C   UNL     1      -1.605   3.467  -6.158  0.00  0.00    +0.004 A 
ATOM     35  C   UNL     1      -2.209   4.710  -6.198  0.00  0.00    +0.000 A 
ATOM     36  C   UNL     1      -1.446   5.843  -6.414  0.00  0.00    +0.000 A 
ATOM     37  C   UNL     1      -0.079   5.733  -6.590  0.00  0.00    +0.000 A 
ATOM     38  C   UNL     1       0.525   4.490  -6.547  0.00  0.00    +0.004 A 
ENDBRANCH  32  33
ENDBRANCH  29  32
ENDBRANCH  28  29
ENDBRANCH  22  28
ENDBRANCH  21  22
ENDBRANCH   3  21
TORSDOF 12
