REMARK  Name = ZINC39411724
REMARK  6 active torsions:
REMARK  status: ('A' for Active; 'I' for Inactive)
REMARK    1  A    between atoms: C_1  and  C_2
REMARK    2  A    between atoms: C_2  and  C_3
REMARK    3  A    between atoms: C_6  and  S_9
REMARK    4  A    between atoms: S_9  and  N_12
REMARK    5  A    between atoms: N_12  and  N_13
REMARK    6  A    between atoms: C_14  and  C_15
REMARK                            x       y       z     vdW  Elec       q    Type
REMARK                         _______ _______ _______ _____ _____    ______ ____
ROOT
ATOM      1  N   UNL     1       3.414  -0.389   5.409  0.00  0.00    -0.137 N 
ATOM      2  H   UNL     1       4.346  -0.330   5.672  0.00  0.00    +0.197 HD
ENDROOT
BRANCH   1   3
ATOM      3  S   UNL     1       2.962  -1.399   4.178  0.00  0.00    +0.086 S 
ATOM      4  O   UNL     1       1.934  -2.234   4.694  0.00  0.00    -0.149 OA
ATOM      5  O   UNL     1       4.161  -1.922   3.621  0.00  0.00    -0.149 OA
BRANCH   3   9
ATOM      6  C   UNL     1       1.058   1.164   0.969  0.00  0.00    -0.048 A 
ATOM      7  C   UNL     1       2.419   0.923   0.945  0.00  0.00    +0.005 A 
ATOM      8  C   UNL     1       3.001   0.141   1.924  0.00  0.00    +0.029 A 
ATOM      9  C   UNL     1       2.221  -0.401   2.929  0.00  0.00    +0.110 A 
ATOM     10  C   UNL     1       0.860  -0.160   2.955  0.00  0.00    +0.029 A 
ATOM     11  C   UNL     1       0.280   0.627   1.977  0.00  0.00    +0.005 A 
BRANCH   6  13
ATOM     12  C   UNL     1       0.439   3.482   0.343  0.00  0.00    +0.009 C 
ATOM     13  C   UNL     1       0.424   2.017  -0.099  0.00  0.00    +0.032 C 
ENDBRANCH   6  13
ENDBRANCH   3   9
ENDBRANCH   1   3
BRANCH   1  14
ATOM     14  N   UNL     1       2.526   0.321   6.020  0.00  0.00    -0.174 NA
ATOM     15  C   UNL     1       2.890   1.158   6.962  0.00  0.00    +0.137 C 
BRANCH  15  16
ATOM     16  C   UNL     1       4.247   1.381   7.213  0.00  0.00    +0.000 C 
ATOM     17  C   UNL     1       4.801   2.330   8.074  0.00  0.00    +0.004 A 
ATOM     18  C   UNL     1       4.225   3.306   8.915  0.00  0.00    +0.010 A 
ATOM     19  C   UNL     1       5.026   4.111   9.659  0.00  0.00    +0.001 A 
ATOM     20  C   UNL     1       6.418   4.000   9.616  0.00  0.00    +0.002 A 
ATOM     21  C   UNL     1       7.038   3.085   8.831  0.00  0.00    +0.026 A 
ATOM     22  C   UNL     1       6.267   2.208   8.025  0.00  0.00    +0.043 A 
ATOM     23  N   UNL     1       6.623   1.250   7.192  0.00  0.00    -0.380 N 
ATOM     24  C   UNL     1       5.422   0.641   6.613  0.00  0.00    +0.150 C 
ATOM     25  H   UNL     1       7.536   0.988   6.995  0.00  0.00    +0.160 HD
ENDBRANCH  15  16
ENDBRANCH   1  14
TORSDOF 5
