REMARK  Name = ZINC57312271
REMARK  11 active torsions:
REMARK  status: ('A' for Active; 'I' for Inactive)
REMARK    1  A    between atoms: C_1  and  O_2
REMARK    2  A    between atoms: O_2  and  C_3
REMARK    3  A    between atoms: C_7  and  O_9
REMARK    4  A    between atoms: O_9  and  C_10
REMARK    5  A    between atoms: C_16  and  O_30
REMARK    6  A    between atoms: C_17  and  C_25
REMARK    7  A    between atoms: C_20  and  C_21
REMARK    8  A    between atoms: C_25  and  N_26
REMARK    9  A    between atoms: N_26  and  C_27
REMARK   10  A    between atoms: C_27  and  C_28
REMARK   11  A    between atoms: C_28  and  O_29
REMARK                            x       y       z     vdW  Elec       q    Type
REMARK                         _______ _______ _______ _____ _____    ______ ____
ROOT
ATOM      1  C   UNL     1       2.047  -4.460   3.302  0.00  0.00    +0.222 A 
ATOM      2  C   UNL     1       2.226  -5.862   3.474  0.00  0.00    +0.235 A 
ATOM      3  O   UNL     1       1.877  -6.657   2.617  0.00  0.00    -0.283 OA
ATOM      4  C   UNL     1       2.849  -6.313   4.730  0.00  0.00    +0.068 A 
ATOM      5  C   UNL     1       3.066  -7.667   4.990  0.00  0.00    +0.019 A 
ATOM      6  C   UNL     1       3.648  -8.047   6.165  0.00  0.00    +0.046 A 
ATOM      7  C   UNL     1       4.025  -7.090   7.106  0.00  0.00    +0.122 A 
ATOM      8  C   UNL     1       3.816  -5.743   6.864  0.00  0.00    +0.020 A 
ATOM      9  C   UNL     1       3.227  -5.341   5.673  0.00  0.00    +0.144 A 
ATOM     10  O   UNL     1       3.014  -4.036   5.411  0.00  0.00    -0.447 OA
ATOM     11  C   UNL     1       2.452  -3.615   4.271  0.00  0.00    +0.254 A 
ENDROOT
BRANCH  11  12
ATOM     12  C   UNL     1       2.260  -2.135   4.064  0.00  0.00    +0.454 C 
ATOM     13  F   UNL     1       1.506  -1.920   2.905  0.00  0.00    -0.163 F 
ATOM     14  F   UNL     1       1.588  -1.593   5.165  0.00  0.00    -0.163 F 
ATOM     15  F   UNL     1       3.508  -1.516   3.929  0.00  0.00    -0.163 F 
ENDBRANCH  11  12
BRANCH   7  16
ATOM     16  O   UNL     1       4.602  -7.483   8.271  0.00  0.00    -0.506 OA
ATOM     17  H   UNL     1       5.566  -7.541   8.232  0.00  0.00    +0.292 HD
ENDBRANCH   7  16
BRANCH   1  18
ATOM     18  O   UNL     1       1.477  -3.977   2.164  0.00  0.00    -0.448 OA
BRANCH  18  23
ATOM     19  C   UNL     1      -1.757  -4.188   0.505  0.00  0.00    +0.124 A 
ATOM     20  C   UNL     1      -2.497  -4.854   1.472  0.00  0.00    +0.046 A 
ATOM     21  C   UNL     1      -1.905  -5.222   2.665  0.00  0.00    +0.007 A 
ATOM     22  C   UNL     1      -0.575  -4.930   2.898  0.00  0.00    +0.046 A 
ATOM     23  C   UNL     1       0.170  -4.264   1.934  0.00  0.00    +0.132 A 
ATOM     24  C   UNL     1      -0.421  -3.898   0.734  0.00  0.00    +0.091 A 
BRANCH  19  26
ATOM     25  C   UNL     1      -3.720  -4.157  -0.836  0.00  0.00    +0.277 C 
ATOM     26  O   UNL     1      -2.340  -3.825  -0.668  0.00  0.00    -0.495 OA
ENDBRANCH  19  26
ENDBRANCH  18  23
ENDBRANCH   1  18
BRANCH   8  27
ATOM     27  C   UNL     1       4.228  -4.718   7.889  0.00  0.00    -0.039 C 
BRANCH  27  28
ATOM     28  N   UNL     1       5.611  -4.297   7.633  0.00  0.00    +0.383 N 
ATOM     29  H   UNL     1       6.223  -5.097   7.694  0.00  0.00    -0.085 HD
ATOM     30  H   UNL     1       5.675  -3.894   6.710  0.00  0.00    -0.085 HD
BRANCH  28  31
ATOM     31  C   UNL     1       6.012  -3.297   8.632  0.00  0.00    -0.054 C 
BRANCH  31  32
ATOM     32  C   UNL     1       7.454  -2.859   8.365  0.00  0.00    +0.137 C 
BRANCH  32  33
ATOM     33  O   UNL     1       7.521  -2.185   7.107  0.00  0.00    -0.397 OA
ATOM     34  H   UNL     1       8.408  -1.878   6.873  0.00  0.00    +0.209 HD
ENDBRANCH  32  33
ENDBRANCH  31  32
ENDBRANCH  28  31
ENDBRANCH  27  28
ENDBRANCH   8  27
TORSDOF 10
