REMARK  Name = ZINC38718465
REMARK  10 active torsions:
REMARK  status: ('A' for Active; 'I' for Inactive)
REMARK    1  A    between atoms: C_1  and  C_2
REMARK    2  A    between atoms: C_2  and  O_3
REMARK    3  A    between atoms: O_3  and  C_4
REMARK    4  A    between atoms: C_7  and  C_28
REMARK    5  A    between atoms: C_9  and  S_10
REMARK    6  A    between atoms: S_10  and  N_13
REMARK    7  A    between atoms: N_13  and  C_14
REMARK    8  A    between atoms: C_17  and  C_20
REMARK    9  A    between atoms: C_28  and  C_29
REMARK   10  A    between atoms: C_28  and  C_30
REMARK                            x       y       z     vdW  Elec       q    Type
REMARK                         _______ _______ _______ _____ _____    ______ ____
ROOT
ATOM      1  N   UNL     1      -4.120  -0.676   1.429  0.00  0.00    -0.216 N 
ATOM      2  H   UNL     1      -4.731  -0.931   2.138  0.00  0.00    +0.174 HD
ENDROOT
BRANCH   1   3
ATOM      3  C   UNL     1      -3.084   0.224   1.690  0.00  0.00    +0.048 A 
ATOM      4  C   UNL     1      -1.800  -0.044   1.231  0.00  0.00    +0.025 A 
ATOM      5  C   UNL     1      -0.775   0.843   1.487  0.00  0.00    +0.012 A 
ATOM      6  C   UNL     1      -1.029   2.009   2.208  0.00  0.00    +0.002 A 
ATOM      7  C   UNL     1      -2.317   2.276   2.667  0.00  0.00    +0.012 A 
ATOM      8  C   UNL     1      -3.340   1.389   2.404  0.00  0.00    +0.025 A 
BRANCH   6   9
ATOM      9  C   UNL     1       0.072   2.965   2.486  0.00  0.00    +0.090 A 
ATOM     10  C   UNL     1      -0.036   4.123   3.174  0.00  0.00    +0.116 A 
ATOM     11  N   UNL     1       1.228   4.706   3.215  0.00  0.00    -0.324 N 
ATOM     12  C   UNL     1       2.039   3.865   2.511  0.00  0.00    +0.170 A 
ATOM     13  N   UNL     1       1.364   2.827   2.100  0.00  0.00    -0.222 NA
ATOM     14  S   UNL     1       3.651   4.622   2.496  0.00  0.00    -0.086 S 
ATOM     15  C   UNL     1       3.160   6.288   3.111  0.00  0.00    +0.099 C 
ATOM     16  C   UNL     1       1.830   5.907   3.804  0.00  0.00    +0.135 C 
ENDBRANCH   6   9
ENDBRANCH   1   3
BRANCH   1  17
ATOM     17  S   UNL     1      -4.305  -1.307  -0.090  0.00  0.00    +0.076 S 
ATOM     18  O   UNL     1      -4.210  -0.217  -0.997  0.00  0.00    -0.150 OA
ATOM     19  O   UNL     1      -5.441  -2.159  -0.040  0.00  0.00    -0.150 OA
BRANCH  17  25
ATOM     20  C   UNL     1      -2.704  -3.473   0.375  0.00  0.00    +0.147 A 
ATOM     21  C   UNL     1      -1.609  -4.289   0.127  0.00  0.00    +0.048 A 
ATOM     22  C   UNL     1      -0.727  -3.969  -0.887  0.00  0.00    +0.007 A 
ATOM     23  C   UNL     1      -0.934  -2.837  -1.653  0.00  0.00    -0.043 A 
ATOM     24  C   UNL     1      -2.024  -2.022  -1.407  0.00  0.00    +0.036 A 
ATOM     25  C   UNL     1      -2.912  -2.341  -0.399  0.00  0.00    +0.150 A 
BRANCH  23  26
ATOM     26  C   UNL     1       0.030  -2.490  -2.759  0.00  0.00    +0.013 C 
ATOM     27  C   UNL     1       1.428  -2.288  -2.171  0.00  0.00    +0.012 C 
ATOM     28  C   UNL     1       0.065  -3.628  -3.780  0.00  0.00    +0.012 C 
ENDBRANCH  23  26
BRANCH  20  29
ATOM     29  O   UNL     1      -3.573  -3.786   1.372  0.00  0.00    -0.490 OA
BRANCH  29  31
ATOM     30  C   UNL     1      -4.383  -5.174   3.177  0.00  0.00    +0.048 C 
ATOM     31  C   UNL     1      -3.240  -4.905   2.196  0.00  0.00    +0.226 C 
ENDBRANCH  29  31
ENDBRANCH  20  29
ENDBRANCH  17  25
ENDBRANCH   1  17
TORSDOF 7
