REMARK  Name = ZINC48866734
REMARK  6 active torsions:
REMARK  status: ('A' for Active; 'I' for Inactive)
REMARK    1  A    between atoms: C_3  and  C_8
REMARK    2  A    between atoms: C_8  and  N_9
REMARK    3  A    between atoms: N_9  and  S_10
REMARK    4  A    between atoms: S_10  and  C_13
REMARK    5  A    between atoms: C_16  and  N_19
REMARK    6  A    between atoms: N_19  and  N_20
REMARK                            x       y       z     vdW  Elec       q    Type
REMARK                         _______ _______ _______ _____ _____    ______ ____
ROOT
ATOM      1  S   UNL     1       5.657   2.916   1.662  0.00  0.00    +0.059 S 
ATOM      2  O   UNL     1       5.758   3.090   3.069  0.00  0.00    -0.153 OA
ATOM      3  O   UNL     1       6.510   2.038   0.940  0.00  0.00    -0.153 OA
ENDROOT
BRANCH   1   4
ATOM      4  C   UNL     1       5.851   4.513   0.942  0.00  0.00    +0.105 A 
ATOM      5  C   UNL     1       6.283   4.631  -0.366  0.00  0.00    +0.030 A 
ATOM      6  C   UNL     1       6.436   5.881  -0.933  0.00  0.00    +0.026 A 
ATOM      7  C   UNL     1       6.155   7.019  -0.189  0.00  0.00    +0.041 A 
ATOM      8  C   UNL     1       5.721   6.896   1.125  0.00  0.00    +0.026 A 
ATOM      9  C   UNL     1       5.565   5.644   1.685  0.00  0.00    +0.030 A 
BRANCH   7  10
ATOM     10  N   UNL     1       6.310   8.285  -0.759  0.00  0.00    -0.283 N 
ATOM     11  H   UNL     1       6.613   8.370  -1.677  0.00  0.00    +0.166 HD
BRANCH  10  12
ATOM     12  N   UNL     1       6.033   9.403  -0.025  0.00  0.00    -0.257 NA
ATOM     13  H   UNL     1       6.572   9.419   0.827  0.00  0.00    +0.140 HD
ATOM     14  H   UNL     1       6.190  10.240  -0.568  0.00  0.00    +0.140 HD
ENDBRANCH  10  12
ENDBRANCH   7  10
ENDBRANCH   1   4
BRANCH   1  15
ATOM     15  N   UNL     1       4.105   2.426   1.356  0.00  0.00    -0.186 NA
ATOM     16  H   UNL     1       3.483   2.300   2.089  0.00  0.00    +0.148 HD
BRANCH  15  17
ATOM     17  C   UNL     1       3.672   2.183  -0.022  0.00  0.00    +0.141 C 
BRANCH  17  20
ATOM     18  C   UNL     1      -0.017   1.378   0.010  0.00  0.00    +0.001 A 
ATOM     19  C   UNL     1       1.171   2.086   0.002  0.00  0.00    +0.005 A 
ATOM     20  C   UNL     1       2.378   1.411  -0.013  0.00  0.00    -0.031 A 
ATOM     21  C   UNL     1       2.397   0.029  -0.022  0.00  0.00    +0.020 A 
ATOM     22  C   UNL     1       1.210  -0.679  -0.014  0.00  0.00    +0.018 A 
ATOM     23  C   UNL     1       0.002  -0.004   0.002  0.00  0.00    +0.015 A 
ATOM     24 BR   UNL     1       1.236  -2.570  -0.025  0.00  0.00    -0.050 Br
ENDBRANCH  17  20
ENDBRANCH  15  17
ENDBRANCH   1  15
TORSDOF 6
