REMARK  Name = ZINC33386431
REMARK  5 active torsions:
REMARK  status: ('A' for Active; 'I' for Inactive)
REMARK    1  A    between atoms: C_1  and  C_2
REMARK    2  A    between atoms: C_2  and  N_3
REMARK    3  A    between atoms: C_7  and  C_21
REMARK    4  A    between atoms: N_11  and  C_12
REMARK    5  A    between atoms: N_23  and  C_24
REMARK                            x       y       z     vdW  Elec       q    Type
REMARK                         _______ _______ _______ _____ _____    ______ ____
ROOT
ATOM      1  N   UNL     1       0.723  -0.477   1.184  0.00  0.00    -0.251 N 
ATOM      2  C   UNL     1       2.030  -0.670   1.094  0.00  0.00    +0.223 C 
ATOM      3  O   UNL     1       2.548  -0.293   0.065  0.00  0.00    -0.275 OA
ATOM      4  C   UNL     1       2.950  -1.287   2.091  0.00  0.00    +0.120 C 
ATOM      5  C   UNL     1       2.454  -1.118   3.528  0.00  0.00    +0.149 C 
ATOM      6  S   UNL     1       0.725  -1.694   3.597  0.00  0.00    -0.077 S 
ATOM      7  C   UNL     1      -0.020  -0.702   2.330  0.00  0.00    +0.164 C 
ATOM      8  N   UNL     1      -1.225  -0.204   2.470  0.00  0.00    -0.226 NA
ENDROOT
BRANCH   8   9
ATOM      9  C   UNL     1      -1.937  -0.445   3.617  0.00  0.00    +0.070 A 
ATOM     10  C   UNL     1      -1.976  -1.730   4.160  0.00  0.00    +0.031 A 
ATOM     11  C   UNL     1      -2.692  -1.970   5.314  0.00  0.00    +0.051 A 
ATOM     12  C   UNL     1      -3.375  -0.938   5.939  0.00  0.00    +0.166 A 
ATOM     13  C   UNL     1      -3.340   0.348   5.403  0.00  0.00    +0.168 A 
ATOM     14  C   UNL     1      -2.619   0.596   4.249  0.00  0.00    +0.077 A 
ATOM     15  O   UNL     1      -4.084   1.172   6.197  0.00  0.00    -0.453 OA
ATOM     16  C   UNL     1      -4.907   0.300   6.993  0.00  0.00    +0.466 C 
ATOM     17  O   UNL     1      -4.142  -0.917   7.070  0.00  0.00    -0.453 OA
ENDBRANCH   8   9
BRANCH   5  18
ATOM     18  C   UNL     1       3.304  -1.940   4.462  0.00  0.00    +0.231 C 
ATOM     19  O   UNL     1       3.820  -2.965   4.068  0.00  0.00    -0.274 OA
ATOM     20  N   UNL     1       3.491  -1.538   5.734  0.00  0.00    -0.285 N 
ATOM     21  H   UNL     1       3.135  -0.685   6.030  0.00  0.00    +0.155 HD
BRANCH  20  22
ATOM     22  C   UNL     1       4.200  -2.349   6.627  0.00  0.00    +0.034 A 
ATOM     23  C   UNL     1       3.830  -2.398   7.965  0.00  0.00    +0.023 A 
ATOM     24  C   UNL     1       4.531  -3.200   8.845  0.00  0.00    +0.003 A 
ATOM     25  C   UNL     1       5.600  -3.953   8.396  0.00  0.00    +0.015 A 
ATOM     26  C   UNL     1       5.971  -3.905   7.064  0.00  0.00    +0.020 A 
ATOM     27  C   UNL     1       5.270  -3.110   6.177  0.00  0.00    +0.038 A 
ATOM     28 BR   UNL     1       7.435  -4.937   6.454  0.00  0.00    -0.050 Br
ENDBRANCH  20  22
ENDBRANCH   5  18
BRANCH   1  30
ATOM     29  C   UNL     1       0.010   1.541   0.002  0.00  0.00    +0.025 C 
ATOM     30  C   UNL     1       0.019   0.011  -0.004  0.00  0.00    +0.112 C 
ENDBRANCH   1  30
TORSDOF 4
