REMARK  Name = ZINC08951470
REMARK  8 active torsions:
REMARK  status: ('A' for Active; 'I' for Inactive)
REMARK    1  A    between atoms: C_1  and  C_2
REMARK    2  A    between atoms: C_2  and  C_25
REMARK    3  A    between atoms: C_3  and  N_19
REMARK    4  A    between atoms: N_5  and  N_9
REMARK    5  A    between atoms: C_10  and  C_11
REMARK    6  A    between atoms: C_16  and  O_17
REMARK    7  A    between atoms: N_19  and  O_24
REMARK    8  A    between atoms: N_22  and  C_23
REMARK                            x       y       z     vdW  Elec       q    Type
REMARK                         _______ _______ _______ _____ _____    ______ ____
ROOT
ATOM      1  C   UNL     1      -0.250   1.532  -0.251  0.00  0.00    +0.026 C 
ATOM      2  C   UNL     1      -0.131   0.007  -0.222  0.00  0.00    +0.056 C 
ATOM      3  C   UNL     1      -1.452  -0.658   0.243  0.00  0.00    +0.232 C 
ATOM      4  N   UNL     1      -1.455  -0.880   1.678  0.00  0.00    -0.187 N 
ATOM      5  C   UNL     1      -0.292  -0.908   2.358  0.00  0.00    +0.132 C 
ATOM      6  S   UNL     1      -0.071  -1.214   4.028  0.00  0.00    -0.026 S 
ATOM      7  S   UNL     1       0.969  -0.559   1.144  0.00  0.00    -0.091 S 
ATOM      8  C   UNL     1       0.328  -0.540  -1.575  0.00  0.00    +0.026 C 
ENDROOT
BRANCH   3   9
ATOM      9  N   UNL     1      -1.607  -1.946  -0.439  0.00  0.00    -0.144 N 
ATOM     10  C   UNL     1      -0.758  -2.957  -0.170  0.00  0.00    +0.327 C 
ATOM     11  O   UNL     1       0.069  -2.838   0.713  0.00  0.00    -0.250 OA
ATOM     12  N   UNL     1      -0.825  -4.100  -0.881  0.00  0.00    -0.301 N 
ATOM     13  C   UNL     1       0.021  -5.240  -0.518  0.00  0.00    +0.130 C 
ATOM     14  H   UNL     1      -1.434  -4.168  -1.633  0.00  0.00    +0.150 HD
BRANCH   9  15
ATOM     15  O   UNL     1      -2.650  -2.127  -1.380  0.00  0.00    -0.289 OA
ATOM     16  H   UNL     1      -2.721  -3.030  -1.718  0.00  0.00    +0.242 HD
ENDBRANCH   9  15
ENDBRANCH   3   9
BRANCH   4  17
ATOM     17  N   UNL     1      -2.668  -1.063   2.356  0.00  0.00    -0.184 NA
ATOM     18  C   UNL     1      -3.779  -1.136   1.690  0.00  0.00    +0.142 C 
BRANCH  18  19
ATOM     19  C   UNL     1      -5.040  -1.439   2.391  0.00  0.00    +0.037 A 
ATOM     20  C   UNL     1      -6.237  -1.524   1.677  0.00  0.00    +0.028 A 
ATOM     21  C   UNL     1      -7.414  -1.808   2.339  0.00  0.00    +0.019 A 
ATOM     22  C   UNL     1      -7.412  -2.010   3.709  0.00  0.00    +0.019 A 
ATOM     23  C   UNL     1      -6.234  -1.928   4.426  0.00  0.00    +0.047 A 
ATOM     24  C   UNL     1      -5.043  -1.650   3.776  0.00  0.00    +0.126 A 
ATOM     25 BR   UNL     1      -9.035  -1.923   1.372  0.00  0.00    -0.050 Br
BRANCH  24  26
ATOM     26  O   UNL     1      -3.883  -1.576   4.479  0.00  0.00    -0.506 OA
ATOM     27  H   UNL     1      -3.682  -0.691   4.814  0.00  0.00    +0.292 HD
ENDBRANCH  24  26
ENDBRANCH  18  19
ENDBRANCH   4  17
TORSDOF 5
