REMARK  Name = ZINC59005886
REMARK  13 active torsions:
REMARK  status: ('A' for Active; 'I' for Inactive)
REMARK    1  A    between atoms: C_1  and  C_2
REMARK    2  A    between atoms: C_2  and  N_3
REMARK    3  A    between atoms: N_3  and  C_4
REMARK    4  A    between atoms: N_3  and  C_6
REMARK    5  A    between atoms: C_4  and  C_5
REMARK    6  A    between atoms: C_9  and  C_12
REMARK    7  A    between atoms: N_13  and  N_14
REMARK    8  A    between atoms: C_17  and  S_20
REMARK    9  A    between atoms: S_20  and  C_21
REMARK   10  A    between atoms: C_21  and  C_22
REMARK   11  A    between atoms: C_28  and  S_30
REMARK   12  A    between atoms: S_30  and  C_31
REMARK   13  A    between atoms: C_31  and  C_32
REMARK                            x       y       z     vdW  Elec       q    Type
REMARK                         _______ _______ _______ _____ _____    ______ ____
ROOT
ATOM      1  N   UNL     1       8.293  -2.003   1.992  0.00  0.00    -0.205 N 
ATOM      2  C   UNL     1       8.960  -2.467   3.111  0.00  0.00    +0.232 A 
ATOM      3  N   UNL     1       8.416  -2.749   4.276  0.00  0.00    -0.186 NA
ATOM      4  C   UNL     1       9.360  -3.172   5.123  0.00  0.00    +0.211 A 
ATOM      5  N   UNL     1      10.519  -3.164   4.508  0.00  0.00    -0.144 NA
ATOM      6  N   UNL     1      10.284  -2.715   3.198  0.00  0.00    -0.245 N 
ATOM      7  H   UNL     1       8.782  -1.827   1.173  0.00  0.00    +0.177 HD
ATOM      8  H   UNL     1      10.944  -2.604   2.496  0.00  0.00    +0.192 HD
ENDROOT
BRANCH   1  10
ATOM      9  C   UNL     1       6.282  -1.353   0.991  0.00  0.00    +0.138 C 
ATOM     10  N   UNL     1       6.909  -1.789   2.041  0.00  0.00    -0.188 NA
BRANCH   9  14
ATOM     11  C   UNL     1       2.089  -0.703   1.140  0.00  0.00    +0.030 A 
ATOM     12  C   UNL     1       2.789  -0.449  -0.035  0.00  0.00    +0.024 A 
ATOM     13  C   UNL     1       4.149  -0.659  -0.087  0.00  0.00    +0.011 A 
ATOM     14  C   UNL     1       4.826  -1.127   1.043  0.00  0.00    -0.005 A 
ATOM     15  C   UNL     1       4.119  -1.381   2.222  0.00  0.00    +0.011 A 
ATOM     16  C   UNL     1       2.760  -1.164   2.268  0.00  0.00    +0.024 A 
BRANCH  11  17
ATOM     17  N   UNL     1       0.711  -0.489   1.189  0.00  0.00    -0.330 N 
BRANCH  17  19
ATOM     18  C   UNL     1      -0.019   1.526   0.010  0.00  0.00    +0.024 C 
ATOM     19  C   UNL     1       0.002  -0.004   0.002  0.00  0.00    +0.102 C 
ENDBRANCH  17  19
BRANCH  17  20
ATOM     20  C   UNL     1      -0.028  -0.750   2.427  0.00  0.00    +0.102 C 
ATOM     21  C   UNL     1      -0.511  -2.202   2.437  0.00  0.00    +0.024 C 
ENDBRANCH  17  20
ENDBRANCH  11  17
ENDBRANCH   9  14
ENDBRANCH   1  10
BRANCH   4  22
ATOM     22  S   UNL     1       9.092  -3.660   6.795  0.00  0.00    -0.075 S 
BRANCH  22  23
ATOM     23  C   UNL     1      10.743  -4.117   7.389  0.00  0.00    +0.173 C 
BRANCH  23  24
ATOM     24  C   UNL     1      10.655  -4.560   8.827  0.00  0.00    +0.229 C 
ATOM     25  O   UNL     1       9.583  -4.566   9.395  0.00  0.00    -0.275 OA
ATOM     26  N   UNL     1      11.767  -4.948   9.482  0.00  0.00    -0.263 N 
ATOM     27  C   UNL     1      11.685  -5.357  10.811  0.00  0.00    +0.189 A 
ATOM     28  N   UNL     1      10.635  -5.447  11.610  0.00  0.00    -0.125 NA
ATOM     29  N   UNL     1      10.735  -5.842  12.803  0.00  0.00    -0.133 NA
ATOM     30  C   UNL     1      11.899  -6.192  13.331  0.00  0.00    +0.160 A 
ATOM     31  S   UNL     1      12.971  -5.920  11.922  0.00  0.00    -0.024 S 
ATOM     32  H   UNL     1      12.624  -4.943   9.028  0.00  0.00    +0.157 HD
BRANCH  30  33
ATOM     33  S   UNL     1      12.282  -6.766  14.952  0.00  0.00    -0.093 S 
BRANCH  33  34
ATOM     34  C   UNL     1      10.679  -6.784  15.800  0.00  0.00    +0.103 C 
BRANCH  34  35
ATOM     35  C   UNL     1      10.866  -7.263  17.217  0.00  0.00    -0.023 C 
ATOM     36  C   UNL     1      10.628  -6.453  18.219  0.00  0.00    +0.005 C 
ENDBRANCH  34  35
ENDBRANCH  33  34
ENDBRANCH  30  33
ENDBRANCH  23  24
ENDBRANCH  22  23
ENDBRANCH   4  22
TORSDOF 11
