REMARK  Name = ZINC43867046
REMARK  7 active torsions:
REMARK  status: ('A' for Active; 'I' for Inactive)
REMARK    1  A    between atoms: C_1  and  C_2
REMARK    2  A    between atoms: C_9  and  O_20
REMARK    3  A    between atoms: C_12  and  C_14
REMARK    4  A    between atoms: C_23  and  O_39
REMARK    5  A    between atoms: C_24  and  C_31
REMARK    6  A    between atoms: C_27  and  O_30
REMARK    7  A    between atoms: N_32  and  C_33
REMARK                            x       y       z     vdW  Elec       q    Type
REMARK                         _______ _______ _______ _____ _____    ______ ____
ROOT
ATOM      1  C   UNL     1       1.128   1.285   0.453  0.00  0.00    +0.014 C 
ATOM      2  C   UNL     1       0.674  -0.175   0.392  0.00  0.00    +0.004 C 
ATOM      3  C   UNL     1      -0.780  -0.256   0.795  0.00  0.00    +0.010 C 
ATOM      4  C   UNL     1      -1.245  -1.707   0.902  0.00  0.00    +0.005 C 
ATOM      5  C   UNL     1      -0.380  -2.418   1.950  0.00  0.00    +0.009 C 
ATOM      6  C   UNL     1       1.067  -2.429   1.462  0.00  0.00    +0.025 C 
ATOM      7  C   UNL     1       1.595  -1.022   1.287  0.00  0.00    +0.075 C 
ATOM      8  C   UNL     1       2.873  -1.136   0.404  0.00  0.00    +0.036 C 
ATOM      9  C   UNL     1       2.319  -1.321  -1.026  0.00  0.00    +0.011 C 
ATOM     10  C   UNL     1       0.904  -0.708  -1.029  0.00  0.00    +0.027 C 
ATOM     11  C   UNL     1       1.944  -3.181   2.466  0.00  0.00    +0.009 C 
ATOM     12  C   UNL     1       1.447  -4.620   2.605  0.00  0.00    +0.036 C 
ATOM     13  C   UNL     1       0.228  -4.830   1.704  0.00  0.00    +0.079 C 
ATOM     14  C   UNL     1      -0.890  -3.851   2.127  0.00  0.00    +0.036 C 
ATOM     15  C   UNL     1      -2.122  -4.061   1.244  0.00  0.00    +0.018 C 
ATOM     16  C   UNL     1      -2.635  -5.492   1.415  0.00  0.00    +0.032 C 
ATOM     17  C   UNL     1      -1.539  -6.477   1.001  0.00  0.00    +0.117 C 
ATOM     18  C   UNL     1      -0.273  -6.268   1.857  0.00  0.00    +0.067 C 
ENDROOT
BRANCH  10  19
ATOM     19  C   UNL     1       0.829   0.420  -2.026  0.00  0.00    -0.022 C 
ATOM     20  C   UNL     1       1.855   1.015  -2.629  0.00  0.00    +0.094 C 
ATOM     21  C   UNL     1       1.344   2.060  -3.522  0.00  0.00    +0.332 C 
ATOM     22  O   UNL     1       2.030   2.784  -4.216  0.00  0.00    -0.246 OA
ATOM     23  O   UNL     1       0.000   2.096  -3.458  0.00  0.00    -0.457 OA
ATOM     24  C   UNL     1      -0.426   1.087  -2.537  0.00  0.00    +0.264 C 
ENDBRANCH  10  19
BRANCH  14  25
ATOM     25  C   UNL     1      -1.259  -4.079   3.570  0.00  0.00    +0.060 C 
ATOM     26  N   UNL     1      -2.486  -4.225   3.901  0.00  0.00    -0.390 N 
ATOM     27  H   UNL     1      -3.185  -4.101   3.240  0.00  0.00    +0.159 HD
BRANCH  26  28
ATOM     28  C   UNL     1      -2.836  -4.581   5.278  0.00  0.00    +0.078 C 
ATOM     29  C   UNL     1      -3.593  -5.911   5.285  0.00  0.00    +0.024 C 
ATOM     30  C   UNL     1      -3.958  -6.283   6.723  0.00  0.00    +0.002 C 
ATOM     31  C   UNL     1      -4.844  -5.190   7.323  0.00  0.00    +0.000 C 
ATOM     32  C   UNL     1      -4.087  -3.860   7.317  0.00  0.00    +0.002 C 
ATOM     33  C   UNL     1      -3.722  -3.488   5.878  0.00  0.00    +0.024 C 
ENDBRANCH  26  28
ENDBRANCH  14  25
BRANCH   7  34
ATOM     34  O   UNL     1       1.843  -0.401   2.550  0.00  0.00    -0.388 OA
ATOM     35  H   UNL     1       2.420  -0.913   3.134  0.00  0.00    +0.210 HD
ENDBRANCH   7  34
BRANCH  17  36
ATOM     36  O   UNL     1      -1.188  -6.253  -0.366  0.00  0.00    -0.392 OA
ATOM     37  H   UNL     1      -1.923  -6.367  -0.984  0.00  0.00    +0.210 HD
ENDBRANCH  17  36
BRANCH  13  38
ATOM     38  O   UNL     1       0.595  -4.595   0.344  0.00  0.00    -0.388 OA
ATOM     39  H   UNL     1       1.294  -5.178   0.018  0.00  0.00    +0.210 HD
ENDBRANCH  13  38
TORSDOF 6
