REMARK  Name = ZINC24788370
REMARK  15 active torsions:
REMARK  status: ('A' for Active; 'I' for Inactive)
REMARK    1  A    between atoms: C_1  and  C_2
REMARK    2  A    between atoms: C_2  and  O_3
REMARK    3  A    between atoms: O_3  and  C_4
REMARK    4  A    between atoms: C_4  and  C_6
REMARK    5  A    between atoms: C_7  and  C_32
REMARK    6  A    between atoms: C_9  and  N_11
REMARK    7  A    between atoms: C_12  and  C_14
REMARK    8  A    between atoms: C_14  and  S_15
REMARK    9  A    between atoms: S_15  and  C_16
REMARK   10  A    between atoms: C_19  and  C_22
REMARK   11  A    between atoms: N_20  and  N_21
REMARK   12  A    between atoms: C_25  and  O_30
REMARK   13  A    between atoms: C_27  and  O_28
REMARK   14  A    between atoms: O_28  and  C_29
REMARK   15  A    between atoms: O_30  and  C_31
REMARK                            x       y       z     vdW  Elec       q    Type
REMARK                         _______ _______ _______ _____ _____    ______ ____
ROOT
ATOM      1  C   UNL     1      -1.117   2.173   0.018  0.00  0.00    +0.209 A 
ATOM      2  N   UNL     1      -0.685   3.414   0.027  0.00  0.00    -0.121 NA
ATOM      3  N   UNL     1       0.600   3.435   0.015  0.00  0.00    -0.127 NA
ATOM      4  C   UNL     1       1.068   2.208   0.004  0.00  0.00    +0.185 A 
ATOM      5  N   UNL     1      -0.016   1.362   0.009  0.00  0.00    -0.224 N 
ENDROOT
BRANCH   4   6
ATOM      6  C   UNL     1       2.491   1.812  -0.012  0.00  0.00    +0.063 A 
ATOM      7  C   UNL     1       2.842   0.461  -0.016  0.00  0.00    +0.019 A 
ATOM      8  C   UNL     1       4.171   0.095  -0.035  0.00  0.00    +0.046 A 
ATOM      9  C   UNL     1       5.164   1.067  -0.039  0.00  0.00    +0.124 A 
ATOM     10  C   UNL     1       4.825   2.412  -0.030  0.00  0.00    +0.092 A 
ATOM     11  C   UNL     1       3.494   2.790  -0.016  0.00  0.00    +0.134 A 
BRANCH  11  12
ATOM     12  O   UNL     1       3.160   4.107  -0.006  0.00  0.00    -0.494 OA
ATOM     13  C   UNL     1       4.235   5.049  -0.011  0.00  0.00    +0.277 C 
ENDBRANCH  11  12
BRANCH   9  14
ATOM     14  O   UNL     1       6.471   0.698  -0.053  0.00  0.00    -0.495 OA
ATOM     15  C   UNL     1       6.751  -0.703  -0.062  0.00  0.00    +0.277 C 
ENDBRANCH   9  14
ENDBRANCH   4   6
BRANCH   5  16
ATOM     16  N   UNL     1       0.002  -0.004   0.002  0.00  0.00    -0.295 N 
ATOM     17  H   UNL     1       0.962  -0.541  -0.005  0.00  0.00    +0.163 HD
ATOM     18  H   UNL     1      -0.943  -0.567   0.003  0.00  0.00    +0.163 HD
ENDBRANCH   5  16
BRANCH   1  19
ATOM     19  S   UNL     1      -2.800   1.652   0.022  0.00  0.00    -0.075 S 
BRANCH  19  20
ATOM     20  C   UNL     1      -3.627   3.261   0.034  0.00  0.00    +0.173 C 
BRANCH  20  22
ATOM     21  N   UNL     1      -5.946   4.124   0.049  0.00  0.00    -0.279 N 
ATOM     22  C   UNL     1      -5.121   3.058   0.039  0.00  0.00    +0.228 C 
ATOM     23  O   UNL     1      -5.580   1.936   0.035  0.00  0.00    -0.275 OA
ATOM     24  H   UNL     1      -5.529   5.142   0.052  0.00  0.00    +0.155 HD
BRANCH  21  28
ATOM     25  C   UNL     1      -9.861   3.115   0.059  0.00  0.00    +0.101 A 
ATOM     26  C   UNL     1      -9.623   4.483   0.065  0.00  0.00    -0.028 A 
ATOM     27  C   UNL     1      -8.317   4.892   0.062  0.00  0.00    +0.035 A 
ATOM     28  C   UNL     1      -7.322   3.937   0.053  0.00  0.00    +0.073 A 
ATOM     29  S   UNL     1      -8.207   2.446   0.041  0.00  0.00    -0.067 S 
ATOM     30  C   UNL     1     -10.756   5.476   0.076  0.00  0.00    +0.045 C 
BRANCH  25  31
ATOM     31  C   UNL     1     -11.099   2.426   0.060  0.00  0.00    +0.346 C 
ATOM     32  O   UNL     1     -12.143   3.052   0.068  0.00  0.00    -0.244 OA
BRANCH  31  33
ATOM     33  O   UNL     1     -11.121   1.077   0.053  0.00  0.00    -0.461 OA
BRANCH  33  35
ATOM     34  C   UNL     1     -12.229  -1.071   0.045  0.00  0.00    +0.048 C 
ATOM     35  C   UNL     1     -12.405   0.449   0.054  0.00  0.00    +0.229 C 
ENDBRANCH  33  35
ENDBRANCH  31  33
ENDBRANCH  25  31
ENDBRANCH  21  28
ENDBRANCH  20  22
ENDBRANCH  19  20
ENDBRANCH   1  19
TORSDOF 11
