REMARK  Name = ZINC39453622
REMARK  4 active torsions:
REMARK  status: ('A' for Active; 'I' for Inactive)
REMARK    1  A    between atoms: C_1  and  S_2
REMARK    2  A    between atoms: S_2  and  C_3
REMARK    3  A    between atoms: N_15  and  S_18
REMARK    4  A    between atoms: S_18  and  C_19
REMARK                            x       y       z     vdW  Elec       q    Type
REMARK                         _______ _______ _______ _____ _____    ______ ____
ROOT
ATOM      1  C   UNL     1       0.877  -0.427   1.472  0.00  0.00    +0.017 A 
ATOM      2  C   UNL     1       1.350   0.562   2.314  0.00  0.00    +0.015 A 
ATOM      3  C   UNL     1       2.041   0.248   3.476  0.00  0.00    +0.003 A 
ATOM      4  C   UNL     1       2.286  -1.041   3.844  0.00  0.00    +0.028 A 
ATOM      5  C   UNL     1       1.835  -2.099   3.035  0.00  0.00    +0.073 A 
ATOM      6  C   UNL     1       1.098  -1.780   1.809  0.00  0.00    +0.015 A 
ATOM      7  C   UNL     1       0.639  -2.827   1.002  0.00  0.00    +0.026 A 
ATOM      8  C   UNL     1       0.905  -4.127   1.414  0.00  0.00    +0.068 A 
ATOM      9  C   UNL     1       1.621  -4.365   2.616  0.00  0.00    +0.100 A 
ATOM     10  N   UNL     1       2.060  -3.371   3.366  0.00  0.00    -0.245 NA
ATOM     11  C   UNL     1       1.879  -5.763   3.001  0.00  0.00    +0.084 A 
ATOM     12  C   UNL     1       1.422  -6.792   2.202  0.00  0.00    +0.122 A 
ATOM     13  N   UNL     1       0.722  -6.530   1.029  0.00  0.00    -0.245 N 
ATOM     14  C   UNL     1       0.454  -5.279   0.618  0.00  0.00    +0.271 A 
ATOM     15  O   UNL     1      -0.163  -5.098  -0.416  0.00  0.00    -0.266 OA
ATOM     16  C   UNL     1       1.662  -8.134   2.577  0.00  0.00    +0.187 C 
ATOM     17  O   UNL     1       1.303  -9.036   1.848  0.00  0.00    -0.290 OA
ATOM     18  C   UNL     1       2.360  -8.455   3.873  0.00  0.00    +0.138 C 
ATOM     19  C   UNL     1       3.322  -7.316   4.228  0.00  0.00    +0.259 C 
ATOM     20  N   UNL     1       2.580  -6.048   4.157  0.00  0.00    -0.311 N 
ATOM     21  F   UNL     1       3.817  -7.502   5.523  0.00  0.00    -0.224 F 
ATOM     22  H   UNL     1       2.583  -5.427   4.902  0.00  0.00    +0.149 HD
ENDROOT
BRANCH   1  24
ATOM     23  C   UNL     1      -0.022   1.810   0.012  0.00  0.00    +0.090 C 
ATOM     24  S   UNL     1       0.002  -0.004   0.002  0.00  0.00    -0.128 S 
ENDBRANCH   1  24
BRANCH  13  25
ATOM     25  S   UNL     1       0.202  -7.803   0.106  0.00  0.00    -0.044 S 
ATOM     26  C   UNL     1      -1.450  -8.171   0.758  0.00  0.00    +0.110 C 
ENDBRANCH  13  25
TORSDOF 2
