REMARK  Name = ZINC49034729
REMARK  9 active torsions:
REMARK  status: ('A' for Active; 'I' for Inactive)
REMARK    1  A    between atoms: C_1  and  C_2
REMARK    2  A    between atoms: C_11  and  N_12
REMARK    3  A    between atoms: N_12  and  C_13
REMARK    4  A    between atoms: C_14  and  C_21
REMARK    5  A    between atoms: C_18  and  C_19
REMARK    6  A    between atoms: C_22  and  C_23
REMARK    7  A    between atoms: C_26  and  C_29
REMARK    8  A    between atoms: C_29  and  N_30
REMARK    9  A    between atoms: N_33  and  C_36
REMARK                            x       y       z     vdW  Elec       q    Type
REMARK                         _______ _______ _______ _____ _____    ______ ____
ROOT
ATOM      1  C   UNL     1      -0.059  -0.712   3.601  0.00  0.00    +0.059 A 
ATOM      2  C   UNL     1      -0.478  -0.076   4.787  0.00  0.00    +0.016 A 
ATOM      3  C   UNL     1      -0.546  -0.822   5.963  0.00  0.00    +0.120 A 
ATOM      4  N   UNL     1      -0.225  -2.101   5.976  0.00  0.00    -0.261 NA
ATOM      5  C   UNL     1       0.173  -2.738   4.893  0.00  0.00    +0.131 A 
ATOM      6  C   UNL     1       0.268  -2.080   3.666  0.00  0.00    +0.091 A 
ENDROOT
BRANCH   1   7
ATOM      7  N   UNL     1       0.025  -0.015   2.410  0.00  0.00    -0.313 N 
ATOM      8  H   UNL     1       0.833   0.475   2.190  0.00  0.00    +0.152 HD
BRANCH   7  19
ATOM      9  C   UNL     1       0.181   1.647   0.113  0.00  0.00    +0.046 C 
ATOM     10  C   UNL     1      -1.020   0.780   0.391  0.00  0.00    -0.020 A 
ATOM     11  C   UNL     1      -2.100   0.771  -0.494  0.00  0.00    +0.004 A 
ATOM     12  C   UNL     1      -2.388   1.462  -1.753  0.00  0.00    +0.028 A 
ATOM     13  C   UNL     1      -3.600   1.052  -2.158  0.00  0.00    +0.083 A 
ATOM     14  N   UNL     1      -4.113   0.155  -1.261  0.00  0.00    -0.361 N 
ATOM     15  H   UNL     1      -4.977  -0.280  -1.339  0.00  0.00    +0.165 HD
ATOM     16  C   UNL     1      -3.218  -0.040  -0.230  0.00  0.00    +0.047 A 
ATOM     17  C   UNL     1      -3.239  -0.829   0.916  0.00  0.00    +0.028 A 
ATOM     18  C   UNL     1      -2.170  -0.812   1.783  0.00  0.00    +0.025 A 
ATOM     19  C   UNL     1      -1.057  -0.015   1.522  0.00  0.00    +0.035 A 
ENDBRANCH   7  19
ENDBRANCH   1   7
BRANCH   6  20
ATOM     20  C   UNL     1       0.695  -2.783   2.493  0.00  0.00    +0.103 C 
ATOM     21  N   UNL     1       1.033  -3.340   1.563  0.00  0.00    -0.191 NA
ENDBRANCH   6  20
BRANCH   2  22
ATOM     22  C   UNL     1      -0.839   1.351   4.784  0.00  0.00    +0.013 C 
ATOM     23  C   UNL     1      -1.238   1.946   5.921  0.00  0.00    +0.028 C 
BRANCH  23  24
ATOM     24  C   UNL     1      -1.598   3.373   5.919  0.00  0.00    +0.064 A 
ATOM     25  C   UNL     1      -2.007   3.989   7.105  0.00  0.00    +0.028 A 
ATOM     26  C   UNL     1      -2.342   5.330   7.085  0.00  0.00    +0.008 A 
ATOM     27  C   UNL     1      -2.259   6.017   5.881  0.00  0.00    -0.015 A 
ATOM     28  C   UNL     1      -1.847   5.347   4.744  0.00  0.00    +0.116 A 
ATOM     29  N   UNL     1      -1.527   4.070   4.788  0.00  0.00    -0.255 NA
BRANCH  27  30
ATOM     30  C   UNL     1      -2.615   7.480   5.815  0.00  0.00    +0.121 C 
BRANCH  30  31
ATOM     31  N   UNL     1      -1.416   8.288   6.074  0.00  0.00    -0.302 NA
ATOM     32  C   UNL     1      -0.949   8.109   7.456  0.00  0.00    +0.066 C 
ATOM     33  C   UNL     1       0.332   8.919   7.668  0.00  0.00    -0.064 C 
ATOM     34  N   UNL     1       0.063  10.339   7.403  0.00  0.00    +0.379 N 
ATOM     35  C   UNL     1      -0.378  10.504   6.012  0.00  0.00    -0.064 C 
ATOM     36  C   UNL     1      -1.665   9.707   5.787  0.00  0.00    +0.066 C 
ATOM     37  C   UNL     1       1.288  11.118   7.623  0.00  0.00    -0.096 C 
ATOM     38  H   UNL     1      -0.660  10.666   8.026  0.00  0.00    -0.082 HD
ENDBRANCH  30  31
ENDBRANCH  27  30
ENDBRANCH  23  24
ENDBRANCH   2  22
TORSDOF 7
