REMARK  Name = ZINC06281657
REMARK  7 active torsions:
REMARK  status: ('A' for Active; 'I' for Inactive)
REMARK    1  A    between atoms: C_1  and  C_2
REMARK    2  A    between atoms: C_9  and  C_14
REMARK    3  A    between atoms: C_14  and  C_16
REMARK    4  A    between atoms: C_14  and  N_67
REMARK    5  A    between atoms: N_20  and  C_21
REMARK    6  A    between atoms: C_21  and  C_22
REMARK    7  A    between atoms: N_30  and  C_33
REMARK                            x       y       z     vdW  Elec       q    Type
REMARK                         _______ _______ _______ _____ _____    ______ ____
ROOT
ATOM      1  C   UNL     1       1.383   3.500  -0.069  0.00  0.00    +0.039 C 
ENDROOT
BRANCH   1  10
ATOM      2  C   UNL     1       6.660   7.674   3.148  0.00  0.00    +0.044 C 
ATOM      3  C   UNL     1       6.229   6.674   2.107  0.00  0.00    -0.050 A 
ATOM      4  C   UNL     1       7.160   6.169   1.210  0.00  0.00    +0.005 A 
ATOM      5  C   UNL     1       6.788   5.253   0.250  0.00  0.00    +0.026 A 
ATOM      6  C   UNL     1       5.466   4.829   0.177  0.00  0.00    +0.049 A 
ATOM      7  C   UNL     1       4.524   5.342   1.088  0.00  0.00    -0.001 A 
ATOM      8  C   UNL     1       4.924   6.271   2.055  0.00  0.00    +0.013 A 
ATOM      9  C   UNL     1       3.133   4.893   1.000  0.00  0.00    +0.017 A 
ATOM     10  C   UNL     1       2.804   3.987   0.046  0.00  0.00    +0.011 A 
ATOM     11  C   UNL     1       3.788   3.502  -0.843  0.00  0.00    +0.251 A 
ATOM     12  O   UNL     1       3.470   2.692  -1.696  0.00  0.00    -0.268 OA
ATOM     13  N   UNL     1       5.066   3.913  -0.773  0.00  0.00    -0.322 N 
ATOM     14  H   UNL     1       5.716   3.561  -1.401  0.00  0.00    +0.169 HD
ENDBRANCH   1  10
BRANCH   1  20
ATOM     15  C   UNL     1      -0.019   1.526   0.010  0.00  0.00    -0.058 C 
ATOM     16  C   UNL     1       0.002  -0.004   0.002  0.00  0.00    +0.086 C 
ATOM     17  N   UNL     1       0.746  -0.488   1.173  0.00  0.00    -0.333 N 
ATOM     18  C   UNL     1       2.126   0.018   1.163  0.00  0.00    +0.086 C 
ATOM     19  C   UNL     1       2.105   1.549   1.171  0.00  0.00    -0.058 C 
ATOM     20  N   UNL     1       1.373   2.022  -0.023  0.00  0.00    +0.391 N 
ATOM     21  H   UNL     1       1.837   1.659  -0.864  0.00  0.00    -0.080 HD
BRANCH  17  22
ATOM     22  C   UNL     1       0.725  -1.883   1.238  0.00  0.00    +0.030 A 
ATOM     23  C   UNL     1       0.051  -2.615   0.270  0.00  0.00    +0.023 A 
ATOM     24  C   UNL     1       0.036  -3.994   0.334  0.00  0.00    +0.002 A 
ATOM     25  C   UNL     1       0.683  -4.646   1.368  0.00  0.00    +0.000 A 
ATOM     26  C   UNL     1       1.351  -3.921   2.337  0.00  0.00    +0.002 A 
ATOM     27  C   UNL     1       1.374  -2.541   2.276  0.00  0.00    +0.023 A 
ENDBRANCH  17  22
ENDBRANCH   1  20
BRANCH   1  28
ATOM     28  C   UNL     1       0.802   3.950  -1.385  0.00  0.00    +0.143 A 
ATOM     29  N   UNL     1       1.069   3.454  -2.568  0.00  0.00    -0.115 NA
ATOM     30  N   UNL     1       0.374   4.103  -3.437  0.00  0.00    -0.023 NA
ATOM     31  N   UNL     1      -0.322   5.006  -2.840  0.00  0.00    -0.044 NA
ATOM     32  N   UNL     1      -0.086   4.943  -1.573  0.00  0.00    -0.228 N 
BRANCH  32  33
ATOM     33  C   UNL     1      -0.674   5.793  -0.535  0.00  0.00    +0.178 C 
BRANCH  33  34
ATOM     34  C   UNL     1       0.205   7.029  -0.329  0.00  0.00    +0.140 C 
ATOM     35  C   UNL     1      -0.344   7.872   0.842  0.00  0.00    +0.035 C 
ATOM     36  C   UNL     1      -0.140   9.323   0.326  0.00  0.00    +0.031 C 
ATOM     37  C   UNL     1      -0.385   9.133  -1.192  0.00  0.00    +0.160 C 
ATOM     38  O   UNL     1       0.175   7.847  -1.504  0.00  0.00    -0.375 OA
ENDBRANCH  33  34
ENDBRANCH  32  33
ENDBRANCH   1  28
TORSDOF 6
