REMARK  Name = ZINC40951421
REMARK  1 active torsions:
REMARK  status: ('A' for Active; 'I' for Inactive)
REMARK    1  A    between atoms: C_5  and  C_7
REMARK                            x       y       z     vdW  Elec       q    Type
REMARK                         _______ _______ _______ _____ _____    ______ ____
ROOT
ATOM      1  C   UNL     1       1.266  -2.145  -0.041  0.00  0.00    +0.098 A 
ATOM      2  C   UNL     1       2.463  -2.805  -0.050  0.00  0.00    +0.078 A 
ATOM      3  S   UNL     1       1.907  -4.505  -0.047  0.00  0.00    -0.060 S 
ATOM      4  C   UNL     1       0.152  -4.167  -0.034  0.00  0.00    +0.164 A 
ATOM      5  N   UNL     1       0.136  -2.848  -0.027  0.00  0.00    -0.223 NA
ATOM      6  N   UNL     1      -0.912  -5.057  -0.027  0.00  0.00    -0.279 N 
ATOM      7  C   UNL     1      -0.676  -6.424  -0.141  0.00  0.00    +0.124 A 
ATOM      8  C   UNL     1      -1.750  -7.302  -0.245  0.00  0.00    +0.045 A 
ATOM      9  C   UNL     1      -1.502  -8.658  -0.358  0.00  0.00    +0.019 A 
ATOM     10  C   UNL     1      -0.183  -9.092  -0.363  0.00  0.00    +0.032 A 
ATOM     11  C   UNL     1       0.835  -8.165  -0.256  0.00  0.00    +0.127 A 
ATOM     12  N   UNL     1       0.568  -6.876  -0.155  0.00  0.00    -0.239 NA
ATOM     13  I   UNL     1       0.259 -11.133  -0.530  0.00  0.00    -0.042 I 
ATOM     14  H   UNL     1      -1.820  -4.727   0.057  0.00  0.00    +0.155 HD
ENDROOT
BRANCH   1  19
ATOM     15  C   UNL     1      -0.020   1.379  -0.024  0.00  0.00    +0.004 A 
ATOM     16  C   UNL     1       1.191   2.060  -0.037  0.00  0.00    +0.020 A 
ATOM     17  C   UNL     1       2.372   1.342  -0.052  0.00  0.00    +0.111 A 
ATOM     18  N   UNL     1       2.363   0.024  -0.052  0.00  0.00    -0.253 NA
ATOM     19  C   UNL     1       1.228  -0.664  -0.039  0.00  0.00    +0.090 A 
ATOM     20  C   UNL     1      -0.000  -0.004  -0.025  0.00  0.00    +0.030 A 
ENDBRANCH   1  19
TORSDOF 1
