REMARK  Name = ZINC58951799
REMARK  8 active torsions:
REMARK  status: ('A' for Active; 'I' for Inactive)
REMARK    1  A    between atoms: C_1  and  C_2
REMARK    2  A    between atoms: C_2  and  C_4
REMARK    3  A    between atoms: C_2  and  C_14
REMARK    4  A    between atoms: C_7  and  C_10
REMARK    5  A    between atoms: C_10  and  C_11
REMARK    6  A    between atoms: C_11  and  C_12
REMARK    7  A    between atoms: C_11  and  C_13
REMARK    8  A    between atoms: N_16  and  N_17
REMARK                            x       y       z     vdW  Elec       q    Type
REMARK                         _______ _______ _______ _____ _____    ______ ____
ROOT
ATOM      1  C   UNL     1      -1.412  -0.526   0.013  0.00  0.00    +0.239 C 
ATOM      2  O   UNL     1      -1.790  -1.233   0.922  0.00  0.00    -0.273 OA
ATOM      3  N   UNL     1      -2.256  -0.206  -0.988  0.00  0.00    -0.206 N 
ATOM      4  H   UNL     1      -1.953   0.360  -1.716  0.00  0.00    +0.177 HD
ENDROOT
BRANCH   3   5
ATOM      5  N   UNL     1      -3.570  -0.691  -0.978  0.00  0.00    -0.175 NA
ATOM      6  C   UNL     1      -4.391  -0.380  -1.952  0.00  0.00    +0.153 C 
ATOM      7  C   UNL     1      -5.805  -0.792  -2.106  0.00  0.00    +0.029 A 
ATOM      8  C   UNL     1      -6.658  -1.576  -1.336  0.00  0.00    +0.027 A 
ATOM      9  C   UNL     1      -7.958  -1.784  -1.751  0.00  0.00    +0.019 A 
ATOM     10  C   UNL     1      -8.410  -1.213  -2.930  0.00  0.00    +0.017 A 
ATOM     11  C   UNL     1      -7.571  -0.434  -3.700  0.00  0.00    +0.025 A 
ATOM     12  C   UNL     1      -6.258  -0.213  -3.298  0.00  0.00    +0.043 A 
ATOM     13  N   UNL     1      -5.226   0.517  -3.877  0.00  0.00    -0.280 N 
ATOM     14  C   UNL     1      -4.108   0.463  -3.132  0.00  0.00    +0.269 C 
ATOM     15  O   UNL     1      -3.051   1.008  -3.386  0.00  0.00    -0.268 OA
ATOM     16 BR   UNL     1      -9.123  -2.849  -0.710  0.00  0.00    -0.050 Br
ATOM     17  H   UNL     1      -5.303   1.007  -4.710  0.00  0.00    +0.155 HD
ENDBRANCH   3   5
BRANCH   1  19
ATOM     18  C   UNL     1      -0.019   1.526   0.010  0.00  0.00    +0.022 C 
ATOM     19  C   UNL     1       0.002  -0.004   0.002  0.00  0.00    +0.103 C 
BRANCH  19  20
ATOM     20  C   UNL     1       0.731  -0.503   1.223  0.00  0.00    -0.036 A 
ATOM     21  C   UNL     1       0.263  -0.187   2.485  0.00  0.00    +0.004 A 
ATOM     22  C   UNL     1       0.931  -0.645   3.605  0.00  0.00    +0.004 A 
ATOM     23  C   UNL     1       2.068  -1.419   3.463  0.00  0.00    -0.047 A 
ATOM     24  C   UNL     1       2.535  -1.736   2.201  0.00  0.00    +0.004 A 
ATOM     25  C   UNL     1       1.864  -1.282   1.081  0.00  0.00    +0.004 A 
BRANCH  23  26
ATOM     26  C   UNL     1       2.797  -1.918   4.684  0.00  0.00    +0.038 C 
BRANCH  26  27
ATOM     27  C   UNL     1       2.232  -3.279   5.096  0.00  0.00    -0.013 C 
ATOM     28  C   UNL     1       2.526  -4.306   4.001  0.00  0.00    +0.007 C 
ATOM     29  C   UNL     1       2.885  -3.727   6.405  0.00  0.00    +0.007 C 
ENDBRANCH  26  27
ENDBRANCH  23  26
ENDBRANCH  19  20
ENDBRANCH   1  19
TORSDOF 5
