REMARK  Name = ZINC15219555
REMARK  6 active torsions:
REMARK  status: ('A' for Active; 'I' for Inactive)
REMARK    1  A    between atoms: C_1  and  N_2
REMARK    2  A    between atoms: N_2  and  C_3
REMARK    3  A    between atoms: N_2  and  C_4
REMARK    4  A    between atoms: C_7  and  C_10
REMARK    5  A    between atoms: C_15  and  C_17
REMARK    6  A    between atoms: C_23  and  C_25
REMARK                            x       y       z     vdW  Elec       q    Type
REMARK                         _______ _______ _______ _____ _____    ______ ____
ROOT
ATOM      1  C   UNL     1      -3.259  -2.264   5.065  0.00  0.00    +0.041 C 
ATOM      2  C   UNL     1      -4.019  -1.537   5.959  0.00  0.00    +0.129 C 
ATOM      3  C   UNL     1      -4.014  -0.076   6.143  0.00  0.00    +0.277 C 
ATOM      4  O   UNL     1      -3.341   0.740   5.540  0.00  0.00    -0.267 OA
ATOM      5  N   UNL     1      -4.914   0.168   7.121  0.00  0.00    -0.184 N 
ATOM      6  C   UNL     1      -5.447  -1.038   7.526  0.00  0.00    +0.143 C 
ATOM      7  N   UNL     1      -4.929  -2.027   6.847  0.00  0.00    -0.226 NA
ATOM      8  C   UNL     1      -5.235   1.380   7.615  0.00  0.00    +0.252 C 
ATOM      9  O   UNL     1      -5.997   1.469   8.558  0.00  0.00    -0.270 OA
ENDROOT
BRANCH   8  10
ATOM     10  C   UNL     1      -4.665   2.593   7.014  0.00  0.00    +0.082 C 
ATOM     11  C   UNL     1      -4.877   3.804   7.595  0.00  0.00    +0.051 C 
ATOM     12  C   UNL     1      -4.553   5.136   7.044  0.00  0.00    +0.011 A 
ATOM     13  C   UNL     1      -3.974   5.556   5.849  0.00  0.00    +0.050 A 
ATOM     14  C   UNL     1      -3.798   6.906   5.610  0.00  0.00    +0.142 A 
ATOM     15  C   UNL     1      -4.196   7.836   6.560  0.00  0.00    +0.078 A 
ATOM     16  C   UNL     1      -4.771   7.426   7.749  0.00  0.00    +0.046 A 
ATOM     17  C   UNL     1      -4.957   6.074   8.005  0.00  0.00    +0.043 A 
ATOM     18  N   UNL     1      -5.502   5.409   9.101  0.00  0.00    -0.281 N 
ATOM     19  C   UNL     1      -5.491   4.077   8.922  0.00  0.00    +0.249 C 
ATOM     20  O   UNL     1      -5.905   3.245   9.705  0.00  0.00    -0.270 OA
ATOM     21 CL   UNL     1      -3.970   9.530   6.253  0.00  0.00    -0.081 Cl
ATOM     22  F   UNL     1      -3.237   7.320   4.453  0.00  0.00    -0.204 F 
ATOM     23  H   UNL     1      -5.851   5.851   9.891  0.00  0.00    +0.155 HD
ENDBRANCH   8  10
BRANCH   1  27
ATOM     24  C   UNL     1      -0.202  -0.359   2.853  0.00  0.00    +0.029 A 
ATOM     25  C   UNL     1      -0.371  -0.059   4.203  0.00  0.00    +0.023 A 
ATOM     26  C   UNL     1      -1.361  -0.667   4.920  0.00  0.00    +0.010 A 
ATOM     27  C   UNL     1      -2.201  -1.604   4.299  0.00  0.00    -0.023 A 
ATOM     28  C   UNL     1      -2.022  -1.906   2.941  0.00  0.00    +0.010 A 
ATOM     29  C   UNL     1      -1.033  -1.288   2.231  0.00  0.00    +0.023 A 
BRANCH  24  31
ATOM     30  C   UNL     1       0.906   0.050   0.680  0.00  0.00    +0.129 C 
ATOM     31  N   UNL     1       0.804   0.266   2.125  0.00  0.00    -0.336 N 
ATOM     32  C   UNL     1       1.762   1.143   2.804  0.00  0.00    +0.129 C 
ENDBRANCH  24  31
ENDBRANCH   1  27
BRANCH   6  33
ATOM     33  C   UNL     1      -6.468  -1.191   8.581  0.00  0.00    +0.016 A 
ATOM     34  C   UNL     1      -6.275  -0.605   9.834  0.00  0.00    +0.011 A 
ATOM     35  C   UNL     1      -7.236  -0.748  10.814  0.00  0.00    +0.001 A 
ATOM     36  C   UNL     1      -8.384  -1.477  10.561  0.00  0.00    +0.000 A 
ATOM     37  C   UNL     1      -8.579  -2.065   9.323  0.00  0.00    +0.001 A 
ATOM     38  C   UNL     1      -7.629  -1.926   8.333  0.00  0.00    +0.011 A 
ENDBRANCH   6  33
TORSDOF 4
