REMARK  Name = ZINC58915810
REMARK  8 active torsions:
REMARK  status: ('A' for Active; 'I' for Inactive)
REMARK    1  A    between atoms: C_1  and  C_2
REMARK    2  A    between atoms: C_2  and  C_4
REMARK    3  A    between atoms: C_2  and  S_24
REMARK    4  A    between atoms: N_6  and  N_7
REMARK    5  A    between atoms: C_8  and  C_9
REMARK    6  A    between atoms: C_11  and  N_21
REMARK    7  A    between atoms: C_14  and  N_15
REMARK    8  A    between atoms: S_24  and  C_25
REMARK                            x       y       z     vdW  Elec       q    Type
REMARK                         _______ _______ _______ _____ _____    ______ ____
ROOT
ATOM      1  N   UNL     1       1.088  -1.178   3.437  0.00  0.00    -0.188 NA
ATOM      2  C   UNL     1       0.562  -1.319   4.615  0.00  0.00    +0.140 C 
ENDROOT
BRANCH   2   3
ATOM      3  C   UNL     1       1.375  -1.837   5.729  0.00  0.00    +0.018 A 
ATOM      4  C   UNL     1       0.811  -1.996   6.996  0.00  0.00    +0.044 A 
ATOM      5  C   UNL     1       1.578  -2.481   8.034  0.00  0.00    +0.127 A 
ATOM      6  C   UNL     1       2.907  -2.811   7.827  0.00  0.00    +0.034 A 
ATOM      7  C   UNL     1       3.479  -2.659   6.579  0.00  0.00    +0.026 A 
ATOM      8  C   UNL     1       2.720  -2.179   5.521  0.00  0.00    +0.039 A 
BRANCH   8   9
ATOM      9  N   UNL     1       3.293  -2.030   4.259  0.00  0.00    -0.325 N 
ATOM     10  C   UNL     1       3.955  -0.775   3.870  0.00  0.00    +0.133 C 
ATOM     11  C   UNL     1       5.342  -1.112   3.311  0.00  0.00    +0.178 C 
ATOM     12  O   UNL     1       5.208  -2.103   2.288  0.00  0.00    -0.377 OA
ATOM     13  C   UNL     1       4.676  -3.348   2.746  0.00  0.00    +0.178 C 
ATOM     14  C   UNL     1       3.260  -3.127   3.279  0.00  0.00    +0.133 C 
ENDBRANCH   8   9
BRANCH   5  15
ATOM     15  N   UNL     1       0.979  -2.649   9.377  0.00  0.00    +0.056 N 
ATOM     16  O   UNL     1      -0.181  -2.361   9.562  0.00  0.00    -0.126 OA
ATOM     17  O   UNL     1       1.649  -3.074  10.290  0.00  0.00    -0.126 OA
ENDBRANCH   5  15
ENDBRANCH   2   3
BRANCH   1  20
ATOM     18  C   UNL     1       0.862  -0.538   1.155  0.00  0.00    +0.245 C 
ATOM     19  O   UNL     1       2.024  -0.833   0.971  0.00  0.00    -0.273 OA
ATOM     20  N   UNL     1       0.315  -0.685   2.378  0.00  0.00    -0.206 N 
ATOM     21  H   UNL     1      -0.615  -0.450   2.525  0.00  0.00    +0.177 HD
BRANCH  18  23
ATOM     22  C   UNL     1       0.041   1.521   0.044  0.00  0.00    +0.029 C 
ATOM     23  C   UNL     1       0.029  -0.009   0.016  0.00  0.00    +0.136 C 
BRANCH  23  24
ATOM     24  S   UNL     1       0.718  -0.591  -1.558  0.00  0.00    -0.113 S 
BRANCH  24  25
ATOM     25  C   UNL     1       0.405  -2.325  -1.546  0.00  0.00    +0.009 A 
ATOM     26  C   UNL     1      -0.355  -2.887  -0.528  0.00  0.00    +0.016 A 
ATOM     27  C   UNL     1      -0.598  -4.247  -0.520  0.00  0.00    +0.021 A 
ATOM     28  C   UNL     1      -0.086  -5.048  -1.526  0.00  0.00    +0.041 A 
ATOM     29  C   UNL     1       0.672  -4.490  -2.541  0.00  0.00    +0.021 A 
ATOM     30  C   UNL     1       0.914  -3.131  -2.556  0.00  0.00    +0.016 A 
ATOM     31 CL   UNL     1      -0.393  -6.757  -1.513  0.00  0.00    -0.084 Cl
ENDBRANCH  24  25
ENDBRANCH  23  24
ENDBRANCH  18  23
ENDBRANCH   1  20
TORSDOF 7
