REMARK  Name = ZINC36484963
REMARK  16 active torsions:
REMARK  status: ('A' for Active; 'I' for Inactive)
REMARK    1  A    between atoms: C_1  and  C_2
REMARK    2  A    between atoms: C_3  and  C_4
REMARK    3  A    between atoms: C_4  and  C_6
REMARK    4  A    between atoms: C_4  and  N_17
REMARK    5  A    between atoms: N_8  and  C_9
REMARK    6  A    between atoms: C_9  and  C_10
REMARK    7  A    between atoms: C_9  and  C_11
REMARK    8  A    between atoms: C_9  and  C_12
REMARK    9  A    between atoms: C_12  and  C_13
REMARK   10  A    between atoms: C_13  and  C_14
REMARK   11  A    between atoms: C_13  and  C_15
REMARK   12  A    between atoms: C_13  and  C_16
REMARK   13  A    between atoms: N_17  and  C_18
REMARK   14  A    between atoms: C_25  and  C_27
REMARK   15  A    between atoms: C_28  and  O_34
REMARK   16  A    between atoms: C_32  and  O_33
REMARK                            x       y       z     vdW  Elec       q    Type
REMARK                         _______ _______ _______ _____ _____    ______ ____
ROOT
ATOM      1  N   UNL     1       0.080  -3.874   1.651  0.00  0.00    -0.252 N 
ATOM      2  C   UNL     1       0.923  -4.281   0.681  0.00  0.00    +0.259 C 
ATOM      3  O   UNL     1       0.853  -3.792  -0.430  0.00  0.00    -0.269 OA
ENDROOT
BRANCH   1   4
ATOM      4  C   UNL     1       0.240  -4.342   2.959  0.00  0.00    +0.039 A 
ATOM      5  C   UNL     1      -0.745  -4.104   3.909  0.00  0.00    +0.023 A 
ATOM      6  C   UNL     1      -0.584  -4.567   5.200  0.00  0.00    +0.003 A 
ATOM      7  C   UNL     1       0.556  -5.268   5.548  0.00  0.00    +0.020 A 
ATOM      8  C   UNL     1       1.540  -5.506   4.605  0.00  0.00    +0.043 A 
ATOM      9  C   UNL     1       1.382  -5.050   3.309  0.00  0.00    +0.043 A 
ATOM     10 CL   UNL     1       2.971  -6.385   5.046  0.00  0.00    -0.083 Cl
ENDBRANCH   1   4
BRANCH   2  11
ATOM     11  C   UNL     1       1.929  -5.317   0.968  0.00  0.00    +0.120 A 
ATOM     12  C   UNL     1       1.583  -6.675   0.900  0.00  0.00    +0.133 A 
ATOM     13  C   UNL     1       2.537  -7.642   1.171  0.00  0.00    +0.046 A 
ATOM     14  C   UNL     1       3.826  -7.273   1.507  0.00  0.00    +0.007 A 
ATOM     15  C   UNL     1       4.178  -5.938   1.576  0.00  0.00    +0.046 A 
ATOM     16  C   UNL     1       3.241  -4.954   1.304  0.00  0.00    +0.133 A 
BRANCH  16  17
ATOM     17  O   UNL     1       3.590  -3.645   1.367  0.00  0.00    -0.506 OA
ATOM     18  H   UNL     1       3.467  -3.247   2.240  0.00  0.00    +0.292 HD
ENDBRANCH  16  17
BRANCH  12  19
ATOM     19  O   UNL     1       0.318  -7.040   0.572  0.00  0.00    -0.506 OA
ATOM     20  H   UNL     1       0.177  -7.161  -0.377  0.00  0.00    +0.292 HD
ENDBRANCH  12  19
ENDBRANCH   2  11
BRANCH   1  21
ATOM     21  C   UNL     1      -1.005  -2.942   1.334  0.00  0.00    +0.190 C 
BRANCH  21  22
ATOM     22  C   UNL     1      -2.330  -3.584   1.656  0.00  0.00    +0.238 C 
ATOM     23  O   UNL     1      -2.364  -4.710   2.106  0.00  0.00    -0.273 OA
ATOM     24  N   UNL     1      -3.476  -2.908   1.445  0.00  0.00    -0.308 N 
ATOM     25  H   UNL     1      -3.449  -2.007   1.085  0.00  0.00    +0.149 HD
BRANCH  24  26
ATOM     26  C   UNL     1      -4.764  -3.532   1.758  0.00  0.00    +0.030 C 
ATOM     27  C   UNL     1      -5.197  -4.420   0.590  0.00  0.00    +0.031 C 
ATOM     28  C   UNL     1      -4.623  -4.384   3.021  0.00  0.00    +0.031 C 
BRANCH  26  29
ATOM     29  C   UNL     1      -5.815  -2.445   1.990  0.00  0.00    +0.031 C 
BRANCH  29  30
ATOM     30  C   UNL     1      -5.225  -1.346   2.876  0.00  0.00    -0.036 C 
ATOM     31  C   UNL     1      -4.437  -0.361   2.010  0.00  0.00    +0.010 C 
ATOM     32  C   UNL     1      -6.357  -0.604   3.590  0.00  0.00    +0.010 C 
ATOM     33  C   UNL     1      -4.292  -1.973   3.913  0.00  0.00    +0.010 C 
ENDBRANCH  29  30
ENDBRANCH  26  29
ENDBRANCH  24  26
ENDBRANCH  21  22
BRANCH  21  36
ATOM     34  C   UNL     1       0.374  -0.276   3.731  0.00  0.00    +0.035 C 
ATOM     35  C   UNL     1       0.212  -1.531   2.912  0.00  0.00    -0.032 C 
ATOM     36  C   UNL     1      -0.844  -1.687   2.152  0.00  0.00    +0.000 C 
ENDBRANCH  21  36
ENDBRANCH   1  21
TORSDOF 10
