REMARK  Name = ZINC22679818
REMARK  8 active torsions:
REMARK  status: ('A' for Active; 'I' for Inactive)
REMARK    1  A    between atoms: C_4  and  C_7
REMARK    2  A    between atoms: C_7  and  C_8
REMARK    3  A    between atoms: C_8  and  C_9
REMARK    4  A    between atoms: C_9  and  N_10
REMARK    5  A    between atoms: N_13  and  C_14
REMARK    6  A    between atoms: C_14  and  C_15
REMARK    7  A    between atoms: C_15  and  C_17
REMARK    8  A    between atoms: C_15  and  N_22
REMARK                            x       y       z     vdW  Elec       q    Type
REMARK                         _______ _______ _______ _____ _____    ______ ____
ROOT
ATOM      1  C   UNL     1      -0.763   2.249   1.134  0.00  0.00    +0.129 C 
ENDROOT
BRANCH   1   5
ATOM      2  N   UNL     1      -4.082   1.481   2.519  0.00  0.00    -0.299 N 
ATOM      3  C   UNL     1      -2.878   2.058   2.328  0.00  0.00    +0.300 C 
ATOM      4  O   UNL     1      -2.522   2.972   3.046  0.00  0.00    -0.253 OA
ATOM      5  N   UNL     1      -2.071   1.622   1.341  0.00  0.00    -0.298 N 
ATOM      6  H   UNL     1      -4.404   0.655   1.869  0.00  0.00    +0.150 HD
ATOM      7  H   UNL     1      -2.393   0.795   0.691  0.00  0.00    +0.150 HD
BRANCH   2   8
ATOM      8  C   UNL     1      -4.960   1.956   3.591  0.00  0.00    +0.106 C 
BRANCH   8   9
ATOM      9  C   UNL     1      -6.253   1.138   3.591  0.00  0.00    +0.023 C 
BRANCH   9  10
ATOM     10  C   UNL     1      -7.170   1.633   4.711  0.00  0.00    +0.036 C 
BRANCH  10  14
ATOM     11  C   UNL     1     -10.781  -0.648   4.709  0.00  0.00    +0.000 A 
ATOM     12  C   UNL     1      -9.700  -1.065   5.463  0.00  0.00    +0.000 A 
ATOM     13  C   UNL     1      -8.531  -0.327   5.464  0.00  0.00    +0.003 A 
ATOM     14  C   UNL     1      -8.444   0.828   4.710  0.00  0.00    -0.047 A 
ATOM     15  C   UNL     1      -9.526   1.248   3.960  0.00  0.00    +0.003 A 
ATOM     16  C   UNL     1     -10.693   0.507   3.956  0.00  0.00    +0.000 A 
ENDBRANCH  10  14
ENDBRANCH   9  10
ENDBRANCH   8   9
ENDBRANCH   2   8
ENDBRANCH   1   5
BRANCH   1  17
ATOM     17  C   UNL     1       0.018   1.464   0.078  0.00  0.00    +0.105 C 
BRANCH  17  18
ATOM     18  N   UNL     1       0.257   0.097   0.562  0.00  0.00    -0.289 NA
ATOM     19  C   UNL     1      -0.853  -0.795   0.192  0.00  0.00    +0.090 C 
ATOM     20  C   UNL     1      -0.397  -2.242   0.386  0.00  0.00    +0.051 C 
ATOM     21  C   UNL     1       0.201  -2.413   1.758  0.00  0.00    -0.042 A 
ATOM     22  C   UNL     1       0.348  -3.698   2.260  0.00  0.00    +0.004 A 
ATOM     23  C   UNL     1       0.899  -3.900   3.509  0.00  0.00    +0.000 A 
ATOM     24  C   UNL     1       1.307  -2.816   4.264  0.00  0.00    +0.000 A 
ATOM     25  C   UNL     1       1.159  -1.537   3.767  0.00  0.00    +0.005 A 
ATOM     26  C   UNL     1       0.604  -1.332   2.512  0.00  0.00    -0.030 A 
ATOM     27  C   UNL     1       0.459   0.082   2.014  0.00  0.00    +0.120 C 
ENDBRANCH  17  18
BRANCH  17  28
ATOM     28  C   UNL     1       1.337   2.143  -0.180  0.00  0.00    -0.022 A 
ATOM     29  C   UNL     1       1.424   3.188  -1.081  0.00  0.00    +0.013 A 
ATOM     30  C   UNL     1       2.626   3.778  -1.290  0.00  0.00    +0.045 A 
ATOM     31  S   UNL     1       3.688   2.851  -0.194  0.00  0.00    -0.105 S 
ATOM     32  C   UNL     1       2.456   1.744   0.472  0.00  0.00    +0.050 A 
ENDBRANCH  17  28
ENDBRANCH   1  17
TORSDOF 8
