REMARK  Name = ZINC57156528
REMARK  11 active torsions:
REMARK  status: ('A' for Active; 'I' for Inactive)
REMARK    1  A    between atoms: C_1  and  C_2
REMARK    2  A    between atoms: C_2  and  N_3
REMARK    3  A    between atoms: N_3  and  C_4
REMARK    4  A    between atoms: N_3  and  C_6
REMARK    5  A    between atoms: C_4  and  C_5
REMARK    6  A    between atoms: C_6  and  C_7
REMARK    7  A    between atoms: C_7  and  C_8
REMARK    8  A    between atoms: C_8  and  C_9
REMARK    9  A    between atoms: C_9  and  C_10
REMARK   10  A    between atoms: C_9  and  N_11
REMARK   11  A    between atoms: C_12  and  C_14
REMARK                            x       y       z     vdW  Elec       q    Type
REMARK                         _______ _______ _______ _____ _____    ______ ____
ROOT
ATOM      1  N   UNL     1      -3.536  -3.614  -0.664  0.00  0.00    -0.312 N 
ATOM      2  C   UNL     1      -4.842  -3.283  -0.624  0.00  0.00    +0.219 C 
ATOM      3  O   UNL     1      -5.486  -3.230  -1.651  0.00  0.00    -0.275 OA
ATOM      4  H   UNL     1      -3.021  -3.657   0.157  0.00  0.00    +0.149 HD
ENDROOT
BRANCH   2   5
ATOM      5  C   UNL     1      -5.502  -2.978   0.696  0.00  0.00    +0.049 C 
ATOM      6  C   UNL     1      -5.403  -4.201   1.610  0.00  0.00    +0.019 C 
ATOM      7  C   UNL     1      -6.073  -3.892   2.950  0.00  0.00    -0.008 C 
ATOM      8  C   UNL     1      -7.545  -3.548   2.717  0.00  0.00    +0.007 C 
ATOM      9  C   UNL     1      -7.645  -2.325   1.803  0.00  0.00    -0.008 C 
ATOM     10  C   UNL     1      -6.974  -2.634   0.463  0.00  0.00    +0.019 C 
ATOM     11  C   UNL     1      -6.941  -1.137   2.462  0.00  0.00    +0.021 C 
ATOM     12  C   UNL     1      -5.469  -1.481   2.696  0.00  0.00    +0.028 C 
ATOM     13  C   UNL     1      -5.370  -2.704   3.610  0.00  0.00    +0.021 C 
ATOM     14  C   UNL     1      -4.799  -1.790   1.356  0.00  0.00    +0.034 C 
ATOM     15 BR   UNL     1      -4.566   0.045   3.543  0.00  0.00    -0.084 Br
ENDBRANCH   2   5
BRANCH   1  16
ATOM     16  C   UNL     1      -2.895  -3.910  -1.948  0.00  0.00    +0.070 C 
ATOM     17  C   UNL     1      -3.128  -5.379  -2.307  0.00  0.00    +0.028 C 
BRANCH  16  18
ATOM     18  C   UNL     1      -1.392  -3.644  -1.840  0.00  0.00    +0.020 C 
BRANCH  18  19
ATOM     19  C   UNL     1      -1.155  -2.151  -1.603  0.00  0.00    -0.017 C 
BRANCH  19  20
ATOM     20  C   UNL     1       0.348  -1.884  -1.496  0.00  0.00    -0.079 C 
BRANCH  20  21
ATOM     21  N   UNL     1       0.576  -0.451  -1.269  0.00  0.00    +0.379 N 
ATOM     22  H   UNL     1       0.124   0.081  -1.998  0.00  0.00    -0.082 HD
BRANCH  21  24
ATOM     23  C   UNL     1       0.128   1.449   0.210  0.00  0.00    -0.017 C 
ATOM     24  C   UNL     1       0.019  -0.067   0.035  0.00  0.00    -0.082 C 
ENDBRANCH  21  24
BRANCH  21  25
ATOM     25  C   UNL     1       2.019  -0.176  -1.285  0.00  0.00    -0.082 C 
ATOM     26  C   UNL     1       2.573  -0.440  -2.687  0.00  0.00    -0.017 C 
ENDBRANCH  21  25
ENDBRANCH  20  21
ENDBRANCH  19  20
ENDBRANCH  18  19
ENDBRANCH  16  18
ENDBRANCH   1  16
TORSDOF 8
