REMARK  Name = ZINC20017744
REMARK  4 active torsions:
REMARK  status: ('A' for Active; 'I' for Inactive)
REMARK    1  A    between atoms: C_3  and  S_11
REMARK    2  A    between atoms: C_6  and  C_7
REMARK    3  A    between atoms: S_11  and  N_14
REMARK    4  A    between atoms: N_14  and  C_15
REMARK                            x       y       z     vdW  Elec       q    Type
REMARK                         _______ _______ _______ _____ _____    ______ ____
ROOT
ATOM      1  S   UNL     1       2.357   5.240  -0.982  0.00  0.00    +0.073 S 
ATOM      2  O   UNL     1       3.629   5.868  -0.913  0.00  0.00    -0.150 OA
ATOM      3  O   UNL     1       1.814   4.751  -2.201  0.00  0.00    -0.150 OA
ENDROOT
BRANCH   1   6
ATOM      4  C   UNL     1       0.704   8.553   0.572  0.00  0.00    +0.017 A 
ATOM      5  C   UNL     1       1.612   7.646   0.067  0.00  0.00    +0.031 A 
ATOM      6  C   UNL     1       1.190   6.392  -0.338  0.00  0.00    +0.122 A 
ATOM      7  C   UNL     1      -0.146   6.040  -0.243  0.00  0.00    +0.045 A 
ATOM      8  C   UNL     1      -1.064   6.937   0.266  0.00  0.00    +0.032 A 
ATOM      9  C   UNL     1      -0.644   8.204   0.675  0.00  0.00    +0.064 A 
ATOM     10 BR   UNL     1      -0.713   4.327  -0.806  0.00  0.00    -0.048 Br
BRANCH   9  11
ATOM     11  C   UNL     1      -1.622   9.171   1.215  0.00  0.00    +0.387 C 
ATOM     12  O   UNL     1      -1.254  10.273   1.571  0.00  0.00    -0.241 OA
ATOM     13  O   UNL     1      -2.922   8.831   1.313  0.00  0.00    -0.241 OA
ENDBRANCH   9  11
ENDBRANCH   1   6
BRANCH   1  14
ATOM     14  N   UNL     1       2.405   3.956   0.062  0.00  0.00    -0.216 N 
ATOM     15  H   UNL     1       2.123   2.952  -0.287  0.00  0.00    +0.174 HD
BRANCH  14  16
ATOM     16  C   UNL     1       2.803   4.147   1.382  0.00  0.00    +0.051 A 
ATOM     17  C   UNL     1       2.080   3.589   2.436  0.00  0.00    +0.042 A 
ATOM     18  C   UNL     1       2.508   3.801   3.729  0.00  0.00    +0.084 A 
ATOM     19  N   UNL     1       3.583   4.527   3.976  0.00  0.00    -0.367 N 
ATOM     20  C   UNL     1       4.298   5.067   3.006  0.00  0.00    +0.084 A 
ATOM     21  C   UNL     1       3.936   4.902   1.685  0.00  0.00    +0.042 A 
ATOM     22  H   UNL     1       3.907   4.695   5.013  0.00  0.00    +0.165 HD
ENDBRANCH  14  16
ENDBRANCH   1  14
TORSDOF 4
