REMARK  Name = ZINC39846943
REMARK  5 active torsions:
REMARK  status: ('A' for Active; 'I' for Inactive)
REMARK    1  A    between atoms: C_1  and  C_2
REMARK    2  A    between atoms: C_2  and  C_3
REMARK    3  A    between atoms: C_6  and  C_9
REMARK    4  A    between atoms: C_9  and  C_10
REMARK    5  A    between atoms: C_16  and  C_18
REMARK                            x       y       z     vdW  Elec       q    Type
REMARK                         _______ _______ _______ _____ _____    ______ ____
ROOT
ATOM      1  C   UNL     1      -6.383  -0.846   0.053  0.00  0.00    +0.015 A 
ATOM      2  C   UNL     1      -6.949  -0.183  -0.986  0.00  0.00    +0.124 A 
ATOM      3  N   UNL     1      -7.769   0.807  -0.689  0.00  0.00    -0.233 NA
ATOM      4  C   UNL     1      -8.021   1.131   0.560  0.00  0.00    +0.165 A 
ATOM      5  S   UNL     1      -7.100   0.026   1.435  0.00  0.00    -0.057 S 
ATOM      6  N   UNL     1      -8.851   2.137   1.042  0.00  0.00    -0.262 N 
ATOM      7  C   UNL     1      -9.520   2.928   0.180  0.00  0.00    +0.263 C 
ATOM      8  O   UNL     1      -9.399   2.762  -1.015  0.00  0.00    -0.271 OA
ATOM      9  H   UNL     1      -8.948   2.270   1.998  0.00  0.00    +0.157 HD
ENDROOT
BRANCH   7  10
ATOM     10  C   UNL     1     -10.420   4.019   0.702  0.00  0.00    +0.296 C 
ATOM     11  C   UNL     1     -11.603   3.397   1.456  0.00  0.00    +0.283 C 
ATOM     12  O   UNL     1     -12.443   4.458   1.925  0.00  0.00    -0.484 OA
ATOM     13  C   UNL     1     -12.741   5.442   1.034  0.00  0.00    +0.162 A 
ATOM     14  C   UNL     1     -13.811   6.287   1.285  0.00  0.00    +0.049 A 
ATOM     15  C   UNL     1     -14.124   7.293   0.390  0.00  0.00    +0.004 A 
ATOM     16  C   UNL     1     -13.371   7.460  -0.757  0.00  0.00    +0.004 A 
ATOM     17  C   UNL     1     -12.304   6.620  -1.014  0.00  0.00    +0.049 A 
ATOM     18  C   UNL     1     -11.985   5.608  -0.121  0.00  0.00    +0.163 A 
ATOM     19  O   UNL     1     -10.936   4.784  -0.392  0.00  0.00    -0.473 OA
ENDBRANCH   7  10
BRANCH   1  20
ATOM     20  C   UNL     1      -5.419  -2.005   0.043  0.00  0.00    +0.079 C 
BRANCH  20  24
ATOM     21  C   UNL     1      -1.412  -0.526   0.013  0.00  0.00    -0.048 A 
ATOM     22  C   UNL     1      -2.051  -0.766   1.215  0.00  0.00    +0.004 A 
ATOM     23  C   UNL     1      -3.348  -1.244   1.225  0.00  0.00    +0.004 A 
ATOM     24  C   UNL     1      -4.006  -1.482   0.032  0.00  0.00    -0.042 A 
ATOM     25  C   UNL     1      -3.367  -1.241  -1.170  0.00  0.00    +0.004 A 
ATOM     26  C   UNL     1      -2.072  -0.758  -1.179  0.00  0.00    +0.004 A 
BRANCH  21  28
ATOM     27  C   UNL     1      -0.019   1.526   0.010  0.00  0.00    +0.009 C 
ATOM     28  C   UNL     1       0.002  -0.004   0.002  0.00  0.00    +0.032 C 
ENDBRANCH  21  28
ENDBRANCH  20  24
ENDBRANCH   1  20
TORSDOF 4
