REMARK  Name = ZINC13639091
REMARK  7 active torsions:
REMARK  status: ('A' for Active; 'I' for Inactive)
REMARK    1  A    between atoms: C_1  and  C_2
REMARK    2  A    between atoms: C_2  and  O_3
REMARK    3  A    between atoms: O_3  and  C_4
REMARK    4  A    between atoms: C_6  and  C_11
REMARK    5  A    between atoms: C_9  and  O_10
REMARK    6  A    between atoms: N_15  and  C_19
REMARK    7  A    between atoms: C_22  and  O_25
REMARK                            x       y       z     vdW  Elec       q    Type
REMARK                         _______ _______ _______ _____ _____    ______ ____
ROOT
ATOM      1  C   UNL     1      -0.106  -4.974   0.502  0.00  0.00    +0.028 C 
ATOM      2  C   UNL     1      -0.136  -6.308   0.257  0.00  0.00    +0.080 C 
ATOM      3  C   UNL     1      -0.724  -7.399   1.059  0.00  0.00    +0.265 C 
ATOM      4  O   UNL     1      -1.290  -7.183   2.115  0.00  0.00    -0.269 OA
ATOM      5  N   UNL     1      -0.605  -8.623   0.573  0.00  0.00    -0.197 N 
ATOM      6  C   UNL     1       0.023  -8.858  -0.597  0.00  0.00    +0.290 C 
ATOM      7  O   UNL     1       0.203  -9.923  -1.157  0.00  0.00    -0.262 OA
ATOM      8  S   UNL     1       0.518  -7.228  -1.130  0.00  0.00    -0.025 S 
ENDROOT
BRANCH   1  11
ATOM      9  C   UNL     1       1.209  -1.874  -1.150  0.00  0.00    +0.162 A 
ATOM     10  C   UNL     1       0.465  -2.703  -0.334  0.00  0.00    +0.057 A 
ATOM     11  C   UNL     1       0.682  -4.086  -0.363  0.00  0.00    -0.020 A 
ATOM     12  C   UNL     1       1.654  -4.620  -1.218  0.00  0.00    +0.012 A 
ATOM     13  C   UNL     1       2.392  -3.785  -2.028  0.00  0.00    +0.050 A 
ATOM     14  C   UNL     1       2.171  -2.414  -2.003  0.00  0.00    +0.158 A 
BRANCH  14  15
ATOM     15  O   UNL     1       2.898  -1.597  -2.808  0.00  0.00    -0.503 OA
ATOM     16  H   UNL     1       3.718  -1.277  -2.407  0.00  0.00    +0.292 HD
ENDBRANCH  14  15
BRANCH   9  17
ATOM     17  O   UNL     1       1.001  -0.531  -1.125  0.00  0.00    -0.489 OA
BRANCH  17  19
ATOM     18  C   UNL     1      -0.090   1.477  -0.339  0.00  0.00    +0.048 C 
ATOM     19  C   UNL     1       0.000  -0.046  -0.227  0.00  0.00    +0.226 C 
ENDBRANCH  17  19
ENDBRANCH   9  17
ENDBRANCH   1  11
BRANCH   5  20
ATOM     20  C   UNL     1      -1.145  -9.702   1.291  0.00  0.00    +0.045 A 
ATOM     21  C   UNL     1      -2.521  -9.836   1.413  0.00  0.00    +0.027 A 
ATOM     22  C   UNL     1      -3.051 -10.897   2.119  0.00  0.00    +0.047 A 
ATOM     23  C   UNL     1      -2.208 -11.829   2.707  0.00  0.00    +0.117 A 
ATOM     24  C   UNL     1      -0.833 -11.695   2.586  0.00  0.00    +0.047 A 
ATOM     25  C   UNL     1      -0.302 -10.638   1.874  0.00  0.00    +0.027 A 
BRANCH  23  26
ATOM     26  O   UNL     1      -2.731 -12.874   3.402  0.00  0.00    -0.507 OA
ATOM     27  H   UNL     1      -2.901 -13.659   2.864  0.00  0.00    +0.292 HD
ENDBRANCH  23  26
ENDBRANCH   5  20
TORSDOF 6
