REMARK  Name = ZINC28957800
REMARK  8 active torsions:
REMARK  status: ('A' for Active; 'I' for Inactive)
REMARK    1  A    between atoms: C_5  and  C_7
REMARK    2  A    between atoms: C_7  and  C_9
REMARK    3  A    between atoms: C_7  and  N_24
REMARK    4  A    between atoms: C_9  and  O_10
REMARK    5  A    between atoms: O_10  and  C_11
REMARK    6  A    between atoms: C_11  and  C_12
REMARK    7  A    between atoms: N_15  and  C_18
REMARK    8  A    between atoms: C_25  and  C_27
REMARK                            x       y       z     vdW  Elec       q    Type
REMARK                         _______ _______ _______ _____ _____    ______ ____
ROOT
ATOM      1  C   UNL     1       1.203  -2.156  -0.042  0.00  0.00    +0.130 C 
ENDROOT
BRANCH   1   6
ATOM      2  C   UNL     1      -0.078   1.395  -0.003  0.00  0.00    +0.000 A 
ATOM      3  C   UNL     1       1.103   2.115  -0.018  0.00  0.00    +0.001 A 
ATOM      4  C   UNL     1       2.316   1.453  -0.042  0.00  0.00    +0.020 A 
ATOM      5  C   UNL     1       2.349   0.070  -0.050  0.00  0.00    +0.046 A 
ATOM      6  C   UNL     1       1.167  -0.650  -0.033  0.00  0.00    -0.007 A 
ATOM      7  C   UNL     1      -0.045   0.013  -0.010  0.00  0.00    +0.007 A 
ATOM      8 CL   UNL     1       3.872  -0.762  -0.080  0.00  0.00    -0.083 Cl
ENDBRANCH   1   6
BRANCH   1   9
ATOM      9  N   UNL     1      -0.047  -2.671  -0.608  0.00  0.00    -0.302 N 
ATOM     10  C   UNL     1      -0.182  -2.795  -1.943  0.00  0.00    +0.245 C 
ATOM     11  O   UNL     1       0.734  -2.480  -2.678  0.00  0.00    -0.270 OA
ATOM     12  H   UNL     1      -0.778  -2.922  -0.021  0.00  0.00    +0.150 HD
BRANCH  10  13
ATOM     13  C   UNL     1      -1.441  -3.313  -2.513  0.00  0.00    +0.039 A 
ATOM     14  C   UNL     1      -2.497  -3.670  -1.662  0.00  0.00    +0.014 A 
ATOM     15  C   UNL     1      -3.664  -4.149  -2.175  0.00  0.00    +0.012 A 
ATOM     16  C   UNL     1      -3.813  -4.287  -3.560  0.00  0.00    +0.018 A 
ATOM     17  C   UNL     1      -2.759  -3.932  -4.425  0.00  0.00    +0.049 A 
ATOM     18  C   UNL     1      -1.576  -3.440  -3.893  0.00  0.00    +0.039 A 
ATOM     19  N   UNL     1      -3.190  -4.173  -5.711  0.00  0.00    -0.359 N 
ATOM     20  H   UNL     1      -2.666  -4.018  -6.513  0.00  0.00    +0.165 HD
ATOM     21  C   UNL     1      -4.466  -4.662  -5.689  0.00  0.00    +0.103 A 
ATOM     22  C   UNL     1      -4.900  -4.755  -4.419  0.00  0.00    +0.066 A 
ATOM     23 CL   UNL     1      -6.455  -5.324  -3.899  0.00  0.00    -0.081 Cl
ENDBRANCH  10  13
ENDBRANCH   1   9
BRANCH   1  24
ATOM     24  C   UNL     1       1.365  -2.671   1.389  0.00  0.00    +0.187 C 
BRANCH  24  25
ATOM     25  O   UNL     1       0.327  -2.130   2.210  0.00  0.00    -0.377 OA
BRANCH  25  26
ATOM     26  C   UNL     1       0.387  -2.550   3.575  0.00  0.00    +0.163 C 
BRANCH  26  27
ATOM     27  C   UNL     1      -0.765  -1.914   4.355  0.00  0.00    +0.018 C 
ATOM     28  C   UNL     1      -0.579  -0.395   4.390  0.00  0.00    +0.024 C 
ATOM     29  C   UNL     1      -1.752   0.242   5.142  0.00  0.00    +0.105 C 
ATOM     30  N   UNL     1      -1.859  -0.383   6.467  0.00  0.00    -0.330 N 
ATOM     31  C   UNL     1      -1.950  -1.847   6.553  0.00  0.00    +0.105 C 
ATOM     32  C   UNL     1      -0.775  -2.460   5.785  0.00  0.00    +0.024 C 
BRANCH  30  33
ATOM     33  C   UNL     1      -1.872   0.397   7.620  0.00  0.00    +0.032 A 
ATOM     34  C   UNL     1      -2.085  -0.180   8.872  0.00  0.00    +0.040 A 
ATOM     35  C   UNL     1      -2.090   0.627   9.989  0.00  0.00    +0.084 A 
ATOM     36  N   UNL     1      -1.897   1.929   9.885  0.00  0.00    -0.367 N 
ATOM     37  C   UNL     1      -1.693   2.513   8.719  0.00  0.00    +0.084 A 
ATOM     38  C   UNL     1      -1.667   1.775   7.554  0.00  0.00    +0.040 A 
ATOM     39  H   UNL     1      -1.906   2.473  10.688  0.00  0.00    +0.165 HD
ENDBRANCH  30  33
ENDBRANCH  26  27
ENDBRANCH  25  26
ENDBRANCH  24  25
ENDBRANCH   1  24
TORSDOF 8
