REMARK  Name = ZINC36202720
REMARK  10 active torsions:
REMARK  status: ('A' for Active; 'I' for Inactive)
REMARK    1  A    between atoms: C_3  and  C_8
REMARK    2  A    between atoms: C_8  and  C_9
REMARK    3  A    between atoms: C_8  and  C_16
REMARK    4  A    between atoms: C_8  and  O_35
REMARK    5  A    between atoms: C_19  and  C_21
REMARK    6  A    between atoms: C_21  and  N_22
REMARK    7  A    between atoms: N_22  and  C_23
REMARK    8  A    between atoms: N_22  and  C_29
REMARK    9  A    between atoms: C_23  and  C_24
REMARK   10  A    between atoms: C_29  and  C_30
REMARK                            x       y       z     vdW  Elec       q    Type
REMARK                         _______ _______ _______ _____ _____    ______ ____
ROOT
ATOM      1  C   UNL     1       5.082   3.699  -0.273  0.00  0.00    +0.146 A 
ATOM      2  C   UNL     1       5.938   4.683  -0.601  0.00  0.00    +0.048 A 
ATOM      3  C   UNL     1       6.192   4.559  -1.986  0.00  0.00    +0.043 A 
ATOM      4  C   UNL     1       5.477   3.506  -2.421  0.00  0.00    +0.089 A 
ATOM      5  O   UNL     1       4.811   2.985  -1.378  0.00  0.00    -0.463 OA
ENDROOT
BRANCH   1   6
ATOM      6  C   UNL     1       4.526   3.437   1.104  0.00  0.00    +0.174 C 
BRANCH   6   9
ATOM      7  C   UNL     1       0.806   2.883   1.432  0.00  0.00    +0.003 A 
ATOM      8  C   UNL     1       2.062   3.450   1.541  0.00  0.00    +0.007 A 
ATOM      9  C   UNL     1       3.158   2.818   0.984  0.00  0.00    -0.002 A 
ATOM     10  C   UNL     1       2.999   1.618   0.316  0.00  0.00    +0.045 A 
ATOM     11  C   UNL     1       1.741   1.049   0.206  0.00  0.00    +0.124 A 
ATOM     12  C   UNL     1       0.644   1.683   0.765  0.00  0.00    +0.038 A 
ATOM     13  F   UNL     1       1.584  -0.123  -0.447  0.00  0.00    -0.205 F 
ENDBRANCH   6   9
BRANCH   6  14
ATOM     14  C   UNL     1       5.441   2.495   1.844  0.00  0.00    -0.002 A 
ATOM     15  C   UNL     1       5.978   1.400   1.193  0.00  0.00    +0.007 A 
ATOM     16  C   UNL     1       6.817   0.535   1.871  0.00  0.00    +0.003 A 
ATOM     17  C   UNL     1       7.120   0.765   3.200  0.00  0.00    +0.038 A 
ATOM     18  C   UNL     1       6.583   1.861   3.852  0.00  0.00    +0.124 A 
ATOM     19  C   UNL     1       5.747   2.730   3.171  0.00  0.00    +0.045 A 
ATOM     20  F   UNL     1       6.878   2.087   5.151  0.00  0.00    -0.205 F 
ENDBRANCH   6  14
BRANCH   6  21
ATOM     21  O   UNL     1       4.430   4.669   1.821  0.00  0.00    -0.372 OA
ATOM     22  H   UNL     1       3.856   5.325   1.401  0.00  0.00    +0.212 HD
ENDBRANCH   6  21
ENDBRANCH   1   6
BRANCH   4  23
ATOM     23  C   UNL     1       5.434   2.994  -3.838  0.00  0.00    -0.002 C 
BRANCH  23  24
ATOM     24  N   UNL     1       6.567   2.086  -4.065  0.00  0.00    +0.392 N 
ATOM     25  H   UNL     1       7.426   2.552  -3.814  0.00  0.00    -0.080 HD
BRANCH  24  26
ATOM     26  C   UNL     1       6.403   0.883  -3.238  0.00  0.00    -0.041 C 
BRANCH  26  27
ATOM     27  C   UNL     1       7.623   0.008  -3.377  0.00  0.00    -0.057 A 
ATOM     28  C   UNL     1       7.685  -0.957  -4.364  0.00  0.00    +0.009 A 
ATOM     29  C   UNL     1       8.797  -1.727  -4.461  0.00  0.00    +0.045 A 
ATOM     30  S   UNL     1       9.804  -1.091  -3.131  0.00  0.00    -0.105 S 
ATOM     31  C   UNL     1       8.678   0.161  -2.539  0.00  0.00    +0.047 A 
ENDBRANCH  26  27
ENDBRANCH  24  26
BRANCH  24  32
ATOM     32  C   UNL     1       6.612   1.704  -5.482  0.00  0.00    -0.002 C 
BRANCH  32  33
ATOM     33  C   UNL     1       6.899   2.922  -6.322  0.00  0.00    +0.089 A 
ATOM     34  C   UNL     1       8.119   3.423  -6.590  0.00  0.00    +0.042 A 
ATOM     35  C   UNL     1       7.924   4.561  -7.406  0.00  0.00    +0.041 A 
ATOM     36  C   UNL     1       6.597   4.687  -7.589  0.00  0.00    +0.195 A 
ATOM     37  O   UNL     1       5.982   3.688  -6.934  0.00  0.00    -0.470 OA
ENDBRANCH  32  33
ENDBRANCH  24  32
ENDBRANCH  23  24
ENDBRANCH   4  23
TORSDOF 10
