REMARK  Name = ZINC63437341
REMARK  13 active torsions:
REMARK  status: ('A' for Active; 'I' for Inactive)
REMARK    1  A    between atoms: C_1  and  O_2
REMARK    2  A    between atoms: O_2  and  C_3
REMARK    3  A    between atoms: C_6  and  C_9
REMARK    4  A    between atoms: C_11  and  S_19
REMARK    5  A    between atoms: S_19  and  C_20
REMARK    6  A    between atoms: C_20  and  C_21
REMARK    7  A    between atoms: C_21  and  N_22
REMARK    8  A    between atoms: C_23  and  C_25
REMARK    9  A    between atoms: C_25  and  C_26
REMARK   10  A    between atoms: C_29  and  O_34
REMARK   11  A    between atoms: C_30  and  O_32
REMARK   12  A    between atoms: O_32  and  C_33
REMARK   13  A    between atoms: O_34  and  C_35
REMARK                            x       y       z     vdW  Elec       q    Type
REMARK                         _______ _______ _______ _____ _____    ______ ____
ROOT
ATOM      1  C   UNL     1       2.563  -2.551   4.284  0.00  0.00    +0.147 C 
ATOM      2  C   UNL     1       1.552  -3.053   5.290  0.00  0.00    +0.021 C 
ATOM      3  C   UNL     1       1.719  -4.434   5.334  0.00  0.00    +0.010 A 
ATOM      4  C   UNL     1       1.075  -5.449   6.075  0.00  0.00    +0.011 A 
ATOM      5  C   UNL     1       1.452  -6.743   5.913  0.00  0.00    +0.001 A 
ATOM      6  C   UNL     1       2.467  -7.103   5.026  0.00  0.00    +0.002 A 
ATOM      7  C   UNL     1       3.129  -6.181   4.284  0.00  0.00    +0.026 A 
ATOM      8  C   UNL     1       2.790  -4.809   4.398  0.00  0.00    +0.044 A 
ATOM      9  N   UNL     1       3.275  -3.736   3.797  0.00  0.00    -0.373 N 
ATOM     10  H   UNL     1       3.988  -3.733   3.139  0.00  0.00    +0.161 HD
ENDROOT
BRANCH   1  14
ATOM     11  C   UNL     1       0.572  -0.598   1.046  0.00  0.00    +0.120 A 
ATOM     12  C   UNL     1       1.163   0.153   2.052  0.00  0.00    +0.046 A 
ATOM     13  C   UNL     1       1.806  -0.481   3.098  0.00  0.00    +0.009 A 
ATOM     14  C   UNL     1       1.861  -1.862   3.142  0.00  0.00    -0.020 A 
ATOM     15  C   UNL     1       1.273  -2.612   2.141  0.00  0.00    +0.009 A 
ATOM     16  C   UNL     1       0.623  -1.983   1.096  0.00  0.00    +0.046 A 
BRANCH  11  18
ATOM     17  C   UNL     1      -0.076   1.452   0.031  0.00  0.00    +0.277 C 
ATOM     18  O   UNL     1      -0.062   0.023   0.017  0.00  0.00    -0.495 OA
ENDBRANCH  11  18
ENDBRANCH   1  14
BRANCH   2  19
ATOM     19  S   UNL     1       0.469  -2.147   6.162  0.00  0.00    -0.125 S 
BRANCH  19  20
ATOM     20  C   UNL     1      -0.530  -3.381   7.040  0.00  0.00    +0.093 C 
BRANCH  20  21
ATOM     21  C   UNL     1      -1.672  -2.680   7.779  0.00  0.00    +0.115 C 
BRANCH  21  22
ATOM     22  N   UNL     1      -2.479  -3.676   8.488  0.00  0.00    -0.314 N 
ATOM     23  C   UNL     1      -3.546  -3.287   9.212  0.00  0.00    +0.217 C 
ATOM     24  O   UNL     1      -3.840  -2.112   9.277  0.00  0.00    -0.275 OA
ATOM     25  H   UNL     1      -2.244  -4.616   8.436  0.00  0.00    +0.149 HD
BRANCH  23  26
ATOM     26  C   UNL     1      -4.376  -4.312   9.942  0.00  0.00    +0.131 C 
BRANCH  26  27
ATOM     27  C   UNL     1      -5.501  -3.622  10.670  0.00  0.00    -0.035 A 
ATOM     28  C   UNL     1      -5.315  -3.180  11.966  0.00  0.00    +0.008 A 
ATOM     29  C   UNL     1      -6.343  -2.547  12.638  0.00  0.00    +0.049 A 
ATOM     30  C   UNL     1      -7.564  -2.353  12.012  0.00  0.00    +0.161 A 
ATOM     31  C   UNL     1      -7.752  -2.798  10.707  0.00  0.00    +0.162 A 
ATOM     32  C   UNL     1      -6.715  -3.428  10.037  0.00  0.00    +0.053 A 
BRANCH  31  33
ATOM     33  O   UNL     1      -8.948  -2.610  10.088  0.00  0.00    -0.491 OA
ATOM     34  C   UNL     1      -9.068  -3.092   8.748  0.00  0.00    +0.277 C 
ENDBRANCH  31  33
BRANCH  30  35
ATOM     35  O   UNL     1      -8.577  -1.731  12.672  0.00  0.00    -0.491 OA
ATOM     36  C   UNL     1      -8.314  -1.302  14.009  0.00  0.00    +0.277 C 
ENDBRANCH  30  35
ENDBRANCH  26  27
ENDBRANCH  23  26
ENDBRANCH  21  22
ENDBRANCH  20  21
ENDBRANCH  19  20
ENDBRANCH   2  19
TORSDOF 10
