REMARK  Name = ZINC40056656
REMARK  9 active torsions:
REMARK  status: ('A' for Active; 'I' for Inactive)
REMARK    1  A    between atoms: C_1  and  C_2
REMARK    2  A    between atoms: C_2  and  C_3
REMARK    3  A    between atoms: C_3  and  C_4
REMARK    4  A    between atoms: C_4  and  N_5
REMARK    5  A    between atoms: C_6  and  C_23
REMARK    6  A    between atoms: C_14  and  C_21
REMARK    7  A    between atoms: C_26  and  O_29
REMARK    8  A    between atoms: O_29  and  C_30
REMARK    9  A    between atoms: C_30  and  C_31
REMARK                            x       y       z     vdW  Elec       q    Type
REMARK                         _______ _______ _______ _____ _____    ______ ____
ROOT
ATOM      1  N   UNL     1       1.425  -2.500  -2.470  0.00  0.00    -0.284 N 
ATOM      2  C   UNL     1       0.793  -2.784  -3.770  0.00  0.00    +0.144 C 
ATOM      3  C   UNL     1       1.897  -3.236  -4.669  0.00  0.00    +0.072 A 
ATOM      4  C   UNL     1       1.887  -3.663  -6.072  0.00  0.00    +0.199 A 
ATOM      5  O   UNL     1       0.916  -3.544  -6.798  0.00  0.00    -0.287 OA
ATOM      6  C   UNL     1       3.172  -4.256  -6.522  0.00  0.00    +0.066 A 
ATOM      7  C   UNL     1       3.261  -4.889  -7.761  0.00  0.00    +0.035 A 
ATOM      8  C   UNL     1       4.460  -5.438  -8.160  0.00  0.00    +0.045 A 
ATOM      9  C   UNL     1       5.572  -5.360  -7.331  0.00  0.00    -0.029 A 
ATOM     10  C   UNL     1       5.495  -4.735  -6.107  0.00  0.00    +0.051 A 
ATOM     11  C   UNL     1       4.293  -4.170  -5.681  0.00  0.00    +0.140 A 
ATOM     12  O   UNL     1       4.248  -3.553  -4.478  0.00  0.00    -0.450 OA
ATOM     13  C   UNL     1       3.058  -3.207  -3.950  0.00  0.00    +0.199 A 
ATOM     14  C   UNL     1       2.746  -2.745  -2.586  0.00  0.00    +0.283 C 
ATOM     15  O   UNL     1       3.560  -2.607  -1.694  0.00  0.00    -0.267 OA
ATOM     16  C   UNL     1       6.877  -5.966  -7.776  0.00  0.00    +0.045 C 
ATOM     17 CL   UNL     1       4.582  -6.228  -9.701  0.00  0.00    -0.083 Cl
ENDROOT
BRANCH   2  18
ATOM     18  C   UNL     1      -0.236  -3.874  -3.620  0.00  0.00    -0.022 A 
ATOM     19  C   UNL     1       0.018  -4.955  -2.797  0.00  0.00    +0.009 A 
ATOM     20  C   UNL     1      -0.924  -5.956  -2.658  0.00  0.00    +0.046 A 
ATOM     21  C   UNL     1      -2.126  -5.875  -3.345  0.00  0.00    +0.121 A 
ATOM     22  C   UNL     1      -2.380  -4.789  -4.170  0.00  0.00    +0.046 A 
ATOM     23  C   UNL     1      -1.436  -3.788  -4.301  0.00  0.00    +0.009 A 
BRANCH  21  24
ATOM     24  O   UNL     1      -3.054  -6.859  -3.211  0.00  0.00    -0.483 OA
BRANCH  24  25
ATOM     25  C   UNL     1      -4.269  -6.710  -3.948  0.00  0.00    +0.324 C 
BRANCH  25  26
ATOM     26  C   UNL     1      -5.170  -7.887  -3.676  0.00  0.00    +0.248 C 
ATOM     27  O   UNL     1      -4.807  -8.767  -2.925  0.00  0.00    -0.272 OA
ATOM     28  N   UNL     1      -6.379  -7.962  -4.268  0.00  0.00    -0.327 N 
ATOM     29  H   UNL     1      -6.669  -7.258  -4.868  0.00  0.00    +0.145 HD
ATOM     30  H   UNL     1      -6.958  -8.719  -4.092  0.00  0.00    +0.145 HD
ENDBRANCH  25  26
ENDBRANCH  24  25
ENDBRANCH  21  24
ENDBRANCH   2  18
BRANCH   1  31
ATOM     31  C   UNL     1       0.739  -2.027  -1.265  0.00  0.00    +0.109 C 
BRANCH  31  32
ATOM     32  C   UNL     1       0.718  -0.497  -1.257  0.00  0.00    +0.019 C 
BRANCH  32  34
ATOM     33  C   UNL     1      -0.019   1.526   0.010  0.00  0.00    +0.004 C 
ATOM     34  C   UNL     1       0.002  -0.004   0.002  0.00  0.00    -0.002 C 
ENDBRANCH  32  34
ENDBRANCH  31  32
ENDBRANCH   1  31
TORSDOF 7
