REMARK  Name = ZINC39774250
REMARK  11 active torsions:
REMARK  status: ('A' for Active; 'I' for Inactive)
REMARK    1  A    between atoms: C_1  and  C_2
REMARK    2  A    between atoms: C_2  and  N_3
REMARK    3  A    between atoms: C_6  and  O_35
REMARK    4  A    between atoms: C_11  and  C_12
REMARK    5  A    between atoms: C_15  and  C_33
REMARK    6  A    between atoms: C_15  and  C_34
REMARK    7  A    between atoms: C_17  and  C_19
REMARK    8  A    between atoms: C_20  and  C_21
REMARK    9  A    between atoms: N_23  and  C_31
REMARK   10  A    between atoms: C_31  and  C_32
REMARK   11  A    between atoms: O_35  and  C_36
REMARK                            x       y       z     vdW  Elec       q    Type
REMARK                         _______ _______ _______ _____ _____    ______ ____
ROOT
ATOM      1  C   UNL     1       0.103   1.073   4.863  0.00  0.00    +0.037 C 
ATOM      2  C   UNL     1      -0.762   0.224   5.487  0.00  0.00    -0.044 C 
ATOM      3  C   UNL     1      -0.263  -1.096   6.015  0.00  0.00    +0.042 C 
ATOM      4  C   UNL     1      -1.107  -1.507   7.225  0.00  0.00    -0.027 C 
ATOM      5  C   UNL     1      -2.577  -1.578   6.804  0.00  0.00    +0.041 C 
ATOM      6  C   UNL     1      -3.006  -0.243   6.256  0.00  0.00    -0.047 C 
ATOM      7  C   UNL     1      -2.103   0.589   5.637  0.00  0.00    +0.007 C 
ATOM      8  C   UNL     1      -0.943  -0.472   8.340  0.00  0.00    +0.011 C 
ATOM      9  C   UNL     1      -0.650  -2.879   7.726  0.00  0.00    +0.011 C 
ENDROOT
BRANCH   1  18
ATOM     10  N   UNL     1       2.380   1.292   3.932  0.00  0.00    -0.335 N 
ATOM     11  C   UNL     1       3.535   0.705   3.565  0.00  0.00    +0.060 A 
ATOM     12  C   UNL     1       4.691   1.319   3.025  0.00  0.00    +0.072 A 
ATOM     13  C   UNL     1       5.797   0.570   2.700  0.00  0.00    +0.122 A 
ATOM     14  C   UNL     1       5.819  -0.809   2.889  0.00  0.00    +0.047 A 
ATOM     15  C   UNL     1       4.705  -1.438   3.416  0.00  0.00    +0.021 A 
ATOM     16  C   UNL     1       3.597  -0.698   3.742  0.00  0.00    +0.038 A 
ATOM     17  S   UNL     1       1.997  -1.067   4.420  0.00  0.00    -0.070 S 
ATOM     18  C   UNL     1       1.365   0.604   4.432  0.00  0.00    +0.081 A 
BRANCH  10  20
ATOM     19  C   UNL     1       2.721   3.438   5.053  0.00  0.00    +0.027 C 
ATOM     20  C   UNL     1       2.244   2.742   3.777  0.00  0.00    +0.119 C 
ENDBRANCH  10  20
BRANCH  13  21
ATOM     21  O   UNL     1       6.892   1.188   2.183  0.00  0.00    -0.495 OA
ATOM     22  C   UNL     1       8.013   0.362   1.863  0.00  0.00    +0.277 C 
ENDBRANCH  13  21
ENDBRANCH   1  18
BRANCH   6  23
ATOM     23  C   UNL     1      -4.338   0.159   6.383  0.00  0.00    +0.004 C 
ATOM     24  C   UNL     1      -5.252  -0.667   7.008  0.00  0.00    +0.003 C 
BRANCH  24  25
ATOM     25  C   UNL     1      -6.582  -0.266   7.135  0.00  0.00    +0.031 C 
ATOM     26  C   UNL     1      -7.457  -1.005   7.912  0.00  0.00    +0.073 C 
ATOM     27  N   UNL     1      -7.180  -2.034   8.775  0.00  0.00    -0.294 N 
ATOM     28  C   UNL     1      -8.205  -2.652   9.468  0.00  0.00    +0.048 A 
ATOM     29  C   UNL     1      -8.100  -3.714  10.384  0.00  0.00    +0.024 A 
ATOM     30  C   UNL     1      -9.216  -4.229  10.999  0.00  0.00    +0.002 A 
ATOM     31  C   UNL     1     -10.478  -3.722  10.739  0.00  0.00    +0.001 A 
ATOM     32  C   UNL     1     -10.613  -2.677   9.841  0.00  0.00    +0.017 A 
ATOM     33  C   UNL     1      -9.497  -2.161   9.226  0.00  0.00    +0.035 A 
ATOM     34  S   UNL     1      -9.230  -0.856   8.050  0.00  0.00    -0.072 S 
BRANCH  27  35
ATOM     35  C   UNL     1      -5.797  -2.480   8.964  0.00  0.00    +0.108 C 
ATOM     36  C   UNL     1      -5.415  -3.446   7.841  0.00  0.00    +0.025 C 
ENDBRANCH  27  35
ENDBRANCH  24  25
ENDBRANCH   6  23
TORSDOF 6
