REMARK  Name = ZINC43250783
REMARK  8 active torsions:
REMARK  status: ('A' for Active; 'I' for Inactive)
REMARK    1  A    between atoms: C_1  and  C_2
REMARK    2  A    between atoms: C_10  and  C_11
REMARK    3  A    between atoms: C_14  and  C_16
REMARK    4  A    between atoms: C_16  and  C_18
REMARK    5  A    between atoms: C_16  and  N_27
REMARK    6  A    between atoms: C_18  and  C_19
REMARK    7  A    between atoms: C_22  and  O_25
REMARK    8  A    between atoms: O_25  and  C_26
REMARK                            x       y       z     vdW  Elec       q    Type
REMARK                         _______ _______ _______ _____ _____    ______ ____
ROOT
ATOM      1  C   UNL     1      -0.192  -0.179   2.542  0.00  0.00    +0.085 A 
ATOM      2  C   UNL     1      -0.410   1.151   2.794  0.00  0.00    +0.075 A 
ATOM      3  S   UNL     1      -0.448   1.146   4.579  0.00  0.00    -0.082 S 
ATOM      4  C   UNL     1      -0.190  -0.500   4.816  0.00  0.00    +0.065 A 
ATOM      5  N   UNL     1      -0.094  -0.972   3.601  0.00  0.00    -0.245 NA
ENDROOT
BRANCH   1  15
ATOM      6  C   UNL     1       0.066  -3.107   1.773  0.00  0.00    +0.045 C 
ATOM      7  C   UNL     1       0.038  -1.990   0.762  0.00  0.00    -0.026 A 
ATOM      8  C   UNL     1       0.130  -2.280  -0.659  0.00  0.00    -0.006 A 
ATOM      9  C   UNL     1       0.252  -3.539  -1.298  0.00  0.00    +0.029 A 
ATOM     10  C   UNL     1       0.327  -3.625  -2.654  0.00  0.00    +0.042 A 
ATOM     11  C   UNL     1       0.287  -2.492  -3.457  0.00  0.00    +0.021 A 
ATOM     12  C   UNL     1       0.169  -1.246  -2.871  0.00  0.00    +0.017 A 
ATOM     13  C   UNL     1       0.092  -1.145  -1.499  0.00  0.00    +0.020 A 
ATOM     14  S   UNL     1      -0.061   0.212  -0.367  0.00  0.00    -0.086 S 
ATOM     15  C   UNL     1      -0.079  -0.702   1.163  0.00  0.00    +0.042 A 
ATOM     16 CL   UNL     1       0.477  -5.186  -3.397  0.00  0.00    -0.084 Cl
ENDBRANCH   1  15
BRANCH   4  17
ATOM     17  C   UNL     1      -0.099  -1.252   6.118  0.00  0.00    -0.014 C 
BRANCH  17  18
ATOM     18  N   UNL     1       0.754  -0.507   7.055  0.00  0.00    +0.384 N 
ATOM     19  H   UNL     1       1.677  -0.404   6.660  0.00  0.00    -0.089 HD
ATOM     20  H   UNL     1       0.355   0.405   7.220  0.00  0.00    -0.089 HD
ATOM     21  H   UNL     1       0.815  -1.011   7.927  0.00  0.00    -0.089 HD
ENDBRANCH  17  18
BRANCH  17  22
ATOM     22  C   UNL     1      -1.498  -1.408   6.716  0.00  0.00    +0.025 C 
BRANCH  22  23
ATOM     23  C   UNL     1      -1.423  -2.265   7.954  0.00  0.00    -0.048 A 
ATOM     24  C   UNL     1      -1.558  -3.637   7.853  0.00  0.00    +0.007 A 
ATOM     25  C   UNL     1      -1.490  -4.424   8.987  0.00  0.00    +0.046 A 
ATOM     26  C   UNL     1      -1.284  -3.837  10.226  0.00  0.00    +0.120 A 
ATOM     27  C   UNL     1      -1.148  -2.459  10.325  0.00  0.00    +0.046 A 
ATOM     28  C   UNL     1      -1.212  -1.677   9.188  0.00  0.00    +0.007 A 
BRANCH  26  29
ATOM     29  O   UNL     1      -1.217  -4.609  11.343  0.00  0.00    -0.495 OA
ATOM     30  C   UNL     1      -1.004  -3.936  12.585  0.00  0.00    +0.277 C 
ENDBRANCH  26  29
ENDBRANCH  22  23
ENDBRANCH  17  22
ENDBRANCH   4  17
TORSDOF 6
