REMARK  Name = ZINC14880275
REMARK  11 active torsions:
REMARK  status: ('A' for Active; 'I' for Inactive)
REMARK    1  A    between atoms: C_1  and  C_2
REMARK    2  A    between atoms: C_2  and  C_3
REMARK    3  A    between atoms: C_2  and  C_4
REMARK    4  A    between atoms: C_4  and  C_5
REMARK    5  A    between atoms: C_5  and  C_7
REMARK    6  A    between atoms: C_5  and  N_10
REMARK    7  A    between atoms: C_11  and  C_13
REMARK    8  A    between atoms: C_13  and  C_14
REMARK    9  A    between atoms: C_14  and  C_15
REMARK   10  A    between atoms: C_15  and  C_21
REMARK   11  A    between atoms: C_21  and  C_22
REMARK                            x       y       z     vdW  Elec       q    Type
REMARK                         _______ _______ _______ _____ _____    ______ ____
ROOT
ATOM      1  C   UNL     1       2.370   3.608   1.664  0.00  0.00    +0.035 C 
ENDROOT
BRANCH   1   2
ATOM      2  C   UNL     1       1.000   3.748   0.997  0.00  0.00    +0.039 C 
ATOM      3  C   UNL     1       0.521   5.216   1.060  0.00  0.00    +0.035 C 
ATOM      4  C   UNL     1      -0.330   5.214   2.350  0.00  0.00    +0.098 C 
ATOM      5  C   UNL     1      -0.764   3.773   2.507  0.00  0.00    +0.214 C 
ATOM      6  O   UNL     1      -1.663   3.393   3.226  0.00  0.00    -0.276 OA
ATOM      7  N   UNL     1      -0.006   2.976   1.735  0.00  0.00    -0.309 N 
ATOM      8  H   UNL     1      -0.111   2.014   1.673  0.00  0.00    +0.149 HD
BRANCH   2   9
ATOM      9  C   UNL     1       1.070   3.276  -0.457  0.00  0.00    +0.061 C 
BRANCH   9  10
ATOM     10  C   UNL     1      -0.301   3.357  -1.077  0.00  0.00    -0.045 A 
ATOM     11  C   UNL     1      -0.662   4.469  -1.815  0.00  0.00    +0.005 A 
ATOM     12  C   UNL     1      -1.919   4.543  -2.384  0.00  0.00    +0.020 A 
ATOM     13  C   UNL     1      -2.817   3.504  -2.216  0.00  0.00    +0.041 A 
ATOM     14  C   UNL     1      -2.456   2.392  -1.477  0.00  0.00    +0.020 A 
ATOM     15  C   UNL     1      -1.198   2.318  -0.908  0.00  0.00    +0.005 A 
ATOM     16 CL   UNL     1      -4.396   3.597  -2.930  0.00  0.00    -0.084 Cl
ENDBRANCH   9  10
ENDBRANCH   2   9
ENDBRANCH   1   2
BRANCH   1  17
ATOM     17  C   UNL     1       2.767   2.131   1.709  0.00  0.00    +0.098 C 
BRANCH  17  19
ATOM     18  N   UNL     1       4.705   0.780   2.441  0.00  0.00    -0.304 N 
ATOM     19  C   UNL     1       4.145   1.998   2.302  0.00  0.00    +0.214 C 
ATOM     20  O   UNL     1       4.751   2.988   2.655  0.00  0.00    -0.276 OA
ATOM     21  H   UNL     1       4.221  -0.011   2.159  0.00  0.00    +0.149 HD
BRANCH  18  22
ATOM     22  C   UNL     1       6.046   0.652   3.018  0.00  0.00    +0.159 C 
BRANCH  22  23
ATOM     23  C   UNL     1       7.078   0.844   1.938  0.00  0.00    +0.231 C 
ATOM     24  O   UNL     1       6.729   1.066   0.798  0.00  0.00    -0.274 OA
ATOM     25  N   UNL     1       8.390   0.768   2.238  0.00  0.00    -0.328 N 
ATOM     26  H   UNL     1       8.669   0.591   3.149  0.00  0.00    +0.145 HD
ATOM     27  H   UNL     1       9.055   0.892   1.542  0.00  0.00    +0.145 HD
ENDBRANCH  22  23
BRANCH  22  28
ATOM     28  C   UNL     1       6.205  -0.740   3.634  0.00  0.00    +0.034 C 
BRANCH  28  30
ATOM     29  C   UNL     1       5.296  -2.332   5.332  0.00  0.00    +0.007 C 
ATOM     30  C   UNL     1       5.202  -0.909   4.778  0.00  0.00    -0.015 C 
ATOM     31  C   UNL     1       5.523   0.093   5.889  0.00  0.00    +0.007 C 
ENDBRANCH  28  30
ENDBRANCH  22  28
ENDBRANCH  18  22
ENDBRANCH  17  19
ENDBRANCH   1  17
TORSDOF 9
