REMARK  Name = ZINC02937123
REMARK  6 active torsions:
REMARK  status: ('A' for Active; 'I' for Inactive)
REMARK    1  A    between atoms: C_4  and  C_7
REMARK    2  A    between atoms: C_8  and  C_9
REMARK    3  A    between atoms: C_12  and  N_15
REMARK    4  A    between atoms: C_16  and  C_18
REMARK    5  A    between atoms: C_18  and  S_19
REMARK    6  A    between atoms: S_19  and  C_20
REMARK                            x       y       z     vdW  Elec       q    Type
REMARK                         _______ _______ _______ _____ _____    ______ ____
ROOT
ATOM      1  N   UNL     1      -4.386  -4.943   0.017  0.00  0.00    -0.285 N 
ATOM      2  C   UNL     1      -3.394  -4.385   0.738  0.00  0.00    +0.227 C 
ATOM      3  O   UNL     1      -2.641  -5.087   1.379  0.00  0.00    -0.275 OA
ATOM      4  H   UNL     1      -5.035  -4.379  -0.433  0.00  0.00    +0.155 HD
ENDROOT
BRANCH   1   8
ATOM      5  C   UNL     1      -4.667  -9.092  -0.280  0.00  0.00    -0.025 A 
ATOM      6  C   UNL     1      -5.826  -8.310  -0.272  0.00  0.00    +0.010 A 
ATOM      7  C   UNL     1      -5.729  -6.939  -0.174  0.00  0.00    +0.024 A 
ATOM      8  C   UNL     1      -4.481  -6.334  -0.083  0.00  0.00    +0.033 A 
ATOM      9  C   UNL     1      -3.325  -7.108  -0.096  0.00  0.00    +0.024 A 
ATOM     10  C   UNL     1      -3.414  -8.479  -0.189  0.00  0.00    +0.010 A 
BRANCH   5  12
ATOM     11  C   UNL     1      -3.652 -11.308  -0.393  0.00  0.00    +0.008 C 
ATOM     12  C   UNL     1      -4.766 -10.558  -0.386  0.00  0.00    +0.008 C 
BRANCH  11  16
ATOM     13  C   UNL     1      -3.938 -15.531  -0.696  0.00  0.00    +0.000 A 
ATOM     14  C   UNL     1      -2.694 -14.930  -0.606  0.00  0.00    +0.001 A 
ATOM     15  C   UNL     1      -2.594 -13.558  -0.507  0.00  0.00    +0.008 A 
ATOM     16  C   UNL     1      -3.751 -12.774  -0.499  0.00  0.00    -0.025 A 
ATOM     17  C   UNL     1      -5.003 -13.389  -0.585  0.00  0.00    +0.008 A 
ATOM     18  C   UNL     1      -5.088 -14.762  -0.689  0.00  0.00    +0.001 A 
ENDBRANCH  11  16
ENDBRANCH   5  12
ENDBRANCH   1   8
BRANCH   2  19
ATOM     19  C   UNL     1      -3.221  -2.888   0.749  0.00  0.00    +0.170 C 
BRANCH  19  20
ATOM     20  S   UNL     1      -1.812  -2.450   1.804  0.00  0.00    -0.114 S 
BRANCH  20  21
ATOM     21  C   UNL     1      -1.742  -0.691   1.713  0.00  0.00    +0.034 A 
ATOM     22  C   UNL     1      -2.656   0.002   0.949  0.00  0.00    +0.017 A 
ATOM     23  C   UNL     1      -2.612   1.390   0.869  0.00  0.00    +0.002 A 
ATOM     24  C   UNL     1      -1.669   2.102   1.547  0.00  0.00    +0.010 A 
ATOM     25  C   UNL     1      -0.716   1.432   2.332  0.00  0.00    +0.001 A 
ATOM     26  C   UNL     1      -0.749   0.019   2.424  0.00  0.00    +0.084 A 
ATOM     27  N   UNL     1       0.152  -0.620   3.174  0.00  0.00    -0.254 NA
ATOM     28  C   UNL     1       1.076   0.034   3.835  0.00  0.00    +0.111 A 
ATOM     29  C   UNL     1       1.165   1.423   3.790  0.00  0.00    +0.020 A 
ATOM     30  C   UNL     1       0.275   2.139   3.041  0.00  0.00    +0.011 A 
ENDBRANCH  20  21
ENDBRANCH  19  20
ENDBRANCH   2  19
TORSDOF 6
