REMARK  Name = ZINC06208411
REMARK  6 active torsions:
REMARK  status: ('A' for Active; 'I' for Inactive)
REMARK    1  A    between atoms: C_1  and  C_2
REMARK    2  A    between atoms: C_7  and  C_8
REMARK    3  A    between atoms: C_16  and  C_17
REMARK    4  A    between atoms: C_18  and  C_19
REMARK    5  A    between atoms: C_24  and  O_25
REMARK    6  A    between atoms: O_25  and  C_26
REMARK                            x       y       z     vdW  Elec       q    Type
REMARK                         _______ _______ _______ _____ _____    ______ ____
ROOT
ATOM      1  C   UNL     1       0.795   0.600  -2.233  0.00  0.00    +0.183 A 
ATOM      2  N   UNL     1       0.920  -0.734  -2.176  0.00  0.00    -0.200 NA
ATOM      3  C   UNL     1       2.181  -1.044  -2.074  0.00  0.00    +0.200 A 
ATOM      4  N   UNL     1       2.936   0.097  -2.059  0.00  0.00    -0.169 N 
ATOM      5  N   UNL     1       1.984   1.147  -2.166  0.00  0.00    -0.141 NA
ATOM      6  C   UNL     1       4.266  -0.021  -1.959  0.00  0.00    +0.288 A 
ATOM      7  O   UNL     1       4.974   0.970  -1.943  0.00  0.00    -0.265 OA
ATOM      8  C   UNL     1       4.840  -1.319  -1.871  0.00  0.00    +0.082 A 
ATOM      9  C   UNL     1       6.162  -1.685  -1.763  0.00  0.00    +0.020 C 
ATOM     10  S   UNL     1       3.380  -2.348  -1.941  0.00  0.00    -0.044 S 
ENDROOT
BRANCH   1  17
ATOM     11  C   UNL     1       0.785   3.489  -2.072  0.00  0.00    +0.044 C 
ATOM     12  C   UNL     1      -0.500   2.731  -2.282  0.00  0.00    -0.040 A 
ATOM     13  C   UNL     1      -1.694   3.413  -2.404  0.00  0.00    +0.004 A 
ATOM     14  C   UNL     1      -2.875   2.718  -2.590  0.00  0.00    +0.000 A 
ATOM     15  C   UNL     1      -2.867   1.337  -2.661  0.00  0.00    +0.001 A 
ATOM     16  C   UNL     1      -1.679   0.644  -2.546  0.00  0.00    +0.012 A 
ATOM     17  C   UNL     1      -0.485   1.339  -2.358  0.00  0.00    +0.024 A 
ENDBRANCH   1  17
BRANCH   9  18
ATOM     18  C   UNL     1       6.512  -3.045  -1.689  0.00  0.00    +0.002 C 
ATOM     19  C   UNL     1       7.812  -3.404  -1.542  0.00  0.00    +0.011 C 
BRANCH  19  20
ATOM     20  C   UNL     1       8.836  -2.377  -1.319  0.00  0.00    +0.017 A 
ATOM     21  C   UNL     1       8.554  -1.260  -0.523  0.00  0.00    +0.011 A 
ATOM     22  C   UNL     1       9.522  -0.303  -0.315  0.00  0.00    +0.001 A 
ATOM     23  C   UNL     1      10.772  -0.434  -0.899  0.00  0.00    +0.004 A 
ATOM     24  C   UNL     1      11.063  -1.527  -1.692  0.00  0.00    +0.046 A 
ATOM     25  C   UNL     1      10.105  -2.504  -1.909  0.00  0.00    +0.127 A 
BRANCH  25  26
ATOM     26  O   UNL     1      10.390  -3.578  -2.688  0.00  0.00    -0.495 OA
ATOM     27  C   UNL     1      11.701  -3.639  -3.254  0.00  0.00    +0.277 C 
ENDBRANCH  25  26
ENDBRANCH  19  20
ENDBRANCH   9  18
TORSDOF 4
