REMARK  Name = ZINC09586201
REMARK  7 active torsions:
REMARK  status: ('A' for Active; 'I' for Inactive)
REMARK    1  A    between atoms: C_1  and  C_2
REMARK    2  A    between atoms: C_7  and  O_8
REMARK    3  A    between atoms: O_8  and  C_9
REMARK    4  A    between atoms: C_9  and  C_10
REMARK    5  A    between atoms: C_13  and  C_15
REMARK    6  A    between atoms: C_13  and  C_16
REMARK    7  A    between atoms: C_24  and  C_26
REMARK                            x       y       z     vdW  Elec       q    Type
REMARK                         _______ _______ _______ _____ _____    ______ ____
ROOT
ATOM      1  C   UNL     1       2.415  -4.178  -0.141  0.00  0.00    +0.246 C 
ATOM      2  N   UNL     1       1.241  -4.686  -0.041  0.00  0.00    -0.137 NA
ATOM      3  N   UNL     1       1.317  -6.085   0.019  0.00  0.00    -0.144 N 
ATOM      4  C   UNL     1       2.754  -6.400  -0.061  0.00  0.00    +0.224 C 
ATOM      5  O   UNL     1       3.386  -5.115  -0.167  0.00  0.00    -0.446 OA
ATOM      6  C   UNL     1       3.215  -7.127   1.203  0.00  0.00    +0.086 C 
ATOM      7  C   UNL     1       0.292  -6.957   0.126  0.00  0.00    +0.235 C 
ATOM      8  O   UNL     1       0.504  -8.151   0.079  0.00  0.00    -0.274 OA
ATOM      9  C   UNL     1      -1.115  -6.448   0.305  0.00  0.00    +0.111 C 
ENDROOT
BRANCH   4  10
ATOM     10  C   UNL     1       3.046  -7.232  -1.283  0.00  0.00    +0.017 A 
ATOM     11  C   UNL     1       3.452  -6.620  -2.455  0.00  0.00    +0.011 A 
ATOM     12  C   UNL     1       3.725  -7.383  -3.575  0.00  0.00    +0.022 A 
ATOM     13  C   UNL     1       3.581  -8.758  -3.527  0.00  0.00    +0.059 A 
ATOM     14  C   UNL     1       3.169  -9.370  -2.356  0.00  0.00    +0.060 A 
ATOM     15  C   UNL     1       2.902  -8.606  -1.234  0.00  0.00    +0.030 A 
ATOM     16 CL   UNL     1       2.989 -11.096  -2.294  0.00  0.00    -0.082 Cl
ATOM     17 CL   UNL     1       3.918  -9.716  -4.935  0.00  0.00    -0.082 Cl
ENDBRANCH   4  10
BRANCH   1  18
ATOM     18  C   UNL     1       2.680  -2.697  -0.227  0.00  0.00    +0.325 C 
BRANCH  18  19
ATOM     19  O   UNL     1       1.440  -1.987  -0.178  0.00  0.00    -0.482 OA
BRANCH  19  26
ATOM     20  C   UNL     1      -0.998  -0.566  -0.082  0.00  0.00    +0.047 C 
ATOM     21  C   UNL     1       0.338   0.120  -0.202  0.00  0.00    -0.007 A 
ATOM     22  C   UNL     1       0.403   1.499  -0.271  0.00  0.00    +0.027 A 
ATOM     23  C   UNL     1       1.629   2.130  -0.381  0.00  0.00    +0.041 A 
ATOM     24  C   UNL     1       2.793   1.381  -0.423  0.00  0.00    +0.023 A 
ATOM     25  C   UNL     1       2.732   0.003  -0.355  0.00  0.00    +0.047 A 
ATOM     26  C   UNL     1       1.503  -0.631  -0.244  0.00  0.00    +0.124 A 
ATOM     27 CL   UNL     1       1.709   3.862  -0.467  0.00  0.00    -0.084 Cl
ENDBRANCH  19  26
ENDBRANCH  18  19
ENDBRANCH   1  18
TORSDOF 4
