REMARK  Name = ZINC13228309
REMARK  10 active torsions:
REMARK  status: ('A' for Active; 'I' for Inactive)
REMARK    1  A    between atoms: C_1  and  C_2
REMARK    2  A    between atoms: C_2  and  CA_3
REMARK    3  A    between atoms: CA_3  and  C_5
REMARK    4  A    between atoms: CA_3  and  N_7
REMARK    5  A    between atoms: C_5  and  O_6
REMARK    6  A    between atoms: C_14  and  C_18
REMARK    7  A    between atoms: C_18  and  C_19
REMARK    8  A    between atoms: C_18  and  C_20
REMARK    9  A    between atoms: C_23  and  C_25
REMARK   10  A    between atoms: C_23  and  C_26
REMARK                            x       y       z     vdW  Elec       q    Type
REMARK                         _______ _______ _______ _____ _____    ______ ____
ROOT
ATOM      1  N   UNL     1      -1.178  -0.731   0.009  0.00  0.00    -0.323 N 
ATOM      2  C   UNL     1       0.002  -0.004   0.002  0.00  0.00    +0.137 A 
ATOM      3  C   UNL     1      -0.017   1.385   0.010  0.00  0.00    +0.080 A 
ATOM      4  C   UNL     1       1.174   2.120   0.002  0.00  0.00    +0.093 A 
ATOM      5  C   UNL     1       1.026   3.587   0.011  0.00  0.00    +0.037 A 
ATOM      6  C   UNL     1       2.052   4.559   0.007  0.00  0.00    -0.026 A 
ATOM      7  C   UNL     1       1.719   5.891   0.015  0.00  0.00    +0.004 A 
ATOM      8  C   UNL     1       0.381   6.268   0.033  0.00  0.00    +0.051 A 
ATOM      9  N   UNL     1      -0.572   5.358   0.038  0.00  0.00    -0.244 NA
ATOM     10  C   UNL     1      -0.294   4.072   0.027  0.00  0.00    +0.111 A 
ATOM     11  S   UNL     1      -1.298   2.607   0.036  0.00  0.00    -0.064 S 
ATOM     12  C   UNL     1       2.778   6.963  -0.003  0.00  0.00    +0.197 C 
ATOM     13  O   UNL     1       4.044   6.410   0.352  0.00  0.00    -0.369 OA
ATOM     14  C   UNL     1       4.395   5.255  -0.418  0.00  0.00    +0.068 C 
ATOM     15  C   UNL     1       3.485   4.098  -0.000  0.00  0.00    +0.070 C 
ATOM     16  C   UNL     1       5.855   4.883  -0.151  0.00  0.00    +0.041 C 
ATOM     17  C   UNL     1       4.200   5.551  -1.907  0.00  0.00    +0.041 C 
ATOM     18  N   UNL     1       2.318   1.398  -0.012  0.00  0.00    -0.234 NA
ATOM     19  C   UNL     1       2.298   0.089  -0.019  0.00  0.00    +0.224 A 
ATOM     20  N   UNL     1       1.184  -0.620  -0.012  0.00  0.00    -0.220 NA
ATOM     21  H   UNL     1      -2.032  -0.270   0.020  0.00  0.00    +0.148 HD
ENDROOT
BRANCH   8  22
ATOM     22  C   UNL     1       0.018   7.731   0.046  0.00  0.00    +0.032 C 
ATOM     23  C   UNL     1      -0.820   8.059  -1.191  0.00  0.00    +0.014 C 
ATOM     24  C   UNL     1      -0.790   8.043   1.307  0.00  0.00    +0.014 C 
ENDBRANCH   8  22
BRANCH   1  25
ATOM     25  CA  UNL     1      -1.137  -2.196   0.001  0.00  0.00    +0.097 C 
BRANCH  25  27
ATOM     26  C   UNL     1      -2.528  -2.329  -2.070  0.00  0.00    +0.006 C 
ATOM     27  C   UNL     1      -2.435  -2.739  -0.599  0.00  0.00    +0.021 C 
ENDBRANCH  25  27
BRANCH  25  28
ATOM     28  C   UNL     1      -0.983  -2.709   1.434  0.00  0.00    +0.178 C 
BRANCH  28  29
ATOM     29  O   UNL     1      -2.146  -2.369   2.190  0.00  0.00    -0.393 OA
ATOM     30  H   UNL     1      -2.118  -2.664   3.110  0.00  0.00    +0.209 HD
ENDBRANCH  28  29
ENDBRANCH  25  28
ENDBRANCH   1  25
TORSDOF 5
