REMARK  Name = ZINC19574857
REMARK  10 active torsions:
REMARK  status: ('A' for Active; 'I' for Inactive)
REMARK    1  A    between atoms: C_1  and  C_2
REMARK    2  A    between atoms: C_5  and  C_31
REMARK    3  A    between atoms: C_10  and  C_12
REMARK    4  A    between atoms: N_17  and  C_18
REMARK    5  A    between atoms: C_18  and  C_19
REMARK    6  A    between atoms: C_21  and  C_27
REMARK    7  A    between atoms: C_24  and  O_25
REMARK    8  A    between atoms: O_25  and  C_26
REMARK    9  A    between atoms: C_27  and  O_28
REMARK   10  A    between atoms: O_28  and  C_29
REMARK                            x       y       z     vdW  Elec       q    Type
REMARK                         _______ _______ _______ _____ _____    ______ ____
ROOT
ATOM      1  C   UNL     1       5.410  -1.648  -1.512  0.00  0.00    -0.016 C 
ATOM      2  C   UNL     1       5.405  -2.537  -2.774  0.00  0.00    -0.011 C 
ATOM      3  C   UNL     1       3.934  -2.966  -2.956  0.00  0.00    -0.020 C 
ATOM      4  C   UNL     1       3.175  -2.300  -1.789  0.00  0.00    -0.077 C 
ATOM      5  N   UNL     1       4.019  -1.138  -1.407  0.00  0.00    +0.388 N 
ATOM      6  H   UNL     1       3.841  -0.256  -2.040  0.00  0.00    -0.080 HD
ENDROOT
BRANCH   1  14
ATOM      7  C   UNL     1      11.149   3.034  -1.565  0.00  0.00    +0.028 C 
ATOM      8  C   UNL     1       9.872   2.431  -2.154  0.00  0.00    +0.071 C 
ATOM      9  C   UNL     1       8.703   3.402  -1.951  0.00  0.00    +0.058 C 
ATOM     10  C   UNL     1       7.435   2.833  -2.598  0.00  0.00    +0.214 C 
ATOM     11  N   UNL     1       7.255   1.449  -2.151  0.00  0.00    -0.239 N 
ATOM     12  C   UNL     1       8.250   0.689  -1.625  0.00  0.00    +0.118 A 
ATOM     13  C   UNL     1       7.733  -0.520  -1.317  0.00  0.00    +0.066 A 
ATOM     14  C   UNL     1       6.378  -0.505  -1.675  0.00  0.00    +0.052 A 
ATOM     15  N   UNL     1       6.095   0.675  -2.171  0.00  0.00    -0.176 NA
ATOM     16  N   UNL     1       9.554   1.165  -1.465  0.00  0.00    -0.327 N 
ATOM     17  H   UNL     1      10.325   0.654  -0.870  0.00  0.00    +0.148 HD
BRANCH  10  18
ATOM     18  C   UNL     1       6.225   3.669  -2.176  0.00  0.00    +0.412 C 
ATOM     19  F   UNL     1       6.102   3.643  -0.783  0.00  0.00    -0.168 F 
ATOM     20  F   UNL     1       6.400   4.990  -2.604  0.00  0.00    -0.168 F 
ATOM     21  F   UNL     1       5.068   3.140  -2.757  0.00  0.00    -0.168 F 
ENDBRANCH  10  18
ENDBRANCH   1  14
BRANCH   5  22
ATOM     22  C   UNL     1       3.721  -0.698  -0.038  0.00  0.00    -0.038 C 
BRANCH  22  23
ATOM     23  C   UNL     1       2.403   0.033  -0.021  0.00  0.00    -0.022 A 
ATOM     24  C   UNL     1       2.379   1.415  -0.013  0.00  0.00    +0.011 A 
ATOM     25  C   UNL     1       1.171   2.086   0.002  0.00  0.00    -0.022 A 
ATOM     26  C   UNL     1      -0.017   1.377   0.010  0.00  0.00    +0.009 A 
ATOM     27  C   UNL     1       0.002  -0.004   0.002  0.00  0.00    +0.046 A 
ATOM     28  C   UNL     1       1.214  -0.680  -0.013  0.00  0.00    +0.121 A 
BRANCH  28  29
ATOM     29  O   UNL     1       1.235  -2.039  -0.021  0.00  0.00    -0.495 OA
ATOM     30  C   UNL     1      -0.028  -2.708  -0.013  0.00  0.00    +0.277 C 
ENDBRANCH  28  29
BRANCH  25  31
ATOM     31  C   UNL     1       1.147   3.593   0.010  0.00  0.00    +0.194 C 
BRANCH  31  32
ATOM     32  O   UNL     1       1.153   4.062   1.360  0.00  0.00    -0.378 OA
ATOM     33  C   UNL     1       1.132   5.486   1.480  0.00  0.00    +0.194 C 
ENDBRANCH  31  32
ENDBRANCH  25  31
ENDBRANCH  22  23
ENDBRANCH   5  22
TORSDOF 7
