REMARK  Name = ZINC35051098
REMARK  8 active torsions:
REMARK  status: ('A' for Active; 'I' for Inactive)
REMARK    1  A    between atoms: C_1  and  C_2
REMARK    2  A    between atoms: C_2  and  C_3
REMARK    3  A    between atoms: C_2  and  C_4
REMARK    4  A    between atoms: C_4  and  C_5
REMARK    5  A    between atoms: C_5  and  C_7
REMARK    6  A    between atoms: C_5  and  N_25
REMARK    7  A    between atoms: C_14  and  C_21
REMARK    8  A    between atoms: C_16  and  O_17
REMARK                            x       y       z     vdW  Elec       q    Type
REMARK                         _______ _______ _______ _____ _____    ______ ____
ROOT
ATOM      1  C   UNL     1       3.246  -0.864  -2.050  0.00  0.00    +0.203 C 
ATOM      2  O   UNL     1       3.828  -0.117  -2.816  0.00  0.00    -0.277 OA
ATOM      3  N   UNL     1       3.232  -2.163  -2.279  0.00  0.00    -0.287 N 
ATOM      4  C   UNL     1       3.982  -2.684  -3.288  0.00  0.00    +0.037 A 
ATOM      5  C   UNL     1       3.721  -3.986  -3.753  0.00  0.00    +0.024 A 
ATOM      6  C   UNL     1       4.462  -4.517  -4.760  0.00  0.00    +0.014 A 
ATOM      7  C   UNL     1       5.496  -3.764  -5.344  0.00  0.00    +0.029 A 
ATOM      8  C   UNL     1       6.276  -4.298  -6.391  0.00  0.00    +0.072 A 
ATOM      9  C   UNL     1       7.279  -3.517  -6.931  0.00  0.00    +0.100 A 
ATOM     10  C   UNL     1       7.499  -2.238  -6.440  0.00  0.00    +0.285 A 
ATOM     11  O   UNL     1       6.758  -1.736  -5.447  0.00  0.00    -0.425 OA
ATOM     12  C   UNL     1       5.765  -2.455  -4.884  0.00  0.00    +0.141 A 
ATOM     13  C   UNL     1       5.001  -1.922  -3.861  0.00  0.00    +0.070 A 
ATOM     14  H   UNL     1       2.688  -2.747  -1.727  0.00  0.00    +0.155 HD
ENDROOT
BRANCH   8  15
ATOM     15  C   UNL     1       6.021  -5.689  -6.910  0.00  0.00    +0.418 C 
ATOM     16  F   UNL     1       4.751  -5.743  -7.496  0.00  0.00    -0.166 F 
ATOM     17  F   UNL     1       6.989  -6.016  -7.864  0.00  0.00    -0.166 F 
ATOM     18  F   UNL     1       6.083  -6.601  -5.850  0.00  0.00    -0.166 F 
ENDBRANCH   8  15
BRANCH  10  19
ATOM     19  O   UNL     1       8.480  -1.486  -6.975  0.00  0.00    -0.480 OA
ATOM     20  H   UNL     1       8.567  -0.610  -6.576  0.00  0.00    +0.295 HD
ENDBRANCH  10  19
BRANCH   1  21
ATOM     21  C   UNL     1       2.542  -0.304  -0.841  0.00  0.00    +0.013 C 
BRANCH  21  22
ATOM     22  N   UNL     1       3.076   1.030  -0.537  0.00  0.00    +0.386 N 
ATOM     23  H   UNL     1       4.048   0.951  -0.274  0.00  0.00    -0.089 HD
ATOM     24  H   UNL     1       2.995   1.619  -1.352  0.00  0.00    -0.089 HD
ATOM     25  H   UNL     1       2.554   1.436   0.225  0.00  0.00    -0.089 HD
ENDBRANCH  21  22
BRANCH  21  26
ATOM     26  C   UNL     1       1.042  -0.199  -1.128  0.00  0.00    -0.004 C 
BRANCH  26  28
ATOM     27  C   UNL     1      -1.164   0.515  -0.198  0.00  0.00    +0.007 C 
ATOM     28  C   UNL     1       0.320   0.317   0.118  0.00  0.00    -0.018 C 
ATOM     29  C   UNL     1       0.468  -0.700   1.252  0.00  0.00    +0.007 C 
ENDBRANCH  26  28
ENDBRANCH  21  26
ENDBRANCH   1  21
TORSDOF 6
