REMARK  Name = ZINC03316836
REMARK  6 active torsions:
REMARK  status: ('A' for Active; 'I' for Inactive)
REMARK    1  A    between atoms: C_1  and  C_2
REMARK    2  A    between atoms: C_5  and  C_9
REMARK    3  A    between atoms: C_6  and  C_8
REMARK    4  A    between atoms: C_9  and  O_11
REMARK    5  A    between atoms: O_11  and  C_12
REMARK    6  A    between atoms: C_12  and  C_13
REMARK                            x       y       z     vdW  Elec       q    Type
REMARK                         _______ _______ _______ _____ _____    ______ ____
ROOT
ATOM      1  C   UNL     1      -1.300   0.564   1.121  0.00  0.00    +0.149 A 
ATOM      2  N   UNL     1      -0.937   0.011   2.307  0.00  0.00    -0.308 N 
ATOM      3  H   UNL     1      -0.140  -0.592   2.343  0.00  0.00    +0.170 HD
ATOM      4  C   UNL     1      -1.629   0.257   3.435  0.00  0.00    +0.260 A 
ATOM      5  O   UNL     1      -1.287  -0.243   4.493  0.00  0.00    -0.267 OA
ATOM      6  C   UNL     1      -2.776   1.114   3.371  0.00  0.00    +0.075 A 
ATOM      7  C   UNL     1      -3.671   1.516   4.455  0.00  0.00    -0.023 A 
ATOM      8  C   UNL     1      -4.691   2.340   4.134  0.00  0.00    -0.004 A 
ATOM      9  S   UNL     1      -4.520   2.624   2.393  0.00  0.00    -0.073 S 
ATOM     10  C   UNL     1      -3.076   1.633   2.102  0.00  0.00    +0.116 A 
ATOM     11  N   UNL     1      -2.341   1.347   1.031  0.00  0.00    -0.223 NA
ATOM     12  C   UNL     1      -5.737   2.890   5.054  0.00  0.00    +0.043 C 
ATOM     13  C   UNL     1      -5.704   2.086   6.362  0.00  0.00    +0.005 C 
ATOM     14  C   UNL     1      -4.251   1.966   6.829  0.00  0.00    +0.005 C 
ATOM     15  C   UNL     1      -3.479   1.036   5.891  0.00  0.00    +0.037 C 
ENDROOT
BRANCH   1  16
ATOM     16  C   UNL     1      -0.491   0.263  -0.114  0.00  0.00    +0.306 C 
BRANCH  16  17
ATOM     17  O   UNL     1      -1.070   0.955  -1.252  0.00  0.00    -0.453 OA
BRANCH  17  18
ATOM     18  C   UNL     1      -0.461   0.790  -2.442  0.00  0.00    +0.340 C 
ATOM     19  O   UNL     1       0.526   0.087  -2.527  0.00  0.00    -0.245 OA
BRANCH  18  24
ATOM     20  C   UNL     1      -2.534   3.416  -7.123  0.00  0.00    +0.044 C 
ATOM     21  C   UNL     1      -1.991   2.728  -5.897  0.00  0.00    -0.050 A 
ATOM     22  C   UNL     1      -2.690   2.793  -4.704  0.00  0.00    +0.004 A 
ATOM     23  C   UNL     1      -2.199   2.166  -3.579  0.00  0.00    +0.015 A 
ATOM     24  C   UNL     1      -0.993   1.464  -3.644  0.00  0.00    +0.062 A 
ATOM     25  C   UNL     1      -0.291   1.406  -4.850  0.00  0.00    -0.036 A 
ATOM     26  C   UNL     1      -0.796   2.034  -5.969  0.00  0.00    +0.007 A 
ATOM     27  C   UNL     1       1.013   0.656  -4.929  0.00  0.00    +0.044 C 
ENDBRANCH  18  24
ENDBRANCH  17  18
ENDBRANCH  16  17
ENDBRANCH   1  16
TORSDOF 4
