REMARK  Name = ZINC36970984
REMARK  4 active torsions:
REMARK  status: ('A' for Active; 'I' for Inactive)
REMARK    1  A    between atoms: C_3  and  C_8
REMARK    2  A    between atoms: C_8  and  N_9
REMARK    3  A    between atoms: N_9  and  C_10
REMARK    4  A    between atoms: C_13  and  N_17
REMARK                            x       y       z     vdW  Elec       q    Type
REMARK                         _______ _______ _______ _____ _____    ______ ____
ROOT
ATOM      1  N   UNL     1       4.105   2.426   1.356  0.00  0.00    -0.339 N 
ATOM      2  H   UNL     1       3.571   2.099   2.097  0.00  0.00    +0.146 HD
ENDROOT
BRANCH   1   3
ATOM      3  C   UNL     1       5.287   3.129   1.603  0.00  0.00    +0.046 A 
ATOM      4  C   UNL     1       6.050   3.602   0.544  0.00  0.00    +0.026 A 
ATOM      5  C   UNL     1       7.218   4.297   0.792  0.00  0.00    +0.034 A 
ATOM      6  C   UNL     1       7.629   4.520   2.093  0.00  0.00    +0.128 A 
ATOM      7  C   UNL     1       6.873   4.050   3.151  0.00  0.00    +0.054 A 
ATOM      8  C   UNL     1       5.700   3.360   2.910  0.00  0.00    +0.064 A 
ATOM      9 CL   UNL     1       4.747   2.776   4.239  0.00  0.00    -0.082 Cl
BRANCH   6  10
ATOM     10  N   UNL     1       8.882   5.264   2.354  0.00  0.00    +0.056 N 
ATOM     11  O   UNL     1       9.545   5.675   1.431  0.00  0.00    -0.126 OA
ATOM     12  O   UNL     1       9.242   5.460   3.491  0.00  0.00    -0.126 OA
ENDBRANCH   6  10
ENDBRANCH   1   3
BRANCH   1  13
ATOM     13  C   UNL     1       3.672   2.183  -0.022  0.00  0.00    +0.137 C 
BRANCH  13  16
ATOM     14  C   UNL     1      -0.017   1.378   0.010  0.00  0.00    +0.001 A 
ATOM     15  C   UNL     1       1.171   2.086   0.002  0.00  0.00    +0.005 A 
ATOM     16  C   UNL     1       2.378   1.411  -0.013  0.00  0.00    -0.029 A 
ATOM     17  C   UNL     1       2.397   0.029  -0.022  0.00  0.00    +0.020 A 
ATOM     18  C   UNL     1       1.210  -0.679  -0.014  0.00  0.00    +0.018 A 
ATOM     19  C   UNL     1       0.002  -0.004   0.002  0.00  0.00    +0.015 A 
ATOM     20 BR   UNL     1       1.236  -2.570  -0.025  0.00  0.00    -0.050 Br
ENDBRANCH  13  16
ENDBRANCH   1  13
TORSDOF 4
