REMARK  Name = ZINC64041871
REMARK  4 active torsions:
REMARK  status: ('A' for Active; 'I' for Inactive)
REMARK    1  A    between atoms: C_1  and  C_2
REMARK    2  A    between atoms: C_3  and  N_9
REMARK    3  A    between atoms: N_9  and  C_10
REMARK    4  A    between atoms: C_13  and  C_16
REMARK                            x       y       z     vdW  Elec       q    Type
REMARK                         _______ _______ _______ _____ _____    ______ ____
ROOT
ATOM      1  C   UNL     1       0.093  -0.667  -3.533  0.00  0.00    +0.200 C 
ATOM      2  N   UNL     1       0.108  -2.014  -3.555  0.00  0.00    -0.125 NA
ATOM      3  N   UNL     1       0.322  -2.727  -4.582  0.00  0.00    -0.151 NA
ATOM      4  C   UNL     1       0.693  -2.347  -5.790  0.00  0.00    +0.079 C 
ATOM      5  C   UNL     1       1.185  -0.950  -6.084  0.00  0.00    +0.134 C 
ATOM      6  S   UNL     1       0.208   0.208  -5.067  0.00  0.00    -0.081 S 
ENDROOT
BRANCH   4   7
ATOM      7  C   UNL     1       0.629  -3.246  -6.807  0.00  0.00    +0.005 C 
ATOM      8  C   UNL     1       0.178  -4.641  -6.734  0.00  0.00    +0.005 A 
ATOM      9  C   UNL     1      -0.291  -5.405  -5.657  0.00  0.00    +0.010 A 
ATOM     10  C   UNL     1      -0.659  -6.717  -5.855  0.00  0.00    +0.001 A 
ATOM     11  C   UNL     1      -0.565  -7.284  -7.117  0.00  0.00    +0.002 A 
ATOM     12  C   UNL     1      -0.106  -6.545  -8.187  0.00  0.00    +0.026 A 
ATOM     13  C   UNL     1       0.272  -5.215  -8.012  0.00  0.00    +0.043 A 
ATOM     14  N   UNL     1       0.756  -4.295  -8.932  0.00  0.00    -0.380 N 
ATOM     15  C   UNL     1       1.003  -3.019  -8.255  0.00  0.00    +0.150 C 
ATOM     16  H   UNL     1       0.903  -4.469  -9.875  0.00  0.00    +0.160 HD
ENDBRANCH   4   7
BRANCH   1  17
ATOM     17  N   UNL     1      -0.009  -0.015  -2.393  0.00  0.00    -0.188 NA
BRANCH  17  20
ATOM     18  C   UNL     1      -1.303   0.881  -0.026  0.00  0.00    +0.047 C 
ATOM     19  C   UNL     1      -0.291  -0.235  -0.025  0.00  0.00    -0.009 A 
ATOM     20  C   UNL     1       0.314  -0.634  -1.220  0.00  0.00    +0.060 A 
ATOM     21  C   UNL     1       1.252  -1.671  -1.209  0.00  0.00    +0.025 A 
ATOM     22  C   UNL     1       1.574  -2.293  -0.021  0.00  0.00    +0.003 A 
ATOM     23  C   UNL     1       0.972  -1.893   1.159  0.00  0.00    +0.020 A 
ATOM     24  C   UNL     1       0.046  -0.863   1.157  0.00  0.00    +0.046 A 
ATOM     25 CL   UNL     1      -0.698  -0.365   2.645  0.00  0.00    -0.083 Cl
ENDBRANCH  17  20
ENDBRANCH   1  17
TORSDOF 3
