REMARK  Name = ZINC06077630
REMARK  12 active torsions:
REMARK  status: ('A' for Active; 'I' for Inactive)
REMARK    1  A    between atoms: C_1  and  C_2
REMARK    2  A    between atoms: C_2  and  C_3
REMARK    3  A    between atoms: C_3  and  C_4
REMARK    4  A    between atoms: C_3  and  C_5
REMARK    5  A    between atoms: C_3  and  N_6
REMARK    6  A    between atoms: C_7  and  C_11
REMARK    7  A    between atoms: C_11  and  C_13
REMARK    8  A    between atoms: C_11  and  N_74
REMARK    9  A    between atoms: C_19  and  C_25
REMARK   10  A    between atoms: N_28  and  C_31
REMARK   11  A    between atoms: C_33  and  C_38
REMARK   12  A    between atoms: C_36  and  C_37
REMARK                            x       y       z     vdW  Elec       q    Type
REMARK                         _______ _______ _______ _____ _____    ______ ____
ROOT
ATOM      1  C   UNL     1       5.573   6.957   0.044  0.00  0.00    +0.039 C 
ENDROOT
BRANCH   1   2
ATOM      2  C   UNL     1       6.835   6.145   0.183  0.00  0.00    +0.011 A 
ATOM      3  C   UNL     1       7.888   6.389  -0.635  0.00  0.00    +0.017 A 
ATOM      4  C   UNL     1       9.101   5.585  -0.471  0.00  0.00    -0.001 A 
ATOM      5  C   UNL     1      10.222   5.793  -1.282  0.00  0.00    +0.010 A 
ATOM      6  C   UNL     1      11.336   5.022  -1.108  0.00  0.00    +0.001 A 
ATOM      7  C   UNL     1      11.367   4.034  -0.133  0.00  0.00    +0.005 A 
ATOM      8  C   UNL     1      10.274   3.812   0.677  0.00  0.00    -0.026 A 
ATOM      9  C   UNL     1       9.128   4.584   0.518  0.00  0.00    +0.052 A 
ATOM     10  N   UNL     1       8.021   4.383   1.314  0.00  0.00    -0.322 N 
ATOM     11  H   UNL     1       8.042   3.671   2.017  0.00  0.00    +0.169 HD
ATOM     12  C   UNL     1       6.913   5.129   1.160  0.00  0.00    +0.251 A 
ATOM     13  O   UNL     1       5.953   4.923   1.882  0.00  0.00    -0.268 OA
ATOM     14  C   UNL     1      10.321   2.736   1.732  0.00  0.00    +0.046 C 
ENDBRANCH   1   2
BRANCH   1  20
ATOM     15  C   UNL     1       3.186   6.816  -0.341  0.00  0.00    -0.058 C 
ATOM     16  C   UNL     1       2.012   5.843  -0.477  0.00  0.00    +0.086 C 
ATOM     17  N   UNL     1       2.248   4.952  -1.621  0.00  0.00    -0.333 N 
ATOM     18  C   UNL     1       3.493   4.192  -1.446  0.00  0.00    +0.086 C 
ATOM     19  C   UNL     1       4.667   5.165  -1.310  0.00  0.00    -0.058 C 
ATOM     20  N   UNL     1       4.428   6.040  -0.143  0.00  0.00    +0.391 N 
ATOM     21  H   UNL     1       4.327   5.457   0.696  0.00  0.00    -0.080 HD
BRANCH  17  22
ATOM     22  C   UNL     1       1.163   4.096  -1.821  0.00  0.00    +0.033 A 
ATOM     23  C   UNL     1       0.775   3.217  -0.817  0.00  0.00    +0.026 A 
ATOM     24  C   UNL     1      -0.298   2.372  -1.018  0.00  0.00    -0.049 A 
ATOM     25  C   UNL     1      -0.991   2.403  -2.214  0.00  0.00    +0.004 A 
ATOM     26  C   UNL     1      -0.604   3.272  -3.218  0.00  0.00    +0.005 A 
ATOM     27  C   UNL     1       0.468   4.121  -3.024  0.00  0.00    -0.029 A 
ATOM     28  C   UNL     1       0.884   5.073  -4.115  0.00  0.00    +0.045 C 
ATOM     29  C   UNL     1      -0.719   1.419   0.071  0.00  0.00    +0.044 C 
ENDBRANCH  17  22
ENDBRANCH   1  20
BRANCH   1  31
ATOM     30  N   UNL     1       5.454   9.099   1.424  0.00  0.00    -0.225 N 
ATOM     31  C   UNL     1       5.353   7.762   1.299  0.00  0.00    +0.143 A 
ATOM     32  N   UNL     1       5.021   7.298   2.479  0.00  0.00    -0.115 NA
ATOM     33  N   UNL     1       4.931   8.296   3.288  0.00  0.00    -0.023 NA
ATOM     34  N   UNL     1       5.189   9.386   2.653  0.00  0.00    -0.043 NA
BRANCH  30  35
ATOM     35  C   UNL     1       5.801  10.048   0.363  0.00  0.00    +0.061 C 
ATOM     36  C   UNL     1       7.160   9.675  -0.231  0.00  0.00    +0.036 C 
ATOM     37  C   UNL     1       4.734  10.000  -0.733  0.00  0.00    +0.036 C 
BRANCH  35  39
ATOM     38  C   UNL     1       6.231  12.453  -0.161  0.00  0.00    +0.006 C 
ATOM     39  C   UNL     1       5.869  11.461   0.946  0.00  0.00    +0.026 C 
ENDBRANCH  35  39
ENDBRANCH  30  35
ENDBRANCH   1  31
TORSDOF 6
