REMARK  Name = ZINC65820469
REMARK  9 active torsions:
REMARK  status: ('A' for Active; 'I' for Inactive)
REMARK    1  A    between atoms: C_1  and  C_2
REMARK    2  A    between atoms: C_6  and  O_22
REMARK    3  A    between atoms: C_7  and  N_8
REMARK    4  A    between atoms: N_11  and  C_12
REMARK    5  A    between atoms: C_12  and  C_13
REMARK    6  A    between atoms: C_12  and  C_14
REMARK    7  A    between atoms: C_14  and  C_15
REMARK    8  A    between atoms: C_18  and  O_21
REMARK    9  A    between atoms: O_22  and  C_23
REMARK                            x       y       z     vdW  Elec       q    Type
REMARK                         _______ _______ _______ _____ _____    ______ ____
ROOT
ATOM      1  N   UNL     1       0.025  -0.011   2.418  0.00  0.00    -0.266 N 
ATOM      2  C   UNL     1      -0.355  -0.637   3.549  0.00  0.00    +0.304 C 
ATOM      3  O   UNL     1      -0.612  -1.825   3.530  0.00  0.00    -0.252 OA
ATOM      4  N   UNL     1      -0.451   0.054   4.702  0.00  0.00    -0.296 N 
ATOM      5  H   UNL     1       0.300   0.919   2.447  0.00  0.00    +0.156 HD
ATOM      6  H   UNL     1      -0.246   1.002   4.718  0.00  0.00    +0.151 HD
ENDROOT
BRANCH   1  13
ATOM      7  C   UNL     1       2.439  -1.254   1.572  0.00  0.00    +0.046 C 
ATOM      8  C   UNL     1       1.179  -1.324   0.750  0.00  0.00    -0.025 A 
ATOM      9  C   UNL     1       1.173  -2.010  -0.450  0.00  0.00    +0.020 A 
ATOM     10  C   UNL     1       0.017  -2.077  -1.207  0.00  0.00    +0.022 A 
ATOM     11  C   UNL     1      -1.138  -1.456  -0.768  0.00  0.00    +0.062 A 
ATOM     12  C   UNL     1      -1.140  -0.765   0.433  0.00  0.00    +0.143 A 
ATOM     13  C   UNL     1       0.022  -0.704   1.199  0.00  0.00    +0.080 A 
ATOM     14 BR   UNL     1       0.017  -3.018  -2.847  0.00  0.00    -0.050 Br
BRANCH  12  15
ATOM     15  O   UNL     1      -2.275  -0.154   0.866  0.00  0.00    -0.493 OA
ATOM     16  C   UNL     1      -3.430  -0.264   0.032  0.00  0.00    +0.277 C 
ENDBRANCH  12  15
ENDBRANCH   1  13
BRANCH   4  17
ATOM     17  C   UNL     1      -0.864  -0.627   5.932  0.00  0.00    +0.076 C 
ATOM     18  C   UNL     1       0.356  -1.274   6.591  0.00  0.00    +0.028 C 
BRANCH  17  19
ATOM     19  C   UNL     1      -1.484   0.389   6.894  0.00  0.00    +0.057 C 
BRANCH  19  20
ATOM     20  C   UNL     1      -2.754   0.936   6.295  0.00  0.00    -0.045 A 
ATOM     21  C   UNL     1      -2.710   2.061   5.492  0.00  0.00    +0.007 A 
ATOM     22  C   UNL     1      -3.873   2.565   4.943  0.00  0.00    +0.045 A 
ATOM     23  C   UNL     1      -5.086   1.941   5.196  0.00  0.00    +0.117 A 
ATOM     24  C   UNL     1      -5.128   0.813   6.002  0.00  0.00    +0.045 A 
ATOM     25  C   UNL     1      -3.961   0.309   6.545  0.00  0.00    +0.007 A 
BRANCH  23  26
ATOM     26  O   UNL     1      -6.231   2.436   4.657  0.00  0.00    -0.507 OA
ATOM     27  H   UNL     1      -6.449   2.067   3.790  0.00  0.00    +0.292 HD
ENDBRANCH  23  26
ENDBRANCH  19  20
ENDBRANCH  17  19
ENDBRANCH   4  17
TORSDOF 6
