REMARK  Name = ZINC26457517
REMARK  8 active torsions:
REMARK  status: ('A' for Active; 'I' for Inactive)
REMARK    1  A    between atoms: C_1  and  C_2
REMARK    2  A    between atoms: C_2  and  C_3
REMARK    3  A    between atoms: C_2  and  C_4
REMARK    4  A    between atoms: C_4  and  N_5
REMARK    5  A    between atoms: C_9  and  C_11
REMARK    6  A    between atoms: C_11  and  N_12
REMARK    7  A    between atoms: C_16  and  C_18
REMARK    8  A    between atoms: N_20  and  C_21
REMARK                            x       y       z     vdW  Elec       q    Type
REMARK                         _______ _______ _______ _____ _____    ______ ____
ROOT
ATOM      1  N   UNL     1       0.024   0.016   0.036  0.00  0.00    +0.393 N 
ATOM      2  C   UNL     1      -0.077   1.485  -0.047  0.00  0.00    -0.077 C 
ATOM      3  C   UNL     1       1.358   2.047   0.031  0.00  0.00    -0.020 C 
ATOM      4  C   UNL     1       2.144   0.903   0.724  0.00  0.00    -0.008 C 
ATOM      5  C   UNL     1       1.453  -0.352   0.137  0.00  0.00    +0.020 C 
ATOM      6  H   UNL     1      -0.517  -0.342   0.923  0.00  0.00    -0.080 HD
ENDROOT
BRANCH   5   7
ATOM      7  C   UNL     1       1.627  -1.528   1.063  0.00  0.00    +0.204 C 
ATOM      8  O   UNL     1       0.660  -2.027   1.598  0.00  0.00    -0.277 OA
ATOM      9  N   UNL     1       2.858  -2.026   1.295  0.00  0.00    -0.286 N 
ATOM     10  H   UNL     1       3.741  -1.535   0.861  0.00  0.00    +0.155 HD
BRANCH   9  11
ATOM     11  C   UNL     1       3.012  -3.168   2.091  0.00  0.00    +0.052 A 
ATOM     12  C   UNL     1       2.056  -3.485   3.046  0.00  0.00    +0.026 A 
ATOM     13  C   UNL     1       2.208  -4.615   3.825  0.00  0.00    +0.022 A 
ATOM     14  C   UNL     1       3.317  -5.426   3.663  0.00  0.00    +0.042 A 
ATOM     15  C   UNL     1       4.275  -5.110   2.715  0.00  0.00    +0.041 A 
ATOM     16  C   UNL     1       4.125  -3.984   1.929  0.00  0.00    +0.064 A 
ATOM     17 CL   UNL     1       5.327  -3.588   0.739  0.00  0.00    -0.082 Cl
ATOM     18 CL   UNL     1       3.508  -6.842   4.649  0.00  0.00    -0.083 Cl
ENDBRANCH   9  11
ENDBRANCH   5   7
BRANCH   1  19
ATOM     19  C   UNL     1      -0.603  -0.621  -1.130  0.00  0.00    +0.020 C 
BRANCH  19  24
ATOM     20  N   UNL     1      -4.950  -0.913  -3.160  0.00  0.00    -0.299 N 
ATOM     21  C   UNL     1      -4.181  -0.512  -2.129  0.00  0.00    +0.306 C 
ATOM     22  O   UNL     1      -4.683   0.066  -1.185  0.00  0.00    -0.252 OA
ATOM     23  N   UNL     1      -2.855  -0.753  -2.144  0.00  0.00    -0.242 N 
ATOM     24  C   UNL     1      -2.085  -0.352  -1.113  0.00  0.00    +0.204 C 
ATOM     25  O   UNL     1      -2.586   0.224  -0.171  0.00  0.00    -0.277 OA
ATOM     26  H   UNL     1      -4.496  -1.436  -4.015  0.00  0.00    +0.150 HD
ATOM     27  H   UNL     1      -2.400  -1.276  -2.999  0.00  0.00    +0.159 HD
BRANCH  20  28
ATOM     28  C   UNL     1      -6.392  -0.651  -3.144  0.00  0.00    +0.108 C 
BRANCH  28  30
ATOM     29  C   UNL     1      -6.890  -2.728  -4.441  0.00  0.00    +0.009 C 
ATOM     30  C   UNL     1      -7.025  -1.204  -4.422  0.00  0.00    -0.000 C 
ATOM     31  C   UNL     1      -8.506  -0.822  -4.464  0.00  0.00    +0.009 C 
ENDBRANCH  28  30
ENDBRANCH  20  28
ENDBRANCH  19  24
ENDBRANCH   1  19
TORSDOF 6
