REMARK  Name = ZINC63361831
REMARK  10 active torsions:
REMARK  status: ('A' for Active; 'I' for Inactive)
REMARK    1  A    between atoms: C_1  and  C_2
REMARK    2  A    between atoms: C_2  and  C_3
REMARK    3  A    between atoms: C_3  and  C_4
REMARK    4  A    between atoms: C_4  and  C_5
REMARK    5  A    between atoms: C_5  and  C_6
REMARK    6  A    between atoms: C_6  and  C_8
REMARK    7  A    between atoms: C_6  and  N_9
REMARK    8  A    between atoms: C_10  and  C_12
REMARK    9  A    between atoms: C_17  and  N_18
REMARK   10  A    between atoms: C_21  and  C_37
REMARK                            x       y       z     vdW  Elec       q    Type
REMARK                         _______ _______ _______ _____ _____    ______ ____
ROOT
ATOM      1  N   UNL     1       1.651  -8.340  -0.345  0.00  0.00    -0.192 N 
ATOM      2  C   UNL     1       0.365  -8.352  -0.753  0.00  0.00    +0.253 C 
ATOM      3  O   UNL     1      -0.137  -7.656  -1.609  0.00  0.00    -0.272 OA
ATOM      4  C   UNL     1      -0.320  -9.414   0.079  0.00  0.00    +0.137 C 
ATOM      5  C   UNL     1      -1.431  -8.784   0.927  0.00  0.00    +0.139 C 
ATOM      6  C   UNL     1      -1.684  -9.740   2.086  0.00  0.00    -0.034 C 
ATOM      7  C   UNL     1      -2.972 -10.065   2.028  0.00  0.00    -0.001 A 
ATOM      8  C   UNL     1      -3.810 -10.898   2.906  0.00  0.00    +0.010 A 
ATOM      9  C   UNL     1      -5.112 -11.032   2.540  0.00  0.00    +0.001 A 
ATOM     10  C   UNL     1      -5.658 -10.428   1.404  0.00  0.00    +0.002 A 
ATOM     11  C   UNL     1      -4.962  -9.642   0.544  0.00  0.00    +0.026 A 
ATOM     12  C   UNL     1      -3.582  -9.423   0.824  0.00  0.00    +0.043 A 
ATOM     13  N   UNL     1      -2.691  -8.704   0.183  0.00  0.00    -0.375 N 
ATOM     14  C   UNL     1      -0.598 -10.216   3.019  0.00  0.00    +0.052 C 
ATOM     15  C   UNL     1       0.546 -10.764   2.142  0.00  0.00    +0.115 C 
ATOM     16  N   UNL     1       0.741  -9.846   1.016  0.00  0.00    -0.268 N 
ATOM     17  C   UNL     1       1.864  -9.219   0.643  0.00  0.00    +0.317 C 
ATOM     18  O   UNL     1       2.952  -9.422   1.146  0.00  0.00    -0.252 OA
ATOM     19  C   UNL     1      -0.833 -10.571  -0.781  0.00  0.00    +0.044 C 
ATOM     20  H   UNL     1      -2.834  -8.210  -0.639  0.00  0.00    +0.160 HD
ENDROOT
BRANCH   1  26
ATOM     21  C   UNL     1       2.875  -6.246  -0.346  0.00  0.00    +0.059 A 
ATOM     22  C   UNL     1       3.870  -5.434  -0.896  0.00  0.00    +0.015 A 
ATOM     23  C   UNL     1       4.608  -5.884  -1.970  0.00  0.00    +0.001 A 
ATOM     24  C   UNL     1       4.368  -7.138  -2.507  0.00  0.00    +0.002 A 
ATOM     25  C   UNL     1       3.388  -7.951  -1.974  0.00  0.00    +0.025 A 
ATOM     26  C   UNL     1       2.639  -7.517  -0.889  0.00  0.00    +0.058 A 
BRANCH  21  28
ATOM     27  N   UNL     1       2.312  -4.549   1.323  0.00  0.00    -0.309 N 
ATOM     28  C   UNL     1       2.081  -5.771   0.804  0.00  0.00    +0.246 C 
ATOM     29  O   UNL     1       1.220  -6.483   1.283  0.00  0.00    -0.270 OA
ATOM     30  H   UNL     1       2.999  -3.981   0.940  0.00  0.00    +0.149 HD
BRANCH  27  31
ATOM     31  C   UNL     1       1.524  -4.077   2.464  0.00  0.00    +0.070 C 
ATOM     32  C   UNL     1       2.152  -4.586   3.763  0.00  0.00    +0.028 C 
BRANCH  31  33
ATOM     33  C   UNL     1       1.503  -2.548   2.473  0.00  0.00    +0.022 C 
BRANCH  33  34
ATOM     34  C   UNL     1       0.763  -2.041   1.233  0.00  0.00    +0.002 C 
BRANCH  34  35
ATOM     35  C   UNL     1       0.742  -0.511   1.242  0.00  0.00    -0.000 C 
BRANCH  35  37
ATOM     36  C   UNL     1      -0.019   1.526   0.010  0.00  0.00    +0.004 C 
ATOM     37  C   UNL     1       0.002  -0.004   0.002  0.00  0.00    -0.003 C 
ENDBRANCH  35  37
ENDBRANCH  34  35
ENDBRANCH  33  34
ENDBRANCH  31  33
ENDBRANCH  27  31
ENDBRANCH  21  28
ENDBRANCH   1  26
TORSDOF 7
