REMARK  Name = ZINC08858006
REMARK  12 active torsions:
REMARK  status: ('A' for Active; 'I' for Inactive)
REMARK    1  A    between atoms: C_1  and  C_2
REMARK    2  A    between atoms: C_2  and  C_3
REMARK    3  A    between atoms: C_3  and  N_4
REMARK    4  A    between atoms: N_4  and  C_5
REMARK    5  A    between atoms: C_6  and  C_16
REMARK    6  A    between atoms: N_20  and  C_24
REMARK    7  A    between atoms: C_24  and  C_25
REMARK    8  A    between atoms: C_25  and  C_26
REMARK    9  A    between atoms: C_29  and  O_34
REMARK   10  A    between atoms: C_30  and  O_32
REMARK   11  A    between atoms: O_32  and  C_33
REMARK   12  A    between atoms: O_34  and  C_35
REMARK                            x       y       z     vdW  Elec       q    Type
REMARK                         _______ _______ _______ _____ _____    ______ ____
ROOT
ATOM      1  C   UNL     1       2.451   3.212  -0.004  0.00  0.00    +0.037 C 
ATOM      2  C   UNL     1       1.752   2.064   0.232  0.00  0.00    +0.077 C 
ATOM      3  C   UNL     1       2.205   0.714   0.249  0.00  0.00    +0.258 C 
ATOM      4  O   UNL     1       3.373   0.443   0.033  0.00  0.00    -0.269 OA
ATOM      5  N   UNL     1       1.323  -0.236   0.506  0.00  0.00    -0.255 N 
ATOM      6  C   UNL     1       0.027   0.065   0.746  0.00  0.00    +0.121 C 
ATOM      7  S   UNL     1      -1.274  -0.991   1.097  0.00  0.00    -0.027 S 
ATOM      8  S   UNL     1       0.017   1.846   0.604  0.00  0.00    -0.061 S 
ENDROOT
BRANCH   1  10
ATOM      9  C   UNL     1       0.727   4.632  -1.035  0.00  0.00    +0.134 A 
ATOM     10  C   UNL     1       1.771   4.448  -0.098  0.00  0.00    +0.081 A 
ATOM     11  C   UNL     1       2.122   5.534   0.739  0.00  0.00    +0.267 A 
ATOM     12  O   UNL     1       3.018   5.422   1.558  0.00  0.00    -0.267 OA
ATOM     13  N   UNL     1       1.446   6.697   0.616  0.00  0.00    -0.268 N 
ATOM     14  C   UNL     1       1.777   7.749   1.418  0.00  0.00    +0.096 A 
ATOM     15  C   UNL     1       1.121   8.927   1.320  0.00  0.00    +0.018 A 
ATOM     16  C   UNL     1       0.087   9.081   0.387  0.00  0.00    +0.005 A 
ATOM     17  C   UNL     1      -0.252   8.035  -0.419  0.00  0.00    +0.047 A 
ATOM     18  C   UNL     1       0.442   6.817  -0.304  0.00  0.00    +0.142 A 
ATOM     19  N   UNL     1       0.104   5.800  -1.098  0.00  0.00    -0.214 NA
BRANCH   9  20
ATOM     20  N   UNL     1       0.357   3.603  -1.873  0.00  0.00    -0.328 N 
ATOM     21  H   UNL     1       0.813   2.748  -1.822  0.00  0.00    +0.147 HD
BRANCH  20  22
ATOM     22  C   UNL     1      -0.725   3.799  -2.841  0.00  0.00    +0.102 C 
BRANCH  22  24
ATOM     23  C   UNL     1      -2.063   2.716  -4.652  0.00  0.00    +0.005 C 
ATOM     24  C   UNL     1      -0.933   2.512  -3.641  0.00  0.00    +0.015 C 
ENDBRANCH  22  24
ENDBRANCH  20  22
ENDBRANCH   9  20
ENDBRANCH   1  10
BRANCH   5  25
ATOM     25  C   UNL     1       1.756  -1.635   0.532  0.00  0.00    +0.119 C 
BRANCH  25  26
ATOM     26  C   UNL     1       1.619  -2.237  -0.868  0.00  0.00    +0.054 C 
BRANCH  26  27
ATOM     27  C   UNL     1       2.064  -3.677  -0.841  0.00  0.00    -0.042 A 
ATOM     28  C   UNL     1       1.148  -4.677  -0.573  0.00  0.00    +0.007 A 
ATOM     29  C   UNL     1       1.552  -5.999  -0.547  0.00  0.00    +0.049 A 
ATOM     30  C   UNL     1       2.876  -6.324  -0.792  0.00  0.00    +0.161 A 
ATOM     31  C   UNL     1       3.798  -5.317  -1.062  0.00  0.00    +0.162 A 
ATOM     32  C   UNL     1       3.386  -3.995  -1.091  0.00  0.00    +0.053 A 
BRANCH  31  33
ATOM     33  O   UNL     1       5.099  -5.631  -1.302  0.00  0.00    -0.491 OA
ATOM     34  C   UNL     1       5.989  -4.546  -1.572  0.00  0.00    +0.277 C 
ENDBRANCH  31  33
BRANCH  30  35
ATOM     35  O   UNL     1       3.275  -7.624  -0.767  0.00  0.00    -0.491 OA
ATOM     36  C   UNL     1       2.274  -8.604  -0.483  0.00  0.00    +0.277 C 
ENDBRANCH  30  35
ENDBRANCH  26  27
ENDBRANCH  25  26
ENDBRANCH   5  25
TORSDOF 9
