REMARK  Name = ZINC15057106
REMARK  13 active torsions:
REMARK  status: ('A' for Active; 'I' for Inactive)
REMARK    1  A    between atoms: C_1  and  C_2
REMARK    2  A    between atoms: C_3  and  C_32
REMARK    3  A    between atoms: N_4  and  C_25
REMARK    4  A    between atoms: C_5  and  N_9
REMARK    5  A    between atoms: C_6  and  C_7
REMARK    6  A    between atoms: C_10  and  C_12
REMARK    7  A    between atoms: C_12  and  N_61
REMARK    8  A    between atoms: C_13  and  C_15
REMARK    9  A    between atoms: C_13  and  C_22
REMARK   10  A    between atoms: C_13  and  N_61
REMARK   11  A    between atoms: C_22  and  C_23
REMARK   12  A    between atoms: C_22  and  C_24
REMARK   13  A    between atoms: C_25  and  C_26
REMARK                            x       y       z     vdW  Elec       q    Type
REMARK                         _______ _______ _______ _____ _____    ______ ____
ROOT
ATOM      1  N   UNL     1      -1.725  -0.824  -2.587  0.00  0.00    -0.272 N 
ATOM      2  C   UNL     1      -2.501  -0.370  -1.583  0.00  0.00    +0.201 C 
ATOM      3  O   UNL     1      -2.309   0.735  -1.121  0.00  0.00    -0.278 OA
ATOM      4  H   UNL     1      -1.931  -1.670  -3.014  0.00  0.00    +0.156 HD
ENDROOT
BRANCH   1   9
ATOM      5  C   UNL     1       2.245   2.299  -2.729  0.00  0.00    +0.047 C 
ATOM      6  C   UNL     1       1.164   1.320  -3.109  0.00  0.00    -0.011 A 
ATOM      7  C   UNL     1       0.960   0.780  -4.321  0.00  0.00    +0.022 A 
ATOM      8  N   UNL     1      -0.121  -0.058  -4.268  0.00  0.00    -0.329 N 
ATOM      9  C   UNL     1      -0.633  -0.082  -3.010  0.00  0.00    +0.123 A 
ATOM     10  C   UNL     1       0.132   0.768  -2.223  0.00  0.00    +0.095 A 
ATOM     11  C   UNL     1       1.789   1.056  -5.549  0.00  0.00    +0.064 C 
BRANCH  10  12
ATOM     12  C   UNL     1      -0.050   1.050  -0.830  0.00  0.00    +0.103 C 
ATOM     13  N   UNL     1      -0.194   1.273   0.274  0.00  0.00    -0.191 NA
ENDBRANCH  10  12
BRANCH   8  14
ATOM     14  C   UNL     1      -0.646  -0.824  -5.401  0.00  0.00    +0.154 C 
BRANCH  14  15
ATOM     15  C   UNL     1      -1.789  -0.046  -6.056  0.00  0.00    +0.138 C 
ATOM     16  C   UNL     1      -2.428  -0.895  -7.176  0.00  0.00    +0.035 C 
ATOM     17  C   UNL     1      -2.710   0.166  -8.274  0.00  0.00    +0.031 C 
ATOM     18  C   UNL     1      -1.507   1.122  -8.075  0.00  0.00    +0.160 C 
ATOM     19  O   UNL     1      -1.282   1.151  -6.656  0.00  0.00    -0.375 OA
ENDBRANCH  14  15
ENDBRANCH   8  14
ENDBRANCH   1   9
BRANCH   2  20
ATOM     20  C   UNL     1      -3.606  -1.234  -1.034  0.00  0.00    +0.016 C 
BRANCH  20  21
ATOM     21  N   UNL     1      -4.296  -0.507   0.049  0.00  0.00    +0.389 N 
ATOM     22  H   UNL     1      -4.689   0.364  -0.326  0.00  0.00    -0.084 HD
ATOM     23  H   UNL     1      -3.623  -0.288   0.792  0.00  0.00    -0.084 HD
BRANCH  21  24
ATOM     24  C   UNL     1      -5.385  -1.331   0.606  0.00  0.00    -0.038 C 
BRANCH  24  25
ATOM     25  C   UNL     1      -5.660  -0.896   2.022  0.00  0.00    -0.061 A 
ATOM     26  C   UNL     1      -5.635   0.447   2.349  0.00  0.00    +0.005 A 
ATOM     27  C   UNL     1      -5.892   0.848   3.646  0.00  0.00    +0.038 A 
ATOM     28  C   UNL     1      -6.163  -0.097   4.621  0.00  0.00    +0.123 A 
ATOM     29  C   UNL     1      -6.183  -1.442   4.294  0.00  0.00    +0.038 A 
ATOM     30  C   UNL     1      -5.931  -1.840   2.995  0.00  0.00    +0.005 A 
ATOM     31  F   UNL     1      -6.410   0.293   5.891  0.00  0.00    -0.205 F 
ENDBRANCH  24  25
BRANCH  24  32
ATOM     32  C   UNL     1      -6.648  -1.148  -0.238  0.00  0.00    -0.027 C 
ATOM     33  C   UNL     1      -7.780  -1.996   0.346  0.00  0.00    +0.006 C 
ATOM     34  C   UNL     1      -7.058   0.326  -0.228  0.00  0.00    +0.006 C 
ENDBRANCH  24  32
ENDBRANCH  21  24
ENDBRANCH  20  21
ENDBRANCH   2  20
TORSDOF 9
