REMARK  Name = ZINC41169637
REMARK  6 active torsions:
REMARK  status: ('A' for Active; 'I' for Inactive)
REMARK    1  A    between atoms: C_1  and  C_2
REMARK    2  A    between atoms: C_12  and  C_14
REMARK    3  A    between atoms: C_14  and  C_15
REMARK    4  A    between atoms: C_15  and  N_16
REMARK    5  A    between atoms: N_16  and  S_17
REMARK    6  A    between atoms: S_17  and  C_20
REMARK                            x       y       z     vdW  Elec       q    Type
REMARK                         _______ _______ _______ _____ _____    ______ ____
ROOT
ATOM      1  C   UNL     1      -0.018   1.503   0.010  0.00  0.00    +0.046 C 
ATOM      2  C   UNL     1       0.002  -0.004   0.002  0.00  0.00    -0.026 A 
ATOM      3  C   UNL     1       0.006  -0.689  -1.194  0.00  0.00    +0.005 A 
ATOM      4  C   UNL     1       0.024  -2.077  -1.215  0.00  0.00    +0.001 A 
ATOM      5  C   UNL     1       0.039  -2.790  -0.050  0.00  0.00    +0.010 A 
ATOM      6  C   UNL     1       0.036  -2.116   1.175  0.00  0.00    -0.001 A 
ATOM      7  C   UNL     1       0.023  -0.709   1.201  0.00  0.00    +0.052 A 
ATOM      8  N   UNL     1       0.025  -0.049   2.412  0.00  0.00    -0.322 N 
ATOM      9  H   UNL     1       0.012   0.921   2.428  0.00  0.00    +0.169 HD
ATOM     10  C   UNL     1       0.044  -0.730   3.570  0.00  0.00    +0.252 A 
ATOM     11  O   UNL     1       0.045  -0.114   4.622  0.00  0.00    -0.268 OA
ATOM     12  C   UNL     1       0.064  -2.141   3.600  0.00  0.00    +0.019 A 
ATOM     13  C   UNL     1       0.052  -2.849   2.443  0.00  0.00    +0.019 A 
ENDROOT
BRANCH  12  14
ATOM     14  C   UNL     1       0.085  -2.864   4.922  0.00  0.00    +0.057 C 
BRANCH  14  15
ATOM     15  C   UNL     1       1.528  -2.979   5.417  0.00  0.00    +0.110 C 
BRANCH  15  16
ATOM     16  N   UNL     1       1.549  -3.682   6.702  0.00  0.00    -0.189 NA
ATOM     17  H   UNL     1       0.728  -3.798   7.205  0.00  0.00    +0.148 HD
BRANCH  16  18
ATOM     18  S   UNL     1       2.975  -4.279   7.297  0.00  0.00    +0.065 S 
ATOM     19  O   UNL     1       2.674  -4.873   8.552  0.00  0.00    -0.153 OA
ATOM     20  O   UNL     1       3.585  -5.004   6.237  0.00  0.00    -0.153 OA
BRANCH  18  21
ATOM     21  C   UNL     1       4.019  -2.899   7.629  0.00  0.00    +0.144 A 
ATOM     22  C   UNL     1       4.143  -2.179   8.771  0.00  0.00    +0.038 A 
ATOM     23  C   UNL     1       5.037  -1.124   8.804  0.00  0.00    +0.030 A 
ATOM     24  C   UNL     1       5.762  -0.842   7.693  0.00  0.00    +0.080 A 
ATOM     25  S   UNL     1       5.192  -2.092   6.553  0.00  0.00    -0.057 S 
ATOM     26 CL   UNL     1       6.943   0.406   7.446  0.00  0.00    -0.076 Cl
ENDBRANCH  18  21
ENDBRANCH  16  18
ENDBRANCH  15  16
ENDBRANCH  14  15
ENDBRANCH  12  14
TORSDOF 5
