REMARK  Name = ZINC09583592
REMARK  10 active torsions:
REMARK  status: ('A' for Active; 'I' for Inactive)
REMARK    1  A    between atoms: C_1  and  C_2
REMARK    2  A    between atoms: C_2  and  O_3
REMARK    3  A    between atoms: O_3  and  C_4
REMARK    4  A    between atoms: C_11  and  S_13
REMARK    5  A    between atoms: S_13  and  C_14
REMARK    6  A    between atoms: C_14  and  C_16
REMARK    7  A    between atoms: C_14  and  C_22
REMARK    8  A    between atoms: N_24  and  C_25
REMARK    9  A    between atoms: C_28  and  S_31
REMARK   10  A    between atoms: S_31  and  N_34
REMARK                            x       y       z     vdW  Elec       q    Type
REMARK                         _______ _______ _______ _____ _____    ______ ____
ROOT
ATOM      1  C   UNL     1       2.613  -0.886   8.689  0.00  0.00    +0.169 C 
ENDROOT
BRANCH   1   2
ATOM      2  C   UNL     1       2.425  -2.189   7.956  0.00  0.00    -0.025 A 
ATOM      3  C   UNL     1       1.630  -3.180   8.501  0.00  0.00    +0.005 A 
ATOM      4  C   UNL     1       1.454  -4.374   7.827  0.00  0.00    +0.000 A 
ATOM      5  C   UNL     1       2.081  -4.581   6.612  0.00  0.00    +0.000 A 
ATOM      6  C   UNL     1       2.880  -3.592   6.070  0.00  0.00    +0.000 A 
ATOM      7  C   UNL     1       3.053  -2.396   6.742  0.00  0.00    +0.005 A 
ENDBRANCH   1   2
BRANCH   1   8
ATOM      8  C   UNL     1       3.228  -1.153  10.039  0.00  0.00    +0.235 C 
ATOM      9  O   UNL     1       2.520  -1.266  11.016  0.00  0.00    -0.274 OA
ATOM     10  N   UNL     1       4.566  -1.265  10.159  0.00  0.00    -0.284 N 
ATOM     11  H   UNL     1       5.127  -1.250   9.368  0.00  0.00    +0.155 HD
BRANCH  10  12
ATOM     12  C   UNL     1       5.145  -1.402  11.426  0.00  0.00    +0.034 A 
ATOM     13  C   UNL     1       4.574  -0.772  12.524  0.00  0.00    +0.025 A 
ATOM     14  C   UNL     1       5.145  -0.915  13.774  0.00  0.00    +0.030 A 
ATOM     15  C   UNL     1       6.290  -1.674  13.930  0.00  0.00    +0.105 A 
ATOM     16  C   UNL     1       6.864  -2.297  12.837  0.00  0.00    +0.030 A 
ATOM     17  C   UNL     1       6.295  -2.164  11.586  0.00  0.00    +0.025 A 
BRANCH  15  18
ATOM     18  S   UNL     1       7.019  -1.847  15.525  0.00  0.00    +0.056 S 
ATOM     19  O   UNL     1       5.985  -1.615  16.471  0.00  0.00    -0.153 OA
ATOM     20  O   UNL     1       7.771  -3.052  15.498  0.00  0.00    -0.153 OA
BRANCH  18  21
ATOM     21  N   UNL     1       8.108  -0.613  15.702  0.00  0.00    -0.204 NA
ATOM     22  H   UNL     1       8.235   0.029  14.986  0.00  0.00    +0.144 HD
ATOM     23  H   UNL     1       8.620  -0.531  16.522  0.00  0.00    +0.144 HD
ENDBRANCH  18  21
ENDBRANCH  15  18
ENDBRANCH  10  12
ENDBRANCH   1   8
BRANCH   1  24
ATOM     24  S   UNL     1       1.008  -0.079   8.906  0.00  0.00    -0.081 S 
BRANCH  24  32
ATOM     25  C   UNL     1      -0.344   1.051   2.462  0.00  0.00    +0.122 A 
ATOM     26  C   UNL     1       0.894   0.416   2.483  0.00  0.00    +0.048 A 
ATOM     27  C   UNL     1       1.482   0.035   3.661  0.00  0.00    +0.032 A 
ATOM     28  C   UNL     1       0.844   0.277   4.900  0.00  0.00    +0.080 A 
ATOM     29  C   UNL     1      -0.411   0.923   4.842  0.00  0.00    +0.043 A 
ATOM     30  C   UNL     1      -0.994   1.308   3.660  0.00  0.00    +0.062 A 
ATOM     31  S   UNL     1      -0.860   1.036   6.557  0.00  0.00    -0.061 S 
ATOM     32  C   UNL     1       0.598   0.245   7.223  0.00  0.00    +0.137 A 
ATOM     33  N   UNL     1       1.286  -0.034   6.139  0.00  0.00    -0.233 NA
BRANCH  25  34
ATOM     34  O   UNL     1      -0.907   1.421   1.280  0.00  0.00    -0.492 OA
BRANCH  34  36
ATOM     35  C   UNL     1      -0.958   1.613  -1.128  0.00  0.00    +0.048 C 
ATOM     36  C   UNL     1      -0.172   1.127   0.091  0.00  0.00    +0.225 C 
ENDBRANCH  34  36
ENDBRANCH  25  34
ENDBRANCH  24  32
ENDBRANCH   1  24
TORSDOF 9
