REMARK  Name = ZINC16363653
REMARK  12 active torsions:
REMARK  status: ('A' for Active; 'I' for Inactive)
REMARK    1  A    between atoms: C_1  and  N_2
REMARK    2  A    between atoms: C_3  and  S_7
REMARK    3  A    between atoms: S_7  and  C_8
REMARK    4  A    between atoms: C_8  and  C_9
REMARK    5  A    between atoms: C_9  and  N_49
REMARK    6  A    between atoms: C_10  and  C_11
REMARK    7  A    between atoms: C_10  and  N_49
REMARK    8  A    between atoms: C_13  and  O_28
REMARK    9  A    between atoms: C_14  and  O_18
REMARK   10  A    between atoms: O_18  and  C_19
REMARK   11  A    between atoms: C_19  and  C_20
REMARK   12  A    between atoms: O_28  and  C_29
REMARK                            x       y       z     vdW  Elec       q    Type
REMARK                         _______ _______ _______ _____ _____    ______ ____
ROOT
ATOM      1  C   UNL     1      -0.368   5.119   0.561  0.00  0.00    -0.059 A 
ATOM      2  C   UNL     1      -0.259   3.751   0.395  0.00  0.00    +0.051 A 
ATOM      3  C   UNL     1      -0.787   2.893   1.346  0.00  0.00    +0.163 A 
ATOM      4  C   UNL     1      -1.432   3.411   2.465  0.00  0.00    +0.181 A 
ATOM      5  C   UNL     1      -1.532   4.784   2.629  0.00  0.00    +0.086 A 
ATOM      6  C   UNL     1      -1.003   5.635   1.675  0.00  0.00    +0.025 A 
ATOM      7 CL   UNL     1      -2.329   5.436   4.027  0.00  0.00    -0.080 Cl
ENDROOT
BRANCH   3   8
ATOM      8  O   UNL     1      -0.682   1.547   1.184  0.00  0.00    -0.491 OA
ATOM      9  C   UNL     1      -0.013   1.086   0.008  0.00  0.00    +0.277 C 
ENDBRANCH   3   8
BRANCH   1  10
ATOM     10  C   UNL     1       0.207   6.050  -0.475  0.00  0.00    -0.047 C 
BRANCH  10  11
ATOM     11  N   UNL     1      -0.822   6.335  -1.493  0.00  0.00    +0.382 N 
ATOM     12  H   UNL     1      -1.112   5.456  -1.937  0.00  0.00    -0.085 HD
ATOM     13  H   UNL     1      -1.632   6.775  -1.041  0.00  0.00    -0.085 HD
BRANCH  11  14
ATOM     14  C   UNL     1      -0.286   7.246  -2.522  0.00  0.00    -0.071 C 
BRANCH  14  15
ATOM     15  C   UNL     1      -1.373   7.524  -3.561  0.00  0.00    +0.058 C 
BRANCH  15  16
ATOM     16  S   UNL     1      -0.725   8.641  -4.829  0.00  0.00    -0.086 S 
BRANCH  16  19
ATOM     17  C   UNL     1      -1.205  10.356  -7.608  0.00  0.00    +0.177 C 
ATOM     18  N   UNL     1      -2.242   9.522  -6.996  0.00  0.00    -0.223 N 
ATOM     19  C   UNL     1      -2.144   8.785  -5.865  0.00  0.00    +0.209 A 
ATOM     20  N   UNL     1      -3.308   8.201  -5.681  0.00  0.00    -0.102 NA
ATOM     21  N   UNL     1      -4.124   8.518  -6.621  0.00  0.00    -0.022 NA
ATOM     22  N   UNL     1      -3.553   9.313  -7.460  0.00  0.00    -0.043 NA
ENDBRANCH  16  19
ENDBRANCH  15  16
ENDBRANCH  14  15
ENDBRANCH  11  14
ENDBRANCH  10  11
ENDBRANCH   1  10
BRANCH   4  23
ATOM     23  O   UNL     1      -1.957   2.573   3.399  0.00  0.00    -0.482 OA
BRANCH  23  24
ATOM     24  C   UNL     1      -1.101   2.184   4.476  0.00  0.00    +0.266 C 
BRANCH  24  25
ATOM     25  C   UNL     1      -1.850   1.262   5.404  0.00  0.00    +0.008 A 
ATOM     26  C   UNL     1      -3.163   0.925   5.133  0.00  0.00    +0.010 A 
ATOM     27  C   UNL     1      -3.850   0.079   5.983  0.00  0.00    +0.020 A 
ATOM     28  C   UNL     1      -3.223  -0.432   7.105  0.00  0.00    +0.042 A 
ATOM     29  C   UNL     1      -1.909  -0.096   7.377  0.00  0.00    +0.040 A 
ATOM     30  C   UNL     1      -1.220   0.747   6.523  0.00  0.00    +0.049 A 
ATOM     31 CL   UNL     1       0.431   1.164   6.859  0.00  0.00    -0.083 Cl
ATOM     32 CL   UNL     1      -4.086  -1.494   8.173  0.00  0.00    -0.083 Cl
ENDBRANCH  24  25
ENDBRANCH  23  24
ENDBRANCH   4  23
TORSDOF 10
