REMARK  Name = ZINC04014100
REMARK  5 active torsions:
REMARK  status: ('A' for Active; 'I' for Inactive)
REMARK    1  A    between atoms: C_4  and  S_7
REMARK    2  A    between atoms: S_7  and  C_8
REMARK    3  A    between atoms: C_8  and  C_9
REMARK    4  A    between atoms: C_16  and  N_30
REMARK    5  A    between atoms: C_17  and  C_28
REMARK                            x       y       z     vdW  Elec       q    Type
REMARK                         _______ _______ _______ _____ _____    ______ ____
ROOT
ATOM      1  C   UNL     1       4.705  -3.433  -0.063  0.00  0.00    +0.055 A 
ATOM      2  C   UNL     1       5.348  -3.873  -1.155  0.00  0.00    +0.062 A 
ATOM      3  C   UNL     1       6.457  -4.641  -0.731  0.00  0.00    +0.245 A 
ATOM      4  N   UNL     1       6.465  -4.652   0.570  0.00  0.00    -0.135 NA
ATOM      5  N   UNL     1       5.374  -3.892   1.020  0.00  0.00    -0.277 N 
ATOM      6  H   UNL     1       5.139  -3.727   1.946  0.00  0.00    +0.189 HD
ATOM      7  O   UNL     1       7.307  -5.226  -1.617  0.00  0.00    -0.421 OA
ATOM      8  C   UNL     1       6.928  -5.281  -2.909  0.00  0.00    +0.201 C 
ATOM      9  C   UNL     1       5.894  -4.584  -3.432  0.00  0.00    +0.110 C 
ATOM     10  C   UNL     1       5.044  -3.655  -2.611  0.00  0.00    +0.145 C 
ATOM     11  C   UNL     1       5.259  -2.229  -3.004  0.00  0.00    -0.002 A 
ATOM     12  C   UNL     1       6.386  -1.435  -2.986  0.00  0.00    +0.007 A 
ATOM     13  C   UNL     1       6.240  -0.124  -3.427  0.00  0.00    +0.000 A 
ATOM     14  C   UNL     1       5.022   0.357  -3.863  0.00  0.00    +0.002 A 
ATOM     15  C   UNL     1       3.886  -0.436  -3.885  0.00  0.00    +0.023 A 
ATOM     16  C   UNL     1       4.018  -1.754  -3.445  0.00  0.00    +0.038 A 
ATOM     17  N   UNL     1       3.063  -2.752  -3.362  0.00  0.00    -0.284 N 
ATOM     18  C   UNL     1       3.577  -3.905  -2.884  0.00  0.00    +0.238 C 
ATOM     19  O   UNL     1       2.977  -4.944  -2.706  0.00  0.00    -0.274 OA
ATOM     20  H   UNL     1       2.135  -2.638  -3.618  0.00  0.00    +0.155 HD
ENDROOT
BRANCH   8  21
ATOM     21  N   UNL     1       7.640  -6.098  -3.752  0.00  0.00    -0.328 N 
ATOM     22  H   UNL     1       8.388  -6.613  -3.410  0.00  0.00    +0.145 HD
ATOM     23  H   UNL     1       7.394  -6.162  -4.688  0.00  0.00    +0.145 HD
ENDBRANCH   8  21
BRANCH   9  24
ATOM     24  C   UNL     1       5.597  -4.737  -4.825  0.00  0.00    +0.102 C 
ATOM     25  N   UNL     1       5.362  -4.857  -5.929  0.00  0.00    -0.191 NA
ENDBRANCH   9  24
BRANCH   1  26
ATOM     26  C   UNL     1       3.465  -2.578  -0.046  0.00  0.00    +0.129 C 
BRANCH  26  27
ATOM     27  S   UNL     1       3.939  -0.827  -0.042  0.00  0.00    -0.119 S 
BRANCH  27  31
ATOM     28  C   UNL     1      -0.017   1.379   0.010  0.00  0.00    +0.000 A 
ATOM     29  C   UNL     1       1.169   2.090   0.002  0.00  0.00    +0.001 A 
ATOM     30  C   UNL     1       2.377   1.421  -0.013  0.00  0.00    +0.015 A 
ATOM     31  C   UNL     1       2.400   0.031  -0.021  0.00  0.00    +0.008 A 
ATOM     32  C   UNL     1       1.206  -0.680  -0.013  0.00  0.00    +0.015 A 
ATOM     33  C   UNL     1       0.002  -0.004   0.002  0.00  0.00    +0.001 A 
ENDBRANCH  27  31
ENDBRANCH  26  27
ENDBRANCH   1  26
TORSDOF 5
