REMARK  Name = ZINC02245082
REMARK  6 active torsions:
REMARK  status: ('A' for Active; 'I' for Inactive)
REMARK    1  A    between atoms: C_4  and  C_7
REMARK    2  A    between atoms: C_7  and  C_8
REMARK    3  A    between atoms: C_10  and  C_16
REMARK    4  A    between atoms: C_11  and  O_15
REMARK    5  A    between atoms: N_17  and  C_18
REMARK    6  A    between atoms: C_23  and  N_24
REMARK                            x       y       z     vdW  Elec       q    Type
REMARK                         _______ _______ _______ _____ _____    ______ ____
ROOT
ATOM      1  C   UNL     1       3.916  -0.784   1.480  0.00  0.00    -0.041 A 
ATOM      2  C   UNL     1       4.867   0.030   2.056  0.00  0.00    +0.017 A 
ATOM      3  C   UNL     1       5.241  -0.169   3.389  0.00  0.00    +0.036 A 
ATOM      4  C   UNL     1       4.641  -1.199   4.130  0.00  0.00    +0.139 A 
ATOM      5  C   UNL     1       3.687  -2.008   3.534  0.00  0.00    +0.060 A 
ATOM      6  C   UNL     1       3.323  -1.796   2.217  0.00  0.00    +0.023 A 
ATOM      7 BR   UNL     1       2.874  -3.398   4.525  0.00  0.00    -0.046 Br
ENDROOT
BRANCH   4   8
ATOM      8  O   UNL     1       4.995  -1.403   5.425  0.00  0.00    -0.505 OA
ATOM      9  H   UNL     1       4.463  -0.905   6.061  0.00  0.00    +0.292 HD
ENDBRANCH   4   8
BRANCH   3  10
ATOM     10  C   UNL     1       6.255   0.695   4.010  0.00  0.00    +0.123 C 
ATOM     11  N   UNL     1       6.600   0.506   5.253  0.00  0.00    -0.253 NA
BRANCH  11  12
ATOM     12  C   UNL     1       7.463   1.376   5.864  0.00  0.00    +0.083 A 
ATOM     13  C   UNL     1       7.258   2.754   5.764  0.00  0.00    +0.029 A 
ATOM     14  C   UNL     1       8.131   3.624   6.382  0.00  0.00    +0.002 A 
ATOM     15  C   UNL     1       9.209   3.135   7.099  0.00  0.00    +0.002 A 
ATOM     16  C   UNL     1       9.418   1.771   7.202  0.00  0.00    +0.024 A 
ATOM     17  C   UNL     1       8.549   0.889   6.594  0.00  0.00    +0.039 A 
BRANCH  17  18
ATOM     18  N   UNL     1       8.758  -0.489   6.705  0.00  0.00    -0.392 NA
ATOM     19  C   UNL     1       8.708  -0.878   8.119  0.00  0.00    +0.085 C 
ATOM     20  C   UNL     1       8.856  -2.396   8.240  0.00  0.00    +0.017 C 
ATOM     21  C   UNL     1      10.198  -2.823   7.638  0.00  0.00    +0.003 C 
ATOM     22  C   UNL     1      10.269  -2.346   6.185  0.00  0.00    +0.017 C 
ATOM     23  C   UNL     1      10.069  -0.830   6.140  0.00  0.00    +0.085 C 
ATOM     24  H   UNL     1       8.037  -0.979   6.198  0.00  0.00    +0.126 HD
ENDBRANCH  17  18
ENDBRANCH  11  12
ENDBRANCH   3  10
BRANCH   1  25
ATOM     25  C   UNL     1       3.515  -0.569   0.044  0.00  0.00    +0.070 C 
BRANCH  25  29
ATOM     26  C   UNL     1       0.256   2.188  -0.129  0.00  0.00    +0.000 A 
ATOM     27  C   UNL     1       1.557   2.652  -0.179  0.00  0.00    +0.000 A 
ATOM     28  C   UNL     1       2.612   1.760  -0.123  0.00  0.00    +0.004 A 
ATOM     29  C   UNL     1       2.366   0.404  -0.016  0.00  0.00    -0.043 A 
ATOM     30  C   UNL     1       1.065  -0.060   0.035  0.00  0.00    +0.004 A 
ATOM     31  C   UNL     1       0.010   0.831  -0.022  0.00  0.00    +0.000 A 
ENDBRANCH  25  29
ENDBRANCH   1  25
TORSDOF 6
