REMARK  Name = ZINC01739414
REMARK  10 active torsions:
REMARK  status: ('A' for Active; 'I' for Inactive)
REMARK    1  A    between atoms: C_1  and  C_2
REMARK    2  A    between atoms: C_4  and  O_9
REMARK    3  A    between atoms: O_9  and  C_10
REMARK    4  A    between atoms: C_10  and  C_11
REMARK    5  A    between atoms: C_11  and  O_12
REMARK    6  A    between atoms: O_12  and  C_13
REMARK    7  A    between atoms: C_16  and  C_21
REMARK    8  A    between atoms: C_18  and  O_19
REMARK    9  A    between atoms: O_19  and  C_20
REMARK   10  A    between atoms: C_31  and  C_33
REMARK                            x       y       z     vdW  Elec       q    Type
REMARK                         _______ _______ _______ _____ _____    ______ ____
ROOT
ATOM      1  C   UNL     1       1.256   2.142  -0.673  0.00  0.00    +0.162 A 
ATOM      2  C   UNL     1       0.190   1.327  -0.312  0.00  0.00    +0.050 A 
ATOM      3  C   UNL     1      -1.048   1.876  -0.067  0.00  0.00    +0.012 A 
ATOM      4  C   UNL     1      -1.233   3.262  -0.170  0.00  0.00    -0.021 A 
ATOM      5  C   UNL     1      -0.156   4.083  -0.534  0.00  0.00    +0.057 A 
ATOM      6  C   UNL     1       1.080   3.522  -0.783  0.00  0.00    +0.162 A 
ENDROOT
BRANCH   4   7
ATOM      7  C   UNL     1      -2.548   3.850   0.095  0.00  0.00    +0.024 C 
ATOM      8  C   UNL     1      -2.643   5.049   0.765  0.00  0.00    +0.081 C 
ATOM      9  C   UNL     1      -1.456   5.696   1.391  0.00  0.00    +0.153 C 
ATOM     10  N   UNL     1      -0.464   5.022   1.911  0.00  0.00    -0.283 NA
ATOM     11  N   UNL     1      -1.506   7.106   1.367  0.00  0.00    -0.152 N 
ATOM     12  C   UNL     1      -2.745   7.697   1.242  0.00  0.00    +0.181 C 
ATOM     13  N   UNL     1      -3.900   7.104   1.070  0.00  0.00    -0.152 NA
ATOM     14  C   UNL     1      -3.934   5.771   0.897  0.00  0.00    +0.273 C 
ATOM     15  O   UNL     1      -4.996   5.172   0.854  0.00  0.00    -0.268 OA
ATOM     16  S   UNL     1      -2.349   9.424   1.335  0.00  0.00    -0.032 S 
ATOM     17  C   UNL     1      -0.577   9.253   1.493  0.00  0.00    +0.136 C 
ATOM     18  N   UNL     1      -0.421   7.949   1.474  0.00  0.00    -0.164 NA
ATOM     19  H   UNL     1       0.240   5.488   2.389  0.00  0.00    +0.188 HD
BRANCH  17  20
ATOM     20  C   UNL     1       0.446  10.305   1.613  0.00  0.00    +0.046 A 
ATOM     21  C   UNL     1       0.287  11.668   1.627  0.00  0.00    +0.018 A 
ATOM     22  C   UNL     1       1.403  12.462   1.754  0.00  0.00    +0.008 A 
ATOM     23  C   UNL     1       2.626  11.876   1.850  0.00  0.00    +0.046 A 
ATOM     24  S   UNL     1       2.216  10.140   1.769  0.00  0.00    -0.095 S 
ENDBRANCH  17  20
ENDBRANCH   4   7
BRANCH   6  25
ATOM     25  O   UNL     1       2.127   4.315  -1.137  0.00  0.00    -0.491 OA
ATOM     26  C   UNL     1       1.875   5.718  -1.231  0.00  0.00    +0.277 C 
ENDBRANCH   6  25
BRANCH   1  27
ATOM     27  O   UNL     1       2.474   1.594  -0.919  0.00  0.00    -0.485 OA
BRANCH  27  28
ATOM     28  C   UNL     1       2.585   0.175  -0.788  0.00  0.00    +0.270 C 
BRANCH  28  29
ATOM     29  C   UNL     1       4.019  -0.255  -1.103  0.00  0.00    +0.270 C 
BRANCH  29  30
ATOM     30  O   UNL     1       4.905   0.286  -0.120  0.00  0.00    -0.489 OA
BRANCH  30  34
ATOM     31  C   UNL     1       9.479   0.727   1.524  0.00  0.00    +0.045 C 
ATOM     32  C   UNL     1       8.484   0.192   0.527  0.00  0.00    -0.029 A 
ATOM     33  C   UNL     1       7.141   0.488   0.664  0.00  0.00    +0.050 A 
ATOM     34  C   UNL     1       6.226  -0.004  -0.254  0.00  0.00    +0.121 A 
ATOM     35  C   UNL     1       6.660  -0.797  -1.306  0.00  0.00    +0.047 A 
ATOM     36  C   UNL     1       8.003  -1.087  -1.444  0.00  0.00    +0.024 A 
ATOM     37  C   UNL     1       8.915  -0.595  -0.526  0.00  0.00    +0.044 A 
ATOM     38 CL   UNL     1      10.603  -0.965  -0.697  0.00  0.00    -0.083 Cl
ENDBRANCH  30  34
ENDBRANCH  29  30
ENDBRANCH  28  29
ENDBRANCH  27  28
ENDBRANCH   1  27
TORSDOF 8
