REMARK  Name = ZINC12342924
REMARK  13 active torsions:
REMARK  status: ('A' for Active; 'I' for Inactive)
REMARK    1  A    between atoms: C_1  and  C_2
REMARK    2  A    between atoms: C_2  and  C_16
REMARK    3  A    between atoms: N_3  and  N_4
REMARK    4  A    between atoms: C_8  and  C_12
REMARK    5  A    between atoms: C_18  and  C_27
REMARK    6  A    between atoms: C_19  and  O_26
REMARK    7  A    between atoms: C_20  and  C_22
REMARK    8  A    between atoms: C_22  and  C_23
REMARK    9  A    between atoms: C_22  and  C_24
REMARK   10  A    between atoms: C_22  and  C_25
REMARK   11  A    between atoms: C_27  and  C_28
REMARK   12  A    between atoms: C_27  and  C_29
REMARK   13  A    between atoms: C_27  and  C_30
REMARK                            x       y       z     vdW  Elec       q    Type
REMARK                         _______ _______ _______ _____ _____    ______ ____
ROOT
ATOM      1  C   UNL     1      -4.241   1.355  -1.706  0.00  0.00    +0.068 C 
ATOM      2  C   UNL     1      -3.330   1.932  -0.653  0.00  0.00    +0.063 C 
ATOM      3  N   UNL     1      -2.584   1.146   0.062  0.00  0.00    -0.186 NA
ENDROOT
BRANCH   3   4
ATOM      4  N   UNL     1      -1.846   1.664   1.134  0.00  0.00    -0.219 N 
ATOM      5  C   UNL     1      -0.962   0.850   1.824  0.00  0.00    +0.160 A 
ATOM      6  C   UNL     1      -0.155   1.400   2.820  0.00  0.00    +0.102 A 
ATOM      7  C   UNL     1       0.728   0.585   3.500  0.00  0.00    +0.083 A 
ATOM      8  C   UNL     1       0.777  -0.777   3.158  0.00  0.00    +0.108 A 
ATOM      9  C   UNL     1      -0.064  -1.253   2.148  0.00  0.00    +0.150 A 
ATOM     10  N   UNL     1      -0.891  -0.440   1.525  0.00  0.00    -0.216 NA
ATOM     11 CL   UNL     1      -0.017  -2.933   1.712  0.00  0.00    -0.061 Cl
ATOM     12 CL   UNL     1       1.751   1.227   4.747  0.00  0.00    -0.080 Cl
ATOM     13 CL   UNL     1      -0.260   3.091   3.200  0.00  0.00    -0.078 Cl
ATOM     14  H   UNL     1      -1.954   2.593   1.393  0.00  0.00    +0.176 HD
BRANCH   8  15
ATOM     15  C   UNL     1       1.676  -1.664   3.834  0.00  0.00    +0.104 C 
ATOM     16  N   UNL     1       2.389  -2.367   4.370  0.00  0.00    -0.191 NA
ENDBRANCH   8  15
ENDBRANCH   3   4
BRANCH   2  17
ATOM     17  C   UNL     1      -3.285   3.390  -0.435  0.00  0.00    -0.002 A 
ATOM     18  C   UNL     1      -4.468   4.132  -0.414  0.00  0.00    +0.017 A 
ATOM     19  C   UNL     1      -4.422   5.493  -0.205  0.00  0.00    +0.000 A 
ATOM     20  C   UNL     1      -3.200   6.129  -0.027  0.00  0.00    +0.124 A 
ATOM     21  C   UNL     1      -2.021   5.397  -0.053  0.00  0.00    +0.000 A 
ATOM     22  C   UNL     1      -2.058   4.034  -0.255  0.00  0.00    +0.017 A 
BRANCH  21  23
ATOM     23  C   UNL     1      -0.698   6.093   0.141  0.00  0.00    -0.009 C 
ATOM     24  C   UNL     1       0.423   5.053   0.188  0.00  0.00    +0.015 C 
ATOM     25  C   UNL     1      -0.453   7.055  -1.023  0.00  0.00    +0.015 C 
ATOM     26  C   UNL     1      -0.722   6.877   1.454  0.00  0.00    +0.015 C 
ENDBRANCH  21  23
BRANCH  19  27
ATOM     27  C   UNL     1      -5.698   6.294  -0.176  0.00  0.00    -0.009 C 
ATOM     28  C   UNL     1      -6.891   5.361  -0.396  0.00  0.00    +0.015 C 
ATOM     29  C   UNL     1      -5.835   6.987   1.181  0.00  0.00    +0.015 C 
ATOM     30  C   UNL     1      -5.664   7.348  -1.285  0.00  0.00    +0.015 C 
ENDBRANCH  19  27
BRANCH  20  31
ATOM     31  O   UNL     1      -3.159   7.473   0.173  0.00  0.00    -0.506 OA
ATOM     32  H   UNL     1      -3.086   7.989  -0.641  0.00  0.00    +0.292 HD
ENDBRANCH  20  31
ENDBRANCH   2  17
TORSDOF 6
