REMARK  Name = ZINC13064970
REMARK  11 active torsions:
REMARK  status: ('A' for Active; 'I' for Inactive)
REMARK    1  A    between atoms: C_1  and  C_2
REMARK    2  A    between atoms: C_2  and  C_3
REMARK    3  A    between atoms: C_3  and  C_5
REMARK    4  A    between atoms: C_3  and  N_69
REMARK    5  A    between atoms: N_9  and  C_10
REMARK    6  A    between atoms: C_10  and  C_11
REMARK    7  A    between atoms: C_16  and  C_17
REMARK    8  A    between atoms: C_16  and  N_69
REMARK    9  A    between atoms: C_20  and  C_30
REMARK   10  A    between atoms: C_22  and  C_29
REMARK   11  A    between atoms: C_31  and  N_69
REMARK                            x       y       z     vdW  Elec       q    Type
REMARK                         _______ _______ _______ _____ _____    ______ ____
ROOT
ATOM      1  N   UNL     1       1.049   3.797   1.322  0.00  0.00    +0.391 N 
ATOM      2  H   UNL     1       1.104   3.502   2.304  0.00  0.00    -0.080 HD
ENDROOT
BRANCH   1   3
ATOM      3  C   UNL     1      -0.364   3.760   0.888  0.00  0.00    -0.067 C 
ATOM      4  C   UNL     1      -0.944   2.382   1.214  0.00  0.00    -0.015 C 
ATOM      5  C   UNL     1      -2.413   2.334   0.790  0.00  0.00    -0.002 C 
ATOM      6  C   UNL     1      -2.518   2.588  -0.715  0.00  0.00    -0.000 C 
ATOM      7  C   UNL     1      -1.938   3.966  -1.041  0.00  0.00    -0.002 C 
ATOM      8  C   UNL     1      -0.469   4.014  -0.617  0.00  0.00    -0.015 C 
ENDBRANCH   1   3
BRANCH   1   9
ATOM      9  C   UNL     1       1.856   2.875   0.496  0.00  0.00    +0.003 C 
BRANCH   9  10
ATOM     10  C   UNL     1       2.150   3.490  -0.847  0.00  0.00    +0.139 A 
ATOM     11  N   UNL     1       2.639   4.686  -1.070  0.00  0.00    -0.115 NA
ATOM     12  N   UNL     1       2.746   4.841  -2.345  0.00  0.00    -0.023 NA
ATOM     13  N   UNL     1       2.339   3.774  -2.941  0.00  0.00    -0.044 NA
ATOM     14  N   UNL     1       1.964   2.918  -2.051  0.00  0.00    -0.223 N 
BRANCH  14  15
ATOM     15  C   UNL     1       1.434   1.576  -2.305  0.00  0.00    +0.221 C 
BRANCH  15  16
ATOM     16  C   UNL     1       2.571   0.587  -2.344  0.00  0.00    +0.126 A 
ATOM     17  C   UNL     1       3.064  -0.087  -1.290  0.00  0.00    +0.046 A 
ATOM     18  C   UNL     1       4.113  -0.900  -1.778  0.00  0.00    +0.041 A 
ATOM     19  C   UNL     1       4.203  -0.668  -3.100  0.00  0.00    +0.195 A 
ATOM     20  O   UNL     1       3.267   0.234  -3.437  0.00  0.00    -0.466 OA
ENDBRANCH  15  16
ENDBRANCH  14  15
ENDBRANCH   9  10
BRANCH   9  22
ATOM     21  C   UNL     1       2.876   1.872   2.545  0.00  0.00    +0.002 C 
ATOM     22  C   UNL     1       3.170   2.587   1.225  0.00  0.00    -0.011 C 
ENDBRANCH   9  22
ENDBRANCH   1   9
BRANCH   1  23
ATOM     23  C   UNL     1       1.577   5.173   1.205  0.00  0.00    -0.036 C 
BRANCH  23  24
ATOM     24  C   UNL     1       1.015   6.004   2.330  0.00  0.00    +0.001 A 
ATOM     25  C   UNL     1       1.722   6.151   3.479  0.00  0.00    +0.017 A 
ATOM     26  C   UNL     1       1.151   6.968   4.551  0.00  0.00    +0.002 A 
ATOM     27  C   UNL     1       1.834   7.160   5.756  0.00  0.00    -0.041 A 
ATOM     28  C   UNL     1       1.272   7.925   6.739  0.00  0.00    +0.007 A 
ATOM     29  C   UNL     1       0.028   8.512   6.553  0.00  0.00    -0.048 A 
ATOM     30  C   UNL     1      -0.664   8.335   5.374  0.00  0.00    +0.029 A 
ATOM     31  C   UNL     1      -0.111   7.561   4.359  0.00  0.00    +0.050 A 
ATOM     32  N   UNL     1      -0.781   7.369   3.169  0.00  0.00    -0.322 N 
ATOM     33  H   UNL     1      -1.650   7.779   3.038  0.00  0.00    +0.169 HD
ATOM     34  C   UNL     1      -0.246   6.621   2.188  0.00  0.00    +0.251 A 
ATOM     35  O   UNL     1      -0.866   6.472   1.149  0.00  0.00    -0.268 OA
ATOM     36  C   UNL     1      -0.573   9.351   7.651  0.00  0.00    +0.044 C 
ATOM     37  C   UNL     1       3.185   6.527   5.970  0.00  0.00    +0.044 C 
ENDBRANCH  23  24
ENDBRANCH   1  23
TORSDOF 8
