REMARK  Name = ZINC08132122
REMARK  6 active torsions:
REMARK  status: ('A' for Active; 'I' for Inactive)
REMARK    1  A    between atoms: C_4  and  C_7
REMARK    2  A    between atoms: C_7  and  C_8
REMARK    3  A    between atoms: N_12  and  C_16
REMARK    4  A    between atoms: C_16  and  C_17
REMARK    5  A    between atoms: C_17  and  O_18
REMARK    6  A    between atoms: O_18  and  C_19
REMARK                            x       y       z     vdW  Elec       q    Type
REMARK                         _______ _______ _______ _____ _____    ______ ____
ROOT
ATOM      1  C   UNL     1       5.519   5.343  -2.879  0.00  0.00    +0.165 C 
ATOM      2  C   UNL     1       5.042   5.274  -1.442  0.00  0.00    +0.244 C 
ATOM      3  O   UNL     1       5.286   4.407  -0.630  0.00  0.00    -0.273 OA
ATOM      4  N   UNL     1       4.287   6.375  -1.255  0.00  0.00    -0.221 N 
ATOM      5  C   UNL     1       4.229   7.126  -2.361  0.00  0.00    +0.309 C 
ATOM      6  O   UNL     1       3.611   8.170  -2.436  0.00  0.00    -0.252 OA
ATOM      7  N   UNL     1       4.929   6.597  -3.380  0.00  0.00    -0.287 N 
ATOM      8  H   UNL     1       5.027   6.968  -4.271  0.00  0.00    +0.151 HD
ENDROOT
BRANCH   1   9
ATOM      9  C   UNL     1       7.047   5.409  -2.932  0.00  0.00    +0.067 C 
BRANCH   9  13
ATOM     10  C   UNL     1       8.327   5.566  -7.004  0.00  0.00    +0.000 A 
ATOM     11  C   UNL     1       8.069   6.736  -6.315  0.00  0.00    +0.000 A 
ATOM     12  C   UNL     1       7.655   6.686  -4.997  0.00  0.00    +0.004 A 
ATOM     13  C   UNL     1       7.498   5.464  -4.368  0.00  0.00    -0.045 A 
ATOM     14  C   UNL     1       7.761   4.294  -5.056  0.00  0.00    +0.004 A 
ATOM     15  C   UNL     1       8.171   4.345  -6.375  0.00  0.00    +0.000 A 
ENDBRANCH   9  13
ENDBRANCH   1   9
BRANCH   4  16
ATOM     16  C   UNL     1       3.619   6.710   0.004  0.00  0.00    +0.159 C 
BRANCH  16  17
ATOM     17  C   UNL     1       2.214   6.104   0.014  0.00  0.00    +0.248 C 
BRANCH  17  18
ATOM     18  O   UNL     1       2.311   4.678   0.006  0.00  0.00    -0.490 OA
BRANCH  18  19
ATOM     19  C   UNL     1       1.145   3.981   0.013  0.00  0.00    +0.122 A 
ATOM     20  C   UNL     1      -0.068   4.655   0.028  0.00  0.00    +0.046 A 
ATOM     21  C   UNL     1      -1.253   3.944   0.035  0.00  0.00    +0.005 A 
ATOM     22  C   UNL     1      -1.231   2.562   0.022  0.00  0.00    +0.015 A 
ATOM     23  C   UNL     1      -0.024   1.887   0.012  0.00  0.00    +0.021 A 
ATOM     24  C   UNL     1       1.164   2.594   0.005  0.00  0.00    +0.061 A 
ATOM     25 BR   UNL     1       0.002  -0.004   0.002  0.00  0.00    -0.050 Br
ENDBRANCH  18  19
ENDBRANCH  17  18
ENDBRANCH  16  17
ENDBRANCH   4  16
TORSDOF 6
