REMARK  Name = ZINC53931490
REMARK  7 active torsions:
REMARK  status: ('A' for Active; 'I' for Inactive)
REMARK    1  A    between atoms: C_1  and  C_2
REMARK    2  A    between atoms: C_2  and  C_3
REMARK    3  A    between atoms: C_9  and  C_12
REMARK    4  A    between atoms: C_12  and  N_13
REMARK    5  A    between atoms: N_13  and  C_14
REMARK    6  A    between atoms: N_13  and  C_15
REMARK    7  A    between atoms: N_20  and  C_22
REMARK                            x       y       z     vdW  Elec       q    Type
REMARK                         _______ _______ _______ _____ _____    ______ ____
ROOT
ATOM      1  C   UNL     1       1.674  -4.035  -2.444  0.00  0.00    +0.095 C 
ENDROOT
BRANCH   1   7
ATOM      2  C   UNL     1       0.718  -0.497  -1.257  0.00  0.00    -0.010 C 
ATOM      3  C   UNL     1      -0.088  -0.093  -2.492  0.00  0.00    +0.011 C 
ATOM      4  C   UNL     1       0.674  -0.506  -3.755  0.00  0.00    +0.075 C 
ATOM      5  C   UNL     1       0.984  -1.984  -3.669  0.00  0.00    +0.138 C 
ATOM      6  O   UNL     1       0.705  -2.729  -4.578  0.00  0.00    -0.297 OA
ATOM      7  C   UNL     1       1.651  -2.505  -2.416  0.00  0.00    +0.069 C 
ATOM      8  C   UNL     1       0.852  -2.020  -1.202  0.00  0.00    +0.016 C 
BRANCH   2  10
ATOM      9  C   UNL     1      -0.019   1.526   0.010  0.00  0.00    +0.004 C 
ATOM     10  C   UNL     1       0.002  -0.004   0.002  0.00  0.00    +0.000 C 
ENDBRANCH   2  10
ENDBRANCH   1   7
BRANCH   1  11
ATOM     11  N   UNL     1       2.522  -4.492  -3.553  0.00  0.00    -0.303 NA
ATOM     12  C   UNL     1       3.926  -4.126  -3.326  0.00  0.00    +0.105 C 
BRANCH  11  13
ATOM     13  C   UNL     1       2.382  -5.940  -3.760  0.00  0.00    +0.040 C 
ATOM     14  C   UNL     1       2.916  -6.686  -2.534  0.00  0.00    +0.015 C 
ATOM     15  C   UNL     1       2.838  -8.193  -2.793  0.00  0.00    -0.017 C 
ATOM     16  C   UNL     1       3.622  -8.529  -4.063  0.00  0.00    -0.079 C 
ATOM     17  N   UNL     1       3.046  -7.805  -5.203  0.00  0.00    +0.379 N 
ATOM     18  C   UNL     1       3.182  -6.358  -4.995  0.00  0.00    -0.060 C 
ATOM     19  C   UNL     1       3.752  -8.190  -6.433  0.00  0.00    -0.096 C 
ATOM     20  H   UNL     1       2.069  -8.041  -5.291  0.00  0.00    -0.082 HD
ENDBRANCH  11  13
ENDBRANCH   1  11
TORSDOF 4
