REMARK  Name = ZINC63996764
REMARK  9 active torsions:
REMARK  status: ('A' for Active; 'I' for Inactive)
REMARK    1  A    between atoms: C_1  and  C_2
REMARK    2  A    between atoms: C_2  and  C_3
REMARK    3  A    between atoms: C_2  and  C_4
REMARK    4  A    between atoms: C_4  and  C_6
REMARK    5  A    between atoms: C_4  and  N_16
REMARK    6  A    between atoms: C_17  and  C_19
REMARK    7  A    between atoms: C_19  and  N_20
REMARK    8  A    between atoms: C_23  and  C_28
REMARK    9  A    between atoms: C_28  and  C_29
REMARK                            x       y       z     vdW  Elec       q    Type
REMARK                         _______ _______ _______ _____ _____    ______ ____
ROOT
ATOM      1  C   UNL     1      -1.293  -4.171  -1.171  0.00  0.00    +0.213 C 
ENDROOT
BRANCH   1   2
ATOM      2  N   UNL     1      -1.179  -4.651  -2.550  0.00  0.00    -0.216 N 
ATOM      3  C   UNL     1      -2.232  -4.908  -3.352  0.00  0.00    +0.244 C 
ATOM      4  O   UNL     1      -3.407  -4.791  -3.078  0.00  0.00    -0.273 OA
ATOM      5  C   UNL     1      -1.641  -5.373  -4.668  0.00  0.00    +0.165 C 
ATOM      6  N   UNL     1      -0.188  -5.319  -4.433  0.00  0.00    -0.287 N 
ATOM      7  C   UNL     1      -0.018  -4.882  -3.172  0.00  0.00    +0.310 C 
ATOM      8  O   UNL     1       1.070  -4.718  -2.655  0.00  0.00    -0.252 OA
ATOM      9  H   UNL     1       0.510  -5.551  -5.066  0.00  0.00    +0.151 HD
BRANCH   5  10
ATOM     10  C   UNL     1      -2.042  -4.428  -5.802  0.00  0.00    +0.065 C 
BRANCH  10  11
ATOM     11  C   UNL     1      -1.546  -4.979  -7.114  0.00  0.00    -0.039 C 
ATOM     12  C   UNL     1      -2.241  -5.737  -7.993  0.00  0.00    -0.001 A 
ATOM     13  C   UNL     1      -3.613  -6.257  -7.989  0.00  0.00    +0.010 A 
ATOM     14  C   UNL     1      -4.034  -7.005  -9.034  0.00  0.00    +0.001 A 
ATOM     15  C   UNL     1      -3.193  -7.297 -10.118  0.00  0.00    +0.002 A 
ATOM     16  C   UNL     1      -1.920  -6.855 -10.192  0.00  0.00    +0.026 A 
ATOM     17  C   UNL     1      -1.373  -6.059  -9.149  0.00  0.00    +0.043 A 
ATOM     18  N   UNL     1      -0.189  -5.520  -8.991  0.00  0.00    -0.380 N 
ATOM     19  C   UNL     1      -0.172  -4.790  -7.718  0.00  0.00    +0.144 C 
ATOM     20  H   UNL     1       0.552  -5.589  -9.613  0.00  0.00    +0.160 HD
ENDBRANCH  10  11
ENDBRANCH   5  10
ENDBRANCH   1   2
BRANCH   1  22
ATOM     21  N   UNL     1      -1.413  -1.998   0.005  0.00  0.00    -0.307 N 
ATOM     22  C   UNL     1      -1.314  -2.665  -1.163  0.00  0.00    +0.231 C 
ATOM     23  O   UNL     1      -1.240  -2.051  -2.206  0.00  0.00    -0.274 OA
ATOM     24  H   UNL     1      -1.472  -2.489   0.840  0.00  0.00    +0.149 HD
BRANCH  21  25
ATOM     25  C   UNL     1      -1.433  -0.534   0.013  0.00  0.00    +0.106 C 
BRANCH  25  26
ATOM     26  C   UNL     1      -2.139  -0.048   1.253  0.00  0.00    -0.023 A 
ATOM     27  C   UNL     1      -1.925  -0.683   2.462  0.00  0.00    +0.009 A 
ATOM     28  C   UNL     1      -2.572  -0.241   3.601  0.00  0.00    +0.050 A 
ATOM     29  C   UNL     1      -3.436   0.842   3.534  0.00  0.00    +0.162 A 
ATOM     30  C   UNL     1      -3.648   1.482   2.319  0.00  0.00    +0.162 A 
ATOM     31  C   UNL     1      -2.993   1.036   1.180  0.00  0.00    +0.055 A 
ATOM     32  O   UNL     1      -4.486   2.551   2.232  0.00  0.00    -0.485 OA
ATOM     33  C   UNL     1      -5.403   2.740   3.315  0.00  0.00    +0.270 C 
ATOM     34  C   UNL     1      -4.632   2.579   4.632  0.00  0.00    +0.270 C 
ATOM     35  O   UNL     1      -4.068   1.263   4.663  0.00  0.00    -0.485 OA
ENDBRANCH  25  26
BRANCH  25  37
ATOM     36  C   UNL     1      -0.019   1.526   0.010  0.00  0.00    +0.009 C 
ATOM     37  C   UNL     1       0.002  -0.004   0.002  0.00  0.00    +0.008 C 
ATOM     38  C   UNL     1       0.742  -0.511   1.242  0.00  0.00    +0.009 C 
ENDBRANCH  25  37
ENDBRANCH  21  25
ENDBRANCH   1  22
TORSDOF 7
