REMARK  Name = ZINC09578512
REMARK  6 active torsions:
REMARK  status: ('A' for Active; 'I' for Inactive)
REMARK    1  A    between atoms: C_1  and  C_2
REMARK    2  A    between atoms: C_2  and  C_34
REMARK    3  A    between atoms: N_5  and  C_9
REMARK    4  A    between atoms: C_9  and  C_10
REMARK    5  A    between atoms: C_13  and  C_29
REMARK    6  A    between atoms: C_21  and  C_22
REMARK                            x       y       z     vdW  Elec       q    Type
REMARK                         _______ _______ _______ _____ _____    ______ ____
ROOT
ATOM      1  C   UNL     1      -2.382   2.340   2.223  0.00  0.00    +0.253 C 
ATOM      2  O   UNL     1      -1.528   2.956   2.826  0.00  0.00    -0.272 OA
ATOM      3  N   UNL     1      -2.287   2.189   0.887  0.00  0.00    -0.183 N 
ATOM      4  C   UNL     1      -1.206   2.714   0.023  0.00  0.00    +0.147 C 
ATOM      5  C   UNL     1      -1.895   2.746  -1.352  0.00  0.00    +0.067 C 
ATOM      6  C   UNL     1      -0.974   2.232  -2.460  0.00  0.00    +0.012 C 
ATOM      7  C   UNL     1      -1.788   2.131  -3.749  0.00  0.00    +0.005 C 
ATOM      8  C   UNL     1      -2.931   1.140  -3.664  0.00  0.00    +0.037 C 
ATOM      9  C   UNL     1      -3.558   1.039  -2.307  0.00  0.00    -0.023 C 
ATOM     10  C   UNL     1      -4.688   0.311  -2.147  0.00  0.00    +0.020 C 
ATOM     11  C   UNL     1      -2.987   1.693  -1.192  0.00  0.00    +0.068 C 
ATOM     12  N   UNL     1      -3.193   1.508   0.066  0.00  0.00    -0.181 NA
ENDROOT
BRANCH  10  13
ATOM     13  C   UNL     1      -5.288  -0.370  -3.293  0.00  0.00    +0.012 A 
ATOM     14  C   UNL     1      -6.430  -1.157  -3.345  0.00  0.00    +0.015 A 
ATOM     15  C   UNL     1      -6.797  -1.694  -4.554  0.00  0.00    +0.008 A 
ATOM     16  C   UNL     1      -6.038  -1.442  -5.654  0.00  0.00    +0.046 A 
ATOM     17  S   UNL     1      -4.747  -0.400  -4.994  0.00  0.00    -0.097 S 
ENDBRANCH  10  13
BRANCH   4  18
ATOM     18  C   UNL     1      -0.022   1.781   0.012  0.00  0.00    +0.013 A 
ATOM     19  C   UNL     1       1.300   2.079   0.001  0.00  0.00    +0.013 A 
ATOM     20  C   UNL     1       2.220   1.048  -0.013  0.00  0.00    +0.008 A 
ATOM     21  C   UNL     1       1.773  -0.232  -0.016  0.00  0.00    +0.045 A 
ATOM     22  S   UNL     1       0.002  -0.004   0.002  0.00  0.00    -0.100 S 
ENDBRANCH   4  18
BRANCH   1  23
ATOM     23  C   UNL     1      -3.549   1.744   2.968  0.00  0.00    +0.215 C 
BRANCH  23  28
ATOM     24  C   UNL     1      -2.672   4.206   6.872  0.00  0.00    +0.041 C 
ATOM     25  C   UNL     1      -3.560   3.033   6.452  0.00  0.00    +0.107 C 
ATOM     26  C   UNL     1      -3.932   3.144   4.986  0.00  0.00    +0.246 C 
ATOM     27  O   UNL     1      -4.559   4.036   4.456  0.00  0.00    -0.273 OA
ATOM     28  N   UNL     1      -3.422   2.046   4.396  0.00  0.00    -0.215 N 
ATOM     29  C   UNL     1      -2.790   1.261   5.276  0.00  0.00    +0.310 C 
ATOM     30  O   UNL     1      -2.252   0.212   4.982  0.00  0.00    -0.252 OA
ATOM     31  N   UNL     1      -2.813   1.765   6.523  0.00  0.00    -0.285 N 
ATOM     32  C   UNL     1      -4.816   2.971   7.323  0.00  0.00    +0.041 C 
ATOM     33  H   UNL     1      -2.419   1.369   7.316  0.00  0.00    +0.151 HD
ENDBRANCH  23  28
ENDBRANCH   1  23
TORSDOF 4
