REMARK  Name = ZINC43861740
REMARK  4 active torsions:
REMARK  status: ('A' for Active; 'I' for Inactive)
REMARK    1  A    between atoms: C_6  and  S_7
REMARK    2  A    between atoms: S_7  and  C_8
REMARK    3  A    between atoms: C_8  and  C_9
REMARK    4  A    between atoms: C_9  and  N_10
REMARK                            x       y       z     vdW  Elec       q    Type
REMARK                         _______ _______ _______ _____ _____    ______ ____
ROOT
ATOM      1  N   UNL     1      -4.027  -5.628   0.017  0.00  0.00    -0.298 N 
ATOM      2  C   UNL     1      -2.715  -5.935  -0.003  0.00  0.00    +0.302 C 
ATOM      3  O   UNL     1      -1.885  -5.052  -0.102  0.00  0.00    -0.253 OA
ATOM      4  N   UNL     1      -2.323  -7.221   0.088  0.00  0.00    -0.285 N 
ATOM      5  C   UNL     1      -0.897  -7.564   0.190  0.00  0.00    +0.114 C 
ATOM      6  C   UNL     1      -0.553  -8.571  -0.912  0.00  0.00    +0.084 C 
ATOM      7  C   UNL     1      -1.499  -9.769  -0.817  0.00  0.00    +0.173 C 
ATOM      8  C   UNL     1      -2.945  -9.308  -1.013  0.00  0.00    +0.084 C 
ATOM      9  C   UNL     1      -3.312  -8.307   0.094  0.00  0.00    +0.114 C 
ATOM     10  O   UNL     1      -1.160 -10.730  -1.825  0.00  0.00    -0.346 OA
ATOM     11  C   UNL     1      -0.825 -11.959  -1.148  0.00  0.00    +0.191 C 
ATOM     12  C   UNL     1      -1.518 -11.802   0.228  0.00  0.00    +0.191 C 
ATOM     13  O   UNL     1      -1.364 -10.384   0.475  0.00  0.00    -0.346 OA
ATOM     14  H   UNL     1      -4.691  -6.335   0.023  0.00  0.00    +0.150 HD
ENDROOT
BRANCH   1  15
ATOM     15  C   UNL     1      -4.451  -4.226   0.028  0.00  0.00    +0.116 C 
BRANCH  15  16
ATOM     16  C   UNL     1      -5.980  -4.155   0.049  0.00  0.00    +0.093 C 
BRANCH  16  17
ATOM     17  S   UNL     1      -6.505  -2.419   0.063  0.00  0.00    -0.124 S 
BRANCH  17  23
ATOM     18  C   UNL     1      -9.019  -1.339   0.102  0.00  0.00    +0.016 A 
ATOM     19  C   UNL     1     -10.398  -1.411   0.120  0.00  0.00    +0.021 A 
ATOM     20  C   UNL     1     -11.028  -2.643   0.124  0.00  0.00    +0.041 A 
ATOM     21  C   UNL     1     -10.280  -3.807   0.109  0.00  0.00    +0.021 A 
ATOM     22  C   UNL     1      -8.900  -3.742   0.091  0.00  0.00    +0.016 A 
ATOM     23  C   UNL     1      -8.264  -2.506   0.087  0.00  0.00    +0.008 A 
ATOM     24 CL   UNL     1     -12.762  -2.728   0.147  0.00  0.00    -0.084 Cl
ENDBRANCH  17  23
ENDBRANCH  16  17
ENDBRANCH  15  16
ENDBRANCH   1  15
TORSDOF 4
