REMARK  Name = ZINC19800664
REMARK  9 active torsions:
REMARK  status: ('A' for Active; 'I' for Inactive)
REMARK    1  A    between atoms: C_1  and  C_2
REMARK    2  A    between atoms: C_2  and  O_3
REMARK    3  A    between atoms: O_3  and  C_4
REMARK    4  A    between atoms: C_9  and  C_10
REMARK    5  A    between atoms: N_15  and  C_29
REMARK    6  A    between atoms: C_19  and  C_27
REMARK    7  A    between atoms: C_20  and  N_26
REMARK    8  A    between atoms: C_21  and  C_22
REMARK    9  A    between atoms: C_21  and  C_24
REMARK                            x       y       z     vdW  Elec       q    Type
REMARK                         _______ _______ _______ _____ _____    ______ ____
ROOT
ATOM      1  C   UNL     1       2.213   1.501   1.033  0.00  0.00    +0.071 C 
ATOM      2  C   UNL     1       1.439   1.966  -0.202  0.00  0.00    +0.044 C 
ATOM      3  C   UNL     1       1.355   3.472  -0.288  0.00  0.00    +0.093 C 
ATOM      4  N   UNL     1       0.056   3.979   0.162  0.00  0.00    -0.301 NA
ATOM      5  C   UNL     1      -1.025   3.407  -0.660  0.00  0.00    +0.111 C 
ATOM      6  C   UNL     1      -1.031   1.916  -0.431  0.00  0.00    -0.007 C 
ATOM      7  C   UNL     1       0.103   1.280  -0.201  0.00  0.00    -0.026 C 
ATOM      8  C   UNL     1       0.092  -0.177   0.082  0.00  0.00    +0.074 C 
ATOM      9  C   UNL     1       1.198  -0.754   0.619  0.00  0.00    +0.054 C 
ATOM     10  C   UNL     1       2.459  -0.004   0.925  0.00  0.00    +0.188 C 
ATOM     11  C   UNL     1       0.023   5.447   0.129  0.00  0.00    +0.105 C 
ENDROOT
BRANCH   1  17
ATOM     12  C   UNL     1       3.906   2.877   2.269  0.00  0.00    +0.124 A 
ATOM     13  C   UNL     1       5.124   3.539   2.331  0.00  0.00    +0.046 A 
ATOM     14  C   UNL     1       5.958   3.554   1.230  0.00  0.00    +0.004 A 
ATOM     15  C   UNL     1       5.582   2.907   0.068  0.00  0.00    +0.001 A 
ATOM     16  C   UNL     1       4.370   2.243   0.004  0.00  0.00    +0.007 A 
ATOM     17  C   UNL     1       3.533   2.225   1.103  0.00  0.00    +0.001 A 
BRANCH  12  18
ATOM     18  O   UNL     1       3.082   2.865   3.349  0.00  0.00    -0.492 OA
BRANCH  18  20
ATOM     19  C   UNL     1       2.478   3.434   5.619  0.00  0.00    +0.048 C 
ATOM     20  C   UNL     1       3.530   3.558   4.515  0.00  0.00    +0.225 C 
ENDBRANCH  18  20
ENDBRANCH  12  18
ENDBRANCH   1  17
BRANCH   9  21
ATOM     21  N   UNL     1       1.159  -2.092   0.894  0.00  0.00    -0.358 N 
ATOM     22  H   UNL     1       2.038  -2.590   1.329  0.00  0.00    +0.142 HD
ATOM     23  H   UNL     1       0.249  -2.672   0.680  0.00  0.00    +0.142 HD
ENDBRANCH   9  21
BRANCH  10  24
ATOM     24  C   UNL     1       3.009  -0.492   2.201  0.00  0.00    +0.091 C 
ATOM     25  N   UNL     1       3.433  -0.868   3.185  0.00  0.00    -0.194 NA
ENDBRANCH  10  24
BRANCH  10  26
ATOM     26  C   UNL     1       3.437  -0.253  -0.145  0.00  0.00    +0.091 C 
ATOM     27  N   UNL     1       4.193  -0.446  -0.972  0.00  0.00    -0.194 NA
ENDBRANCH  10  26
BRANCH   8  28
ATOM     28  C   UNL     1      -1.068  -0.964  -0.208  0.00  0.00    +0.101 C 
ATOM     29  N   UNL     1      -1.989  -1.588  -0.438  0.00  0.00    -0.191 NA
ENDBRANCH   8  28
TORSDOF 7
