REMARK  Name = ZINC38776234
REMARK  9 active torsions:
REMARK  status: ('A' for Active; 'I' for Inactive)
REMARK    1  A    between atoms: C_1  and  C_2
REMARK    2  A    between atoms: C_13  and  C_15
REMARK    3  A    between atoms: C_15  and  C_16
REMARK    4  A    between atoms: C_16  and  C_17
REMARK    5  A    between atoms: N_19  and  C_20
REMARK    6  A    between atoms: C_20  and  C_21
REMARK    7  A    between atoms: C_21  and  C_22
REMARK    8  A    between atoms: C_25  and  O_31
REMARK    9  A    between atoms: O_31  and  C_32
REMARK                            x       y       z     vdW  Elec       q    Type
REMARK                         _______ _______ _______ _____ _____    ______ ____
ROOT
ATOM      1  C   UNL     1       1.115  -1.984   1.060  0.00  0.00    +0.024 C 
ENDROOT
BRANCH   1  13
ATOM      2  C   UNL     1      -0.019   1.526   0.010  0.00  0.00    +0.013 C 
ATOM      3  C   UNL     1       0.002  -0.004   0.002  0.00  0.00    +0.033 C 
ATOM      4  C   UNL     1      -1.414  -0.524   0.009  0.00  0.00    -0.001 A 
ATOM      5  C   UNL     1      -2.102  -0.540  -1.177  0.00  0.00    +0.019 A 
ATOM      6  C   UNL     1      -3.414  -1.004  -1.222  0.00  0.00    +0.024 A 
ATOM      7  C   UNL     1      -4.038  -1.462  -0.047  0.00  0.00    +0.139 A 
ATOM      8  C   UNL     1      -3.330  -1.442   1.145  0.00  0.00    +0.093 A 
ATOM      9  C   UNL     1      -2.022  -0.977   1.172  0.00  0.00    +0.139 A 
ATOM     10  O   UNL     1      -1.363  -0.992   2.364  0.00  0.00    -0.425 OA
ATOM     11  C   UNL     1      -0.178  -0.354   2.429  0.00  0.00    +0.316 C 
ATOM     12  O   UNL     1       0.131   0.311   3.390  0.00  0.00    -0.250 OA
ATOM     13  C   UNL     1       0.747  -0.510   1.241  0.00  0.00    +0.106 C 
ATOM     14  O   UNL     1      -5.288  -1.848  -0.378  0.00  0.00    -0.459 OA
ATOM     15  C   UNL     1      -5.515  -1.666  -1.690  0.00  0.00    +0.109 A 
ATOM     16  C   UNL     1      -4.418  -1.155  -2.273  0.00  0.00    +0.001 A 
ATOM     17  C   UNL     1      -4.296  -0.819  -3.736  0.00  0.00    +0.039 C 
ATOM     18  C   UNL     1      -5.438  -1.512  -4.490  0.00  0.00    +0.005 C 
ATOM     19  C   UNL     1      -6.763  -1.226  -3.777  0.00  0.00    +0.008 C 
ATOM     20  C   UNL     1      -6.793  -1.971  -2.438  0.00  0.00    +0.075 C 
ENDBRANCH   1  13
BRANCH   1  21
ATOM     21  C   UNL     1       1.965  -2.446   2.245  0.00  0.00    +0.096 C 
BRANCH  21  22
ATOM     22  C   UNL     1       2.328  -3.898   2.067  0.00  0.00    +0.213 C 
ATOM     23  O   UNL     1       1.944  -4.503   1.088  0.00  0.00    -0.276 OA
ATOM     24  N   UNL     1       3.079  -4.524   2.995  0.00  0.00    -0.315 N 
ATOM     25  H   UNL     1       3.385  -4.040   3.777  0.00  0.00    +0.149 HD
BRANCH  24  26
ATOM     26  C   UNL     1       3.431  -5.935   2.821  0.00  0.00    +0.109 C 
BRANCH  26  27
ATOM     27  C   UNL     1       4.281  -6.398   4.006  0.00  0.00    +0.056 C 
BRANCH  27  28
ATOM     28  C   UNL     1       4.644  -7.850   3.828  0.00  0.00    -0.021 A 
ATOM     29  C   UNL     1       5.775  -8.377   3.061  0.00  0.00    +0.006 A 
ATOM     30  C   UNL     1       6.796  -7.789   2.312  0.00  0.00    +0.056 A 
ATOM     31  C   UNL     1       7.737  -8.589   1.694  0.00  0.00    +0.121 A 
ATOM     32  C   UNL     1       7.668  -9.974   1.815  0.00  0.00    +0.047 A 
ATOM     33  C   UNL     1       6.665 -10.565   2.551  0.00  0.00    +0.030 A 
ATOM     34  C   UNL     1       5.708  -9.777   3.181  0.00  0.00    +0.047 A 
ATOM     35  N   UNL     1       4.612 -10.065   3.967  0.00  0.00    -0.360 N 
ATOM     36  C   UNL     1       3.995  -8.904   4.347  0.00  0.00    +0.087 A 
ATOM     37  H   UNL     1       4.324 -10.957   4.217  0.00  0.00    +0.165 HD
BRANCH  31  38
ATOM     38  O   UNL     1       8.733  -8.022   0.963  0.00  0.00    -0.495 OA
ATOM     39  C   UNL     1       9.673  -8.907   0.350  0.00  0.00    +0.277 C 
ENDBRANCH  31  38
ENDBRANCH  27  28
ENDBRANCH  26  27
ENDBRANCH  24  26
ENDBRANCH  21  22
ENDBRANCH   1  21
TORSDOF 7
