REMARK  Name = ZINC21264824
REMARK  5 active torsions:
REMARK  status: ('A' for Active; 'I' for Inactive)
REMARK    1  A    between atoms: C_6  and  N_7
REMARK    2  A    between atoms: C_11  and  N_13
REMARK    3  A    between atoms: C_14  and  C_16
REMARK    4  A    between atoms: C_16  and  N_17
REMARK    5  A    between atoms: N_17  and  C_18
REMARK                            x       y       z     vdW  Elec       q    Type
REMARK                         _______ _______ _______ _____ _____    ______ ____
ROOT
ATOM      1  C   UNL     1      11.994   1.341  -1.805  0.00  0.00    +0.035 A 
ATOM      2  C   UNL     1      10.644   1.170  -1.639  0.00  0.00    +0.031 A 
ATOM      3  C   UNL     1       9.983   1.698  -0.506  0.00  0.00    +0.081 A 
ATOM      4  C   UNL     1      10.792   2.397   0.419  0.00  0.00    +0.043 A 
ATOM      5  C   UNL     1      12.143   2.563   0.244  0.00  0.00    +0.050 A 
ATOM      6  C   UNL     1      12.757   2.033  -0.876  0.00  0.00    +0.127 A 
ATOM      7  S   UNL     1       9.614   2.890   1.654  0.00  0.00    -0.048 S 
ATOM      8  C   UNL     1       8.173   2.154   0.896  0.00  0.00    +0.197 A 
ATOM      9  N   UNL     1       8.672   1.619  -0.193  0.00  0.00    -0.221 NA
ENDROOT
BRANCH   6  10
ATOM     10  N   UNL     1      14.213   2.203  -1.082  0.00  0.00    +0.056 N 
ATOM     11  O   UNL     1      14.877   2.812  -0.262  0.00  0.00    -0.126 OA
ATOM     12  O   UNL     1      14.747   1.734  -2.071  0.00  0.00    -0.126 OA
ENDBRANCH   6  10
BRANCH   8  13
ATOM     13  N   UNL     1       6.861   2.153   1.343  0.00  0.00    -0.188 NA
ATOM     14  C   UNL     1       5.903   1.541   0.619  0.00  0.00    +0.232 C 
ATOM     15  O   UNL     1       6.189   0.991  -0.423  0.00  0.00    -0.273 OA
BRANCH  14  16
ATOM     16  C   UNL     1       4.477   1.540   1.104  0.00  0.00    +0.020 C 
BRANCH  16  17
ATOM     17  N   UNL     1       3.634   0.814   0.145  0.00  0.00    +0.387 N 
ATOM     18  H   UNL     1       3.687   1.307  -0.837  0.00  0.00    -0.085 HD
ATOM     19  H   UNL     1       3.991  -0.223   0.054  0.00  0.00    -0.085 HD
BRANCH  17  20
ATOM     20  C   UNL     1       2.232   0.792   0.586  0.00  0.00    -0.071 C 
ATOM     21  C   UNL     1       1.453   1.995  -0.001  0.00  0.00    -0.016 C 
ATOM     22  C   UNL     1      -0.019   1.534   0.011  0.00  0.00    -0.002 C 
ATOM     23  C   UNL     1       0.002  -0.004   0.002  0.00  0.00    -0.002 C 
ATOM     24  C   UNL     1       1.486  -0.425  -0.014  0.00  0.00    -0.016 C 
ENDBRANCH  17  20
ENDBRANCH  16  17
ENDBRANCH  14  16
ENDBRANCH   8  13
TORSDOF 5
