REMARK  Name = ZINC37501014
REMARK  8 active torsions:
REMARK  status: ('A' for Active; 'I' for Inactive)
REMARK    1  A    between atoms: C_1  and  O_2
REMARK    2  A    between atoms: O_2  and  C_3
REMARK    3  A    between atoms: C_5  and  C_11
REMARK    4  A    between atoms: C_8  and  O_9
REMARK    5  A    between atoms: C_11  and  N_12
REMARK    6  A    between atoms: N_12  and  C_13
REMARK    7  A    between atoms: C_13  and  C_14
REMARK    8  A    between atoms: C_14  and  C_15
REMARK                            x       y       z     vdW  Elec       q    Type
REMARK                         _______ _______ _______ _____ _____    ______ ____
ROOT
ATOM      1  C   UNL     1      -4.871   0.258   0.039  0.00  0.00    -0.047 C 
ENDROOT
BRANCH   1   4
ATOM      2  C   UNL     1      -1.201  -0.638   0.010  0.00  0.00    +0.163 A 
ATOM      3  C   UNL     1      -2.374   0.100   0.019  0.00  0.00    +0.051 A 
ATOM      4  C   UNL     1      -3.597  -0.546   0.028  0.00  0.00    -0.060 A 
ATOM      5  C   UNL     1      -3.653  -1.927   0.028  0.00  0.00    +0.021 A 
ATOM      6  C   UNL     1      -2.486  -2.669   0.018  0.00  0.00    +0.063 A 
ATOM      7  C   UNL     1      -1.257  -2.028   0.003  0.00  0.00    +0.173 A 
ATOM      8 BR   UNL     1      -2.567  -4.559   0.019  0.00  0.00    -0.046 Br
BRANCH   2  10
ATOM      9  C   UNL     1      -0.017   1.425   0.010  0.00  0.00    +0.277 C 
ATOM     10  O   UNL     1       0.002  -0.004   0.002  0.00  0.00    -0.491 OA
ENDBRANCH   2  10
BRANCH   7  11
ATOM     11  O   UNL     1      -0.108  -2.756  -0.012  0.00  0.00    -0.503 OA
ATOM     12  H   UNL     1       0.233  -2.971   0.867  0.00  0.00    +0.292 HD
ENDBRANCH   7  11
ENDBRANCH   1   4
BRANCH   1  13
ATOM     13  N   UNL     1      -5.296   0.521  -1.342  0.00  0.00    +0.382 N 
ATOM     14  H   UNL     1      -4.576   1.039  -1.823  0.00  0.00    -0.085 HD
ATOM     15  H   UNL     1      -5.455  -0.355  -1.818  0.00  0.00    -0.085 HD
BRANCH  13  16
ATOM     16  C   UNL     1      -6.539   1.305  -1.332  0.00  0.00    -0.082 C 
BRANCH  16  17
ATOM     17  C   UNL     1      -6.981   1.579  -2.771  0.00  0.00    -0.016 C 
BRANCH  17  18
ATOM     18  C   UNL     1      -8.275   2.395  -2.760  0.00  0.00    -0.013 C 
ATOM     19  C   UNL     1      -9.399   1.561  -2.143  0.00  0.00    +0.003 C 
ATOM     20  C   UNL     1     -10.693   2.377  -2.131  0.00  0.00    +0.000 C 
ATOM     21  C   UNL     1     -11.069   2.757  -3.565  0.00  0.00    +0.000 C 
ATOM     22  C   UNL     1      -9.944   3.591  -4.183  0.00  0.00    +0.000 C 
ATOM     23  C   UNL     1      -8.650   2.775  -4.194  0.00  0.00    +0.003 C 
ENDBRANCH  17  18
ENDBRANCH  16  17
ENDBRANCH  13  16
ENDBRANCH   1  13
TORSDOF 7
