REMARK  Name = ZINC35641303
REMARK  11 active torsions:
REMARK  status: ('A' for Active; 'I' for Inactive)
REMARK    1  A    between atoms: C_1  and  C_2
REMARK    2  A    between atoms: C_2  and  N_3
REMARK    3  A    between atoms: N_6  and  C_9
REMARK    4  A    between atoms: C_9  and  C_10
REMARK    5  A    between atoms: C_11  and  C_28
REMARK    6  A    between atoms: C_12  and  C_20
REMARK    7  A    between atoms: N_17  and  C_18
REMARK    8  A    between atoms: C_18  and  C_19
REMARK    9  A    between atoms: C_28  and  O_30
REMARK   10  A    between atoms: O_30  and  C_31
REMARK   11  A    between atoms: C_31  and  C_32
REMARK                            x       y       z     vdW  Elec       q    Type
REMARK                         _______ _______ _______ _____ _____    ______ ____
ROOT
ATOM      1  C   UNL     1       3.942  -4.243  -3.449  0.00  0.00    +0.041 C 
ATOM      2  C   UNL     1       3.120  -4.766  -4.385  0.00  0.00    +0.080 C 
ATOM      3  C   UNL     1       2.864  -6.259  -4.343  0.00  0.00    +0.145 C 
ATOM      4  N   UNL     1       3.536  -7.022  -3.278  0.00  0.00    -0.288 N 
ATOM      5  C   UNL     1       4.329  -6.357  -2.415  0.00  0.00    +0.307 C 
ATOM      6  O   UNL     1       4.888  -6.978  -1.532  0.00  0.00    -0.252 OA
ATOM      7  N   UNL     1       4.525  -5.035  -2.502  0.00  0.00    -0.258 N 
ATOM      8  H   UNL     1       3.411  -7.981  -3.200  0.00  0.00    +0.151 HD
ENDROOT
BRANCH   3   9
ATOM      9  C   UNL     1       3.287  -6.840  -5.668  0.00  0.00    -0.004 A 
ATOM     10  C   UNL     1       4.572  -7.324  -5.832  0.00  0.00    +0.008 A 
ATOM     11  C   UNL     1       4.961  -7.857  -7.046  0.00  0.00    +0.020 A 
ATOM     12  C   UNL     1       4.064  -7.907  -8.099  0.00  0.00    +0.042 A 
ATOM     13  C   UNL     1       2.778  -7.425  -7.935  0.00  0.00    +0.040 A 
ATOM     14  C   UNL     1       2.388  -6.895  -6.718  0.00  0.00    +0.048 A 
ATOM     15 CL   UNL     1       0.773  -6.294  -6.510  0.00  0.00    -0.083 Cl
ATOM     16 CL   UNL     1       4.553  -8.577  -9.624  0.00  0.00    -0.083 Cl
ENDBRANCH   3   9
BRANCH   7  17
ATOM     17  C   UNL     1       5.410  -4.402  -1.520  0.00  0.00    +0.111 C 
ATOM     18  C   UNL     1       4.591  -3.963  -0.304  0.00  0.00    +0.025 C 
ENDBRANCH   7  17
BRANCH   2  19
ATOM     19  C   UNL     1       2.520  -3.949  -5.370  0.00  0.00    +0.339 C 
ATOM     20  O   UNL     1       1.374  -3.565  -5.227  0.00  0.00    -0.245 OA
BRANCH  19  21
ATOM     21  O   UNL     1       3.217  -3.594  -6.470  0.00  0.00    -0.462 OA
BRANCH  21  22
ATOM     22  C   UNL     1       2.517  -2.855  -7.472  0.00  0.00    +0.229 C 
ATOM     23  C   UNL     1       3.426  -2.652  -8.685  0.00  0.00    +0.048 C 
ENDBRANCH  21  22
ENDBRANCH  19  21
ENDBRANCH   2  19
BRANCH   1  24
ATOM     24  C   UNL     1       4.223  -2.763  -3.454  0.00  0.00    +0.136 C 
BRANCH  24  28
ATOM     25  N   UNL     1       2.035  -0.228  -0.876  0.00  0.00    +0.381 N 
ATOM     26  C   UNL     1       3.502  -0.175  -0.815  0.00  0.00    -0.063 C 
ATOM     27  C   UNL     1       4.087  -0.758  -2.102  0.00  0.00    +0.066 C 
ATOM     28  N   UNL     1       3.636  -2.148  -2.256  0.00  0.00    -0.300 NA
ATOM     29  C   UNL     1       2.168  -2.220  -2.294  0.00  0.00    +0.066 C 
ATOM     30  C   UNL     1       1.598  -1.624  -1.005  0.00  0.00    -0.063 C 
ATOM     31  H   UNL     1       1.713   0.300  -1.673  0.00  0.00    -0.082 HD
BRANCH  25  33
ATOM     32  C   UNL     1       1.823   1.837   0.425  0.00  0.00    -0.017 C 
ATOM     33  C   UNL     1       1.473   0.349   0.353  0.00  0.00    -0.082 C 
ENDBRANCH  25  33
ENDBRANCH  24  28
ENDBRANCH   1  24
TORSDOF 8
