REMARK  Name = ZINC17057474
REMARK  7 active torsions:
REMARK  status: ('A' for Active; 'I' for Inactive)
REMARK    1  A    between atoms: C_1  and  C_2
REMARK    2  A    between atoms: C_6  and  N_8
REMARK    3  A    between atoms: C_9  and  C_11
REMARK    4  A    between atoms: C_11  and  C_13
REMARK    5  A    between atoms: C_11  and  N_24
REMARK    6  A    between atoms: C_13  and  C_14
REMARK    7  A    between atoms: C_25  and  C_27
REMARK                            x       y       z     vdW  Elec       q    Type
REMARK                         _______ _______ _______ _____ _____    ______ ____
ROOT
ATOM      1  C   UNL     1      -0.129  -4.898   3.686  0.00  0.00    +0.164 C 
ENDROOT
BRANCH   1   3
ATOM      2  N   UNL     1       0.052  -2.797   2.393  0.00  0.00    -0.284 N 
ATOM      3  C   UNL     1      -0.031  -4.143   2.385  0.00  0.00    +0.238 C 
ATOM      4  O   UNL     1      -0.028  -4.745   1.333  0.00  0.00    -0.273 OA
ATOM      5  H   UNL     1       0.117  -2.320   3.235  0.00  0.00    +0.155 HD
BRANCH   2  11
ATOM      6  C   UNL     1      -1.253   1.194  -0.165  0.00  0.00    +0.044 C 
ATOM      7  C   UNL     1      -0.581  -0.153  -0.082  0.00  0.00    -0.049 A 
ATOM      8  C   UNL     1       0.029  -0.690  -1.201  0.00  0.00    +0.003 A 
ATOM      9  C   UNL     1       0.647  -1.925  -1.130  0.00  0.00    +0.002 A 
ATOM     10  C   UNL     1       0.656  -2.626   0.060  0.00  0.00    +0.023 A 
ATOM     11  C   UNL     1       0.045  -2.090   1.186  0.00  0.00    +0.034 A 
ATOM     12  C   UNL     1      -0.571  -0.846   1.112  0.00  0.00    +0.026 A 
ENDBRANCH   2  11
ENDBRANCH   1   3
BRANCH   1  13
ATOM     13  N   UNL     1      -0.207  -6.335   3.410  0.00  0.00    -0.302 N 
ATOM     14  C   UNL     1       0.196  -7.223   4.341  0.00  0.00    +0.231 C 
ATOM     15  O   UNL     1       0.624  -6.832   5.406  0.00  0.00    -0.274 OA
ATOM     16  H   UNL     1      -0.550  -6.648   2.558  0.00  0.00    +0.150 HD
BRANCH  14  17
ATOM     17  C   UNL     1       0.115  -8.701   4.058  0.00  0.00    +0.145 C 
ATOM     18  C   UNL     1       1.310  -9.126   3.204  0.00  0.00    +0.063 C 
ATOM     19  C   UNL     1       1.371 -10.630   3.118  0.00  0.00    -0.041 A 
ATOM     20  C   UNL     1       2.145 -11.205   2.121  0.00  0.00    +0.004 A 
ATOM     21  C   UNL     1       2.231 -12.578   2.010  0.00  0.00    +0.000 A 
ATOM     22  C   UNL     1       1.543 -13.384   2.897  0.00  0.00    +0.000 A 
ATOM     23  C   UNL     1       0.771 -12.813   3.889  0.00  0.00    +0.005 A 
ATOM     24  C   UNL     1       0.681 -11.434   4.001  0.00  0.00    -0.030 A 
ATOM     25  C   UNL     1      -0.182 -10.857   5.092  0.00  0.00    +0.117 C 
ATOM     26  N   UNL     1       0.150  -9.449   5.324  0.00  0.00    -0.301 NA
ATOM     27  H   UNL     1       1.050  -9.362   5.771  0.00  0.00    +0.123 HD
ENDBRANCH  14  17
ENDBRANCH   1  13
BRANCH   1  28
ATOM     28  C   UNL     1      -1.383  -4.454   4.441  0.00  0.00    +0.069 C 
BRANCH  28  29
ATOM     29  C   UNL     1      -1.416  -5.118   5.794  0.00  0.00    -0.020 A 
ATOM     30  C   UNL     1      -2.054  -6.256   6.109  0.00  0.00    +0.087 A 
ATOM     31  N   UNL     1      -1.859  -6.549   7.431  0.00  0.00    -0.360 N 
ATOM     32  H   UNL     1      -2.222  -7.323   7.890  0.00  0.00    +0.165 HD
ATOM     33  C   UNL     1      -1.069  -5.583   8.014  0.00  0.00    +0.047 A 
ATOM     34  C   UNL     1      -0.751  -4.647   7.012  0.00  0.00    +0.003 A 
ATOM     35  C   UNL     1       0.052  -3.547   7.315  0.00  0.00    +0.010 A 
ATOM     36  C   UNL     1       0.530  -3.386   8.585  0.00  0.00    +0.001 A 
ATOM     37  C   UNL     1       0.223  -4.309   9.576  0.00  0.00    +0.002 A 
ATOM     38  C   UNL     1      -0.576  -5.397   9.301  0.00  0.00    +0.026 A 
ENDBRANCH  28  29
ENDBRANCH   1  28
TORSDOF 6
