REMARK  Name = ZINC36029857
REMARK  11 active torsions:
REMARK  status: ('A' for Active; 'I' for Inactive)
REMARK    1  A    between atoms: C_1  and  C_2
REMARK    2  A    between atoms: C_2  and  C_3
REMARK    3  A    between atoms: C_2  and  C_4
REMARK    4  A    between atoms: C_4  and  C_5
REMARK    5  A    between atoms: N_9  and  C_23
REMARK    6  A    between atoms: N_14  and  C_17
REMARK    7  A    between atoms: C_17  and  N_19
REMARK    8  A    between atoms: N_19  and  C_20
REMARK    9  A    between atoms: C_20  and  C_21
REMARK   10  A    between atoms: C_20  and  C_22
REMARK   11  A    between atoms: C_23  and  C_24
REMARK                            x       y       z     vdW  Elec       q    Type
REMARK                         _______ _______ _______ _____ _____    ______ ____
ROOT
ATOM      1  C   UNL     1      -0.275  -0.677   2.568  0.00  0.00    +0.019 C 
ATOM      2  C   UNL     1       0.232  -1.167   3.907  0.00  0.00    +0.201 C 
ATOM      3  O   UNL     1       0.402  -2.326   4.220  0.00  0.00    -0.277 OA
ATOM      4  N   UNL     1       0.464  -0.096   4.694  0.00  0.00    -0.309 N 
ATOM      5  C   UNL     1       0.134   1.130   3.963  0.00  0.00    +0.006 C 
ATOM      6  N   UNL     1       0.079   0.763   2.530  0.00  0.00    +0.401 N 
ATOM      7  C   UNL     1       1.215   2.186   4.184  0.00  0.00    +0.025 C 
ATOM      8  C   UNL     1       1.288   2.533   5.675  0.00  0.00    +0.107 C 
ATOM      9  N   UNL     1      -0.051   2.922   6.136  0.00  0.00    -0.313 N 
ATOM     10  C   UNL     1      -1.174   2.004   5.902  0.00  0.00    +0.107 C 
ATOM     11  C   UNL     1      -1.227   1.662   4.409  0.00  0.00    +0.025 C 
ATOM     12  H   UNL     1       0.978   0.897   2.093  0.00  0.00    -0.082 HD
ATOM     13  H   UNL     1      -0.635   1.293   2.052  0.00  0.00    -0.082 HD
ENDROOT
BRANCH   9  14
ATOM     14  C   UNL     1      -0.246   4.098   6.764  0.00  0.00    +0.133 C 
ATOM     15  S   UNL     1       1.044   5.215   6.910  0.00  0.00    -0.019 S 
BRANCH  14  16
ATOM     16  N   UNL     1      -1.457   4.396   7.276  0.00  0.00    -0.324 N 
ATOM     17  H   UNL     1      -2.166   3.735   7.261  0.00  0.00    +0.148 HD
BRANCH  16  18
ATOM     18  C   UNL     1      -1.701   5.720   7.856  0.00  0.00    +0.066 C 
ATOM     19  C   UNL     1      -2.092   6.698   6.746  0.00  0.00    +0.027 C 
ATOM     20  C   UNL     1      -2.837   5.627   8.877  0.00  0.00    +0.027 C 
ENDBRANCH  16  18
ENDBRANCH  14  16
ENDBRANCH   9  14
BRANCH   1  21
ATOM     21  C   UNL     1       0.419  -1.426   1.429  0.00  0.00    -0.004 C 
BRANCH  21  23
ATOM     22  C   UNL     1       0.727  -1.523  -1.049  0.00  0.00    +0.007 C 
ATOM     23  C   UNL     1      -0.078  -0.888   0.086  0.00  0.00    -0.018 C 
ATOM     24  C   UNL     1      -1.559  -1.233  -0.085  0.00  0.00    +0.007 C 
ENDBRANCH  21  23
ENDBRANCH   1  21
BRANCH   4  25
ATOM     25  C   UNL     1       0.969  -0.150   6.069  0.00  0.00    +0.141 C 
BRANCH  25  26
ATOM     26  C   UNL     1       2.453  -0.410   6.049  0.00  0.00    -0.030 A 
ATOM     27  C   UNL     1       2.927  -1.701   5.915  0.00  0.00    +0.008 A 
ATOM     28  C   UNL     1       4.288  -1.940   5.896  0.00  0.00    +0.038 A 
ATOM     29  C   UNL     1       5.177  -0.886   6.012  0.00  0.00    +0.123 A 
ATOM     30  C   UNL     1       4.702   0.408   6.146  0.00  0.00    +0.038 A 
ATOM     31  C   UNL     1       3.340   0.645   6.159  0.00  0.00    +0.008 A 
ATOM     32  F   UNL     1       6.508  -1.118   5.994  0.00  0.00    -0.205 F 
ENDBRANCH  25  26
ENDBRANCH   4  25
TORSDOF 7
