REMARK  Name = ZINC22609246
REMARK  8 active torsions:
REMARK  status: ('A' for Active; 'I' for Inactive)
REMARK    1  A    between atoms: C_1  and  C_2
REMARK    2  A    between atoms: C_9  and  C_11
REMARK    3  A    between atoms: C_14  and  N_17
REMARK    4  A    between atoms: C_21  and  N_25
REMARK    5  A    between atoms: C_30  and  O_37
REMARK    6  A    between atoms: C_31  and  O_35
REMARK    7  A    between atoms: O_35  and  C_36
REMARK    8  A    between atoms: O_37  and  C_38
REMARK                            x       y       z     vdW  Elec       q    Type
REMARK                         _______ _______ _______ _____ _____    ______ ____
ROOT
ATOM      1  N   UNL     1       2.187   0.797  -0.015  0.00  0.00    -0.212 N 
ATOM      2  C   UNL     1       1.448   1.911   0.043  0.00  0.00    +0.225 C 
ATOM      3  O   UNL     1       1.884   3.042   0.090  0.00  0.00    -0.275 OA
ATOM      4  C   UNL     1      -0.018   1.537   0.041  0.00  0.00    +0.091 C 
ATOM      5  C   UNL     1       0.002  -0.003  -0.029  0.00  0.00    +0.029 C 
ATOM      6  C   UNL     1       1.477  -0.338  -0.059  0.00  0.00    +0.213 C 
ATOM      7  O   UNL     1       1.943  -1.455  -0.115  0.00  0.00    -0.277 OA
ENDROOT
BRANCH   5   8
ATOM      8  N   UNL     1      -0.639  -0.583   1.159  0.00  0.00    +0.391 N 
ATOM      9  C   UNL     1      -0.644  -2.053   1.091  0.00  0.00    -0.073 C 
ATOM     10  C   UNL     1      -0.974  -2.602   2.479  0.00  0.00    +0.017 C 
ATOM     11  C   UNL     1      -2.211  -1.930   3.018  0.00  0.00    -0.044 A 
ATOM     12  C   UNL     1      -2.872  -2.522   4.084  0.00  0.00    +0.053 A 
ATOM     13  C   UNL     1      -4.006  -1.936   4.617  0.00  0.00    +0.162 A 
ATOM     14  C   UNL     1      -4.485  -0.746   4.077  0.00  0.00    +0.162 A 
ATOM     15  C   UNL     1      -3.823  -0.160   3.013  0.00  0.00    +0.051 A 
ATOM     16  C   UNL     1      -2.686  -0.753   2.481  0.00  0.00    -0.057 A 
ATOM     17  C   UNL     1      -2.006  -0.077   1.319  0.00  0.00    -0.042 C 
ATOM     18  H   UNL     1      -0.053  -0.276   2.038  0.00  0.00    -0.080 HD
BRANCH  14  19
ATOM     19  O   UNL     1      -5.598  -0.160   4.595  0.00  0.00    -0.491 OA
ATOM     20  C   UNL     1      -6.030   1.060   3.990  0.00  0.00    +0.277 C 
ENDBRANCH  14  19
BRANCH  13  21
ATOM     21  O   UNL     1      -4.651  -2.521   5.662  0.00  0.00    -0.491 OA
ATOM     22  C   UNL     1      -4.101  -3.741   6.162  0.00  0.00    +0.277 C 
ENDBRANCH  13  21
ENDBRANCH   5   8
BRANCH   1  26
ATOM     23  C   UNL     1       6.357   0.854  -0.052  0.00  0.00    +0.007 A 
ATOM     24  C   UNL     1       5.641   1.361  -1.138  0.00  0.00    +0.012 A 
ATOM     25  C   UNL     1       4.263   1.340  -1.123  0.00  0.00    +0.024 A 
ATOM     26  C   UNL     1       3.587   0.816  -0.027  0.00  0.00    +0.044 A 
ATOM     27  C   UNL     1       4.297   0.316   1.058  0.00  0.00    +0.024 A 
ATOM     28  C   UNL     1       5.675   0.328   1.046  0.00  0.00    +0.012 A 
BRANCH  23  37
ATOM     29  C   UNL     1      14.214   0.935  -0.052  0.00  0.00    +0.044 C 
ATOM     30  C   UNL     1      12.738   1.051  -0.329  0.00  0.00    -0.049 A 
ATOM     31  C   UNL     1      12.290   1.609  -1.519  0.00  0.00    +0.005 A 
ATOM     32  C   UNL     1      10.964   1.728  -1.797  0.00  0.00    +0.029 A 
ATOM     33  C   UNL     1       9.986   1.281  -0.876  0.00  0.00    +0.079 A 
ATOM     34  C   UNL     1      10.474   0.717   0.326  0.00  0.00    +0.040 A 
ATOM     35  C   UNL     1      11.816   0.602   0.598  0.00  0.00    +0.020 A 
ATOM     36  S   UNL     1       8.976   0.302   1.186  0.00  0.00    -0.067 S 
ATOM     37  C   UNL     1       7.835   0.875  -0.066  0.00  0.00    +0.109 A 
ATOM     38  N   UNL     1       8.646   1.325  -0.999  0.00  0.00    -0.239 NA
ENDBRANCH  23  37
ENDBRANCH   1  26
TORSDOF 5
