REMARK  Name = ZINC20532206
REMARK  11 active torsions:
REMARK  status: ('A' for Active; 'I' for Inactive)
REMARK    1  A    between atoms: C_1  and  C_2
REMARK    2  A    between atoms: C_2  and  N_3
REMARK    3  A    between atoms: C_9  and  N_27
REMARK    4  A    between atoms: C_10  and  C_11
REMARK    5  A    between atoms: C_11  and  C_13
REMARK    6  A    between atoms: C_11  and  N_18
REMARK    7  A    between atoms: C_13  and  C_14
REMARK    8  A    between atoms: C_14  and  C_15
REMARK    9  A    between atoms: C_15  and  C_16
REMARK   10  A    between atoms: C_15  and  C_17
REMARK   11  A    between atoms: N_21  and  C_22
REMARK                            x       y       z     vdW  Elec       q    Type
REMARK                         _______ _______ _______ _____ _____    ______ ____
ROOT
ATOM      1  N   UNL     1       4.184  -4.373  -0.943  0.00  0.00    +0.383 N 
ATOM      2  C   UNL     1       4.312  -2.983  -0.484  0.00  0.00    -0.074 C 
ATOM      3  C   UNL     1       3.318  -2.087  -1.227  0.00  0.00    +0.018 C 
ATOM      4  C   UNL     1       1.930  -2.710  -1.104  0.00  0.00    -0.034 A 
ATOM      5  C   UNL     1       1.814  -4.019  -0.747  0.00  0.00    -0.021 A 
ATOM      6  S   UNL     1       0.065  -4.299  -0.724  0.00  0.00    -0.077 S 
ATOM      7  C   UNL     1      -0.449  -2.653  -1.191  0.00  0.00    +0.090 A 
ATOM      8  C   UNL     1       0.745  -2.017  -1.335  0.00  0.00    +0.007 A 
ATOM      9  C   UNL     1       2.927  -4.970  -0.451  0.00  0.00    -0.035 C 
ATOM     10  H   UNL     1       4.160  -4.368  -2.042  0.00  0.00    -0.081 HD
ENDROOT
BRANCH   7  11
ATOM     11  N   UNL     1      -1.743  -2.149  -1.366  0.00  0.00    -0.317 N 
ATOM     12  C   UNL     1      -2.064  -0.843  -1.600  0.00  0.00    +0.092 A 
ATOM     13  C   UNL     1      -3.405  -0.753  -1.716  0.00  0.00    +0.019 A 
ATOM     14  C   UNL     1      -3.933  -2.047  -1.537  0.00  0.00    +0.019 A 
ATOM     15  C   UNL     1      -2.894  -2.882  -1.325  0.00  0.00    +0.092 A 
ENDBRANCH   7  11
BRANCH   1  17
ATOM     16  C   UNL     1       5.485  -5.116   0.995  0.00  0.00    -0.017 C 
ATOM     17  C   UNL     1       5.344  -5.174  -0.527  0.00  0.00    -0.082 C 
ENDBRANCH   1  17
BRANCH   8  18
ATOM     18  C   UNL     1       0.784  -0.565  -1.736  0.00  0.00    +0.108 C 
BRANCH  18  19
ATOM     19  N   UNL     1      -0.097  -0.352  -2.886  0.00  0.00    -0.292 N 
ATOM     20  C   UNL     1       0.107   0.698  -3.707  0.00  0.00    +0.300 C 
ATOM     21  O   UNL     1       1.023   1.468  -3.493  0.00  0.00    -0.253 OA
ATOM     22  N   UNL     1      -0.704   0.893  -4.766  0.00  0.00    -0.297 N 
ATOM     23  H   UNL     1      -0.926  -1.048  -3.081  0.00  0.00    +0.151 HD
ATOM     24  H   UNL     1      -1.533   0.197  -4.960  0.00  0.00    +0.151 HD
BRANCH  22  25
ATOM     25  C   UNL     1      -0.481   2.034  -5.658  0.00  0.00    +0.074 C 
ATOM     26  C   UNL     1      -1.233   3.273  -5.129  0.00  0.00    +0.022 C 
ATOM     27  C   UNL     1      -1.741   3.984  -6.408  0.00  0.00    +0.002 C 
ATOM     28  C   UNL     1      -2.139   2.799  -7.322  0.00  0.00    +0.002 C 
ATOM     29  C   UNL     1      -1.058   1.732  -7.052  0.00  0.00    +0.022 C 
ENDBRANCH  22  25
ENDBRANCH  18  19
BRANCH  18  30
ATOM     30  C   UNL     1       0.313   0.301  -0.566  0.00  0.00    +0.027 C 
BRANCH  30  31
ATOM     31  C   UNL     1       0.470   1.779  -0.928  0.00  0.00    +0.005 C 
BRANCH  31  32
ATOM     32  C   UNL     1      -0.001   2.644   0.242  0.00  0.00    -0.017 C 
ATOM     33  C   UNL     1       0.272   4.117  -0.070  0.00  0.00    +0.007 C 
ATOM     34  C   UNL     1      -1.501   2.438   0.457  0.00  0.00    +0.007 C 
ENDBRANCH  31  32
ENDBRANCH  30  31
ENDBRANCH  18  30
ENDBRANCH   8  18
TORSDOF 8
