REMARK  Name = ZINC45924985
REMARK  8 active torsions:
REMARK  status: ('A' for Active; 'I' for Inactive)
REMARK    1  A    between atoms: C_3  and  S_6
REMARK    2  A    between atoms: S_6  and  C_9
REMARK    3  A    between atoms: C_12  and  S_16
REMARK    4  A    between atoms: C_14  and  N_15
REMARK    5  A    between atoms: S_16  and  C_17
REMARK    6  A    between atoms: C_17  and  C_18
REMARK    7  A    between atoms: N_20  and  C_21
REMARK    8  A    between atoms: C_21  and  C_22
REMARK                            x       y       z     vdW  Elec       q    Type
REMARK                         _______ _______ _______ _____ _____    ______ ____
ROOT
ATOM      1  C   UNL     1       4.507   2.099   1.653  0.00  0.00    +0.152 A 
ATOM      2  C   UNL     1       5.528   1.321   2.164  0.00  0.00    +0.144 A 
ATOM      3  N   UNL     1       5.885   1.471   3.431  0.00  0.00    -0.228 NA
ATOM      4  C   UNL     1       5.279   2.355   4.210  0.00  0.00    +0.190 A 
ATOM      5  N   UNL     1       4.296   3.120   3.758  0.00  0.00    -0.205 NA
ATOM      6  C   UNL     1       3.890   3.026   2.496  0.00  0.00    +0.146 A 
ENDROOT
BRANCH   1   7
ATOM      7  S   UNL     1       4.001   1.932  -0.026  0.00  0.00    +0.036 S 
ATOM      8  O   UNL     1       4.799   0.900  -0.590  0.00  0.00    -0.164 OA
ATOM      9  O   UNL     1       3.957   3.244  -0.570  0.00  0.00    -0.164 OA
BRANCH   7  12
ATOM     10  C   UNL     1      -0.016   1.351   0.009  0.00  0.00    +0.009 A 
ATOM     11  C   UNL     1       1.183   2.038   0.002  0.00  0.00    +0.035 A 
ATOM     12  C   UNL     1       2.343   1.336  -0.013  0.00  0.00    +0.131 A 
ATOM     13  S   UNL     1       1.754  -0.349  -0.017  0.00  0.00    -0.078 S 
ATOM     14  C   UNL     1       0.002  -0.004   0.002  0.00  0.00    +0.047 A 
ENDBRANCH   7  12
ENDBRANCH   1   7
BRANCH   6  15
ATOM     15  N   UNL     1       2.867   3.832   2.025  0.00  0.00    -0.342 N 
ATOM     16  H   UNL     1       2.574   3.755   1.103  0.00  0.00    +0.144 HD
ATOM     17  H   UNL     1       2.443   4.473   2.616  0.00  0.00    +0.144 HD
ENDBRANCH   6  15
BRANCH   4  18
ATOM     18  S   UNL     1       5.791   2.516   5.888  0.00  0.00    -0.077 S 
BRANCH  18  19
ATOM     19  C   UNL     1       7.127   1.301   6.057  0.00  0.00    +0.173 C 
BRANCH  19  20
ATOM     20  C   UNL     1       7.662   1.335   7.466  0.00  0.00    +0.224 C 
ATOM     21  O   UNL     1       7.189   2.104   8.276  0.00  0.00    -0.275 OA
ATOM     22  N   UNL     1       8.667   0.512   7.825  0.00  0.00    -0.311 N 
ATOM     23  H   UNL     1       9.046  -0.102   7.178  0.00  0.00    +0.149 HD
BRANCH  22  24
ATOM     24  C   UNL     1       9.187   0.546   9.194  0.00  0.00    +0.139 C 
BRANCH  24  25
ATOM     25  C   UNL     1      10.297  -0.464   9.335  0.00  0.00    -0.030 A 
ATOM     26  C   UNL     1      10.008  -1.760   9.717  0.00  0.00    +0.006 A 
ATOM     27  C   UNL     1      11.026  -2.686   9.846  0.00  0.00    +0.020 A 
ATOM     28  C   UNL     1      12.335  -2.315   9.593  0.00  0.00    +0.041 A 
ATOM     29  C   UNL     1      12.623  -1.018   9.210  0.00  0.00    +0.020 A 
ATOM     30  C   UNL     1      11.604  -0.094   9.076  0.00  0.00    +0.006 A 
ATOM     31 CL   UNL     1      13.614  -3.478   9.755  0.00  0.00    -0.084 Cl
ENDBRANCH  24  25
ENDBRANCH  22  24
ENDBRANCH  19  20
ENDBRANCH  18  19
ENDBRANCH   4  18
TORSDOF 8
