REMARK  Name = ZINC35572525
REMARK  8 active torsions:
REMARK  status: ('A' for Active; 'I' for Inactive)
REMARK    1  A    between atoms: C_1  and  C_2
REMARK    2  A    between atoms: C_2  and  C_3
REMARK    3  A    between atoms: C_3  and  N_4
REMARK    4  A    between atoms: N_4  and  C_5
REMARK    5  A    between atoms: C_5  and  C_7
REMARK    6  A    between atoms: C_5  and  C_14
REMARK    7  A    between atoms: C_17  and  O_21
REMARK    8  A    between atoms: O_21  and  C_22
REMARK                            x       y       z     vdW  Elec       q    Type
REMARK                         _______ _______ _______ _____ _____    ______ ____
ROOT
ATOM      1  C   UNL     1      -2.792  -2.511   0.015  0.00  0.00    -0.010 C 
ENDROOT
BRANCH   1   2
ATOM      2  C   UNL     1      -3.458  -2.128   1.311  0.00  0.00    -0.056 A 
ATOM      3  C   UNL     1      -2.749  -2.185   2.497  0.00  0.00    +0.002 A 
ATOM      4  C   UNL     1      -3.360  -1.834   3.686  0.00  0.00    +0.001 A 
ATOM      5  C   UNL     1      -4.681  -1.427   3.690  0.00  0.00    +0.014 A 
ATOM      6  C   UNL     1      -5.391  -1.370   2.505  0.00  0.00    +0.014 A 
ATOM      7  C   UNL     1      -4.777  -1.716   1.315  0.00  0.00    +0.016 A 
ATOM      8  I   UNL     1      -7.393  -0.754   2.511  0.00  0.00    -0.044 I 
ENDBRANCH   1   2
BRANCH   1   9
ATOM      9  C   UNL     1      -2.774  -4.012  -0.117  0.00  0.00    -0.056 A 
ATOM     10  C   UNL     1      -1.822  -4.753   0.558  0.00  0.00    +0.006 A 
ATOM     11  C   UNL     1      -1.803  -6.130   0.439  0.00  0.00    +0.047 A 
ATOM     12  C   UNL     1      -2.741  -6.768  -0.359  0.00  0.00    +0.134 A 
ATOM     13  C   UNL     1      -3.696  -6.022  -1.036  0.00  0.00    +0.060 A 
ATOM     14  C   UNL     1      -3.714  -4.646  -0.908  0.00  0.00    +0.021 A 
ATOM     15 BR   UNL     1      -4.976  -6.889  -2.125  0.00  0.00    -0.047 Br
BRANCH  12  16
ATOM     16  O   UNL     1      -2.724  -8.122  -0.478  0.00  0.00    -0.494 OA
ATOM     17  C   UNL     1      -1.713  -8.825   0.246  0.00  0.00    +0.277 C 
ENDBRANCH  12  16
ENDBRANCH   1   9
BRANCH   1  18
ATOM     18  N   UNL     1      -1.413  -2.002   0.005  0.00  0.00    +0.386 N 
ATOM     19  H   UNL     1      -0.941  -2.328  -0.825  0.00  0.00    -0.085 HD
ATOM     20  H   UNL     1      -0.925  -2.337   0.822  0.00  0.00    -0.085 HD
BRANCH  18  21
ATOM     21  C   UNL     1      -1.433  -0.534   0.013  0.00  0.00    -0.082 C 
BRANCH  21  23
ATOM     22  C   UNL     1      -0.019   1.526   0.010  0.00  0.00    +0.002 C 
ATOM     23  C   UNL     1       0.002  -0.004   0.002  0.00  0.00    -0.022 C 
ENDBRANCH  21  23
ENDBRANCH  18  21
ENDBRANCH   1  18
TORSDOF 6
