REMARK  Name = ZINC39664481
REMARK  7 active torsions:
REMARK  status: ('A' for Active; 'I' for Inactive)
REMARK    1  A    between atoms: C_1  and  C_2
REMARK    2  A    between atoms: C_6  and  C_7
REMARK    3  A    between atoms: C_11  and  C_20
REMARK    4  A    between atoms: N_22  and  C_23
REMARK    5  A    between atoms: C_23  and  C_24
REMARK    6  A    between atoms: C_24  and  C_26
REMARK    7  A    between atoms: C_24  and  N_32
REMARK                            x       y       z     vdW  Elec       q    Type
REMARK                         _______ _______ _______ _____ _____    ______ ____
ROOT
ATOM      1  C   UNL     1       0.030  -0.261   2.596  0.00  0.00    +0.254 C 
ATOM      2  O   UNL     1       0.113   0.927   2.849  0.00  0.00    -0.269 OA
ATOM      3  N   UNL     1      -0.054  -1.158   3.599  0.00  0.00    -0.296 N 
ATOM      4  C   UNL     1      -0.036  -2.636   3.498  0.00  0.00    +0.121 C 
ATOM      5  C   UNL     1       0.810  -3.099   4.705  0.00  0.00    +0.100 C 
ATOM      6  C   UNL     1       0.707  -1.950   5.721  0.00  0.00    -0.004 C 
ATOM      7  C   UNL     1      -0.179  -0.889   5.051  0.00  0.00    +0.115 C 
ATOM      8  C   UNL     1       0.059  -2.442   7.012  0.00  0.00    -0.010 C 
ATOM      9  C   UNL     1       0.020  -1.296   8.027  0.00  0.00    -0.082 C 
ATOM     10  N   UNL     1       1.385  -0.825   8.290  0.00  0.00    +0.379 N 
ATOM     11  C   UNL     1       1.968  -0.268   7.062  0.00  0.00    -0.082 C 
ATOM     12  C   UNL     1       2.089  -1.371   6.007  0.00  0.00    -0.010 C 
ATOM     13  H   UNL     1       1.363  -0.112   9.003  0.00  0.00    -0.086 HD
ATOM     14  H   UNL     1       1.951  -1.598   8.608  0.00  0.00    -0.086 HD
ENDROOT
BRANCH   1  20
ATOM     15  C   UNL     1      -0.002   1.544   0.058  0.00  0.00    +0.045 C 
ATOM     16  C   UNL     1       0.006   0.037   0.038  0.00  0.00    -0.031 A 
ATOM     17  C   UNL     1       0.006  -0.679  -1.135  0.00  0.00    +0.011 A 
ATOM     18  C   UNL     1       0.014  -2.034  -1.080  0.00  0.00    +0.046 A 
ATOM     19  S   UNL     1       0.023  -2.380   0.564  0.00  0.00    -0.092 S 
ATOM     20  C   UNL     1       0.021  -0.715   1.203  0.00  0.00    +0.077 A 
ENDBRANCH   1  20
BRANCH   5  21
ATOM     21  C   UNL     1       0.244  -4.369   5.287  0.00  0.00    +0.218 C 
ATOM     22  O   UNL     1      -0.930  -4.634   5.137  0.00  0.00    -0.275 OA
ATOM     23  N   UNL     1       1.042  -5.211   5.973  0.00  0.00    -0.313 N 
ATOM     24  H   UNL     1       1.981  -4.999   6.093  0.00  0.00    +0.149 HD
BRANCH  23  25
ATOM     25  C   UNL     1       0.492  -6.445   6.538  0.00  0.00    +0.127 C 
BRANCH  25  26
ATOM     26  C   UNL     1       1.622  -7.273   7.153  0.00  0.00    +0.104 C 
BRANCH  26  27
ATOM     27  C   UNL     1       2.624  -7.628   6.084  0.00  0.00    -0.029 A 
ATOM     28  C   UNL     1       2.368  -8.674   5.217  0.00  0.00    +0.005 A 
ATOM     29  C   UNL     1       3.287  -8.999   4.237  0.00  0.00    +0.000 A 
ATOM     30  C   UNL     1       4.460  -8.278   4.123  0.00  0.00    +0.000 A 
ATOM     31  C   UNL     1       4.716  -7.231   4.989  0.00  0.00    +0.000 A 
ATOM     32  C   UNL     1       3.795  -6.903   5.966  0.00  0.00    +0.005 A 
ENDBRANCH  26  27
BRANCH  26  33
ATOM     33  N   UNL     1       1.068  -8.504   7.733  0.00  0.00    -0.290 NA
ATOM     34  C   UNL     1      -0.054  -8.203   8.633  0.00  0.00    +0.113 C 
ATOM     35  C   UNL     1      -0.638  -9.514   9.167  0.00  0.00    +0.175 C 
ATOM     36  O   UNL     1       0.394 -10.259   9.819  0.00  0.00    -0.377 OA
ATOM     37  C   UNL     1       1.503 -10.570   8.970  0.00  0.00    +0.175 C 
ATOM     38  C   UNL     1       2.108  -9.270   8.434  0.00  0.00    +0.113 C 
ENDBRANCH  26  33
ENDBRANCH  25  26
ENDBRANCH  23  25
ENDBRANCH   5  21
TORSDOF 6
