REMARK  Name = ZINC06469110
REMARK  6 active torsions:
REMARK  status: ('A' for Active; 'I' for Inactive)
REMARK    1  A    between atoms: C_1  and  C_2
REMARK    2  A    between atoms: C_7  and  N_12
REMARK    3  A    between atoms: C_9  and  C_11
REMARK    4  A    between atoms: C_13  and  C_15
REMARK    5  A    between atoms: C_15  and  O_16
REMARK    6  A    between atoms: O_16  and  C_17
REMARK                            x       y       z     vdW  Elec       q    Type
REMARK                         _______ _______ _______ _____ _____    ______ ____
ROOT
ATOM      1  O   UNL     1       2.374   3.700  -0.002  0.00  0.00    -0.466 OA
ENDROOT
BRANCH   1   2
ATOM      2  C   UNL     1       1.181   3.058   0.006  0.00  0.00    +0.227 A 
ATOM      3  C   UNL     1      -0.033   3.796   0.021  0.00  0.00    +0.073 A 
ATOM      4  C   UNL     1      -0.223   5.248   0.029  0.00  0.00    -0.023 A 
ATOM      5  C   UNL     1      -1.494   5.698   0.043  0.00  0.00    -0.004 A 
ATOM      6  S   UNL     1      -2.502   4.240   0.047  0.00  0.00    -0.073 S 
ATOM      7  C   UNL     1      -1.212   3.023   0.029  0.00  0.00    +0.116 A 
ATOM      8  N   UNL     1      -1.172   1.705   0.017  0.00  0.00    -0.228 NA
ATOM      9  C   UNL     1      -0.013   1.076   0.008  0.00  0.00    +0.226 A 
ATOM     10  N   UNL     1       1.131   1.738   0.001  0.00  0.00    -0.201 NA
ATOM     11  C   UNL     1      -1.951   7.125   0.054  0.00  0.00    +0.043 C 
ATOM     12  C   UNL     1      -0.754   8.015   0.420  0.00  0.00    +0.005 C 
ATOM     13  C   UNL     1       0.448   7.596  -0.432  0.00  0.00    +0.005 C 
ATOM     14  C   UNL     1       0.950   6.224   0.020  0.00  0.00    +0.037 C 
ENDBRANCH   1   2
BRANCH   1  15
ATOM     15  C   UNL     1       3.548   2.885  -0.017  0.00  0.00    +0.326 C 
BRANCH  15  17
ATOM     16  N   UNL     1       6.000   3.214  -0.038  0.00  0.00    -0.309 N 
ATOM     17  C   UNL     1       4.770   3.767  -0.024  0.00  0.00    +0.251 C 
ATOM     18  O   UNL     1       4.648   4.973  -0.017  0.00  0.00    -0.272 OA
ATOM     19  H   UNL     1       6.098   2.249  -0.044  0.00  0.00    +0.149 HD
BRANCH  16  25
ATOM     20  C   UNL     1      10.797   3.436   1.137  0.00  0.00    +0.008 C 
ATOM     21  C   UNL     1       9.613   4.201   0.542  0.00  0.00    -0.009 C 
ATOM     22  C   UNL     1       9.939   4.609  -0.896  0.00  0.00    +0.003 C 
ATOM     23  C   UNL     1       8.755   5.373  -1.491  0.00  0.00    +0.002 C 
ATOM     24  C   UNL     1       7.514   4.479  -1.484  0.00  0.00    +0.022 C 
ATOM     25  C   UNL     1       7.188   4.071  -0.046  0.00  0.00    +0.076 C 
ATOM     26  C   UNL     1       8.372   3.306   0.549  0.00  0.00    +0.009 C 
ATOM     27  C   UNL     1       8.045   2.899   1.987  0.00  0.00    +0.009 C 
ENDBRANCH  16  25
ENDBRANCH  15  17
ENDBRANCH   1  15
TORSDOF 4
