REMARK  Name = ZINC19627903
REMARK  7 active torsions:
REMARK  status: ('A' for Active; 'I' for Inactive)
REMARK    1  A    between atoms: C_1  and  C_2
REMARK    2  A    between atoms: C_4  and  O_5
REMARK    3  A    between atoms: C_14  and  C_16
REMARK    4  A    between atoms: C_16  and  N_17
REMARK    5  A    between atoms: N_17  and  C_18
REMARK    6  A    between atoms: N_17  and  S_19
REMARK    7  A    between atoms: S_19  and  C_22
REMARK                            x       y       z     vdW  Elec       q    Type
REMARK                         _______ _______ _______ _____ _____    ______ ____
ROOT
ATOM      1  C   UNL     1      -4.672   1.873   6.442  0.00  0.00    +0.045 C 
ATOM      2  C   UNL     1      -3.223   2.262   6.304  0.00  0.00    -0.033 A 
ATOM      3  C   UNL     1      -2.236   1.456   6.778  0.00  0.00    +0.091 A 
ATOM      4  C   UNL     1      -0.887   1.842   6.637  0.00  0.00    +0.285 A 
ATOM      5  O   UNL     1      -0.542   2.994   6.041  0.00  0.00    -0.425 OA
ATOM      6  C   UNL     1      -1.473   3.840   5.549  0.00  0.00    +0.141 A 
ATOM      7  C   UNL     1      -2.839   3.517   5.656  0.00  0.00    +0.021 A 
ATOM      8  C   UNL     1      -3.807   4.390   5.147  0.00  0.00    +0.013 A 
ATOM      9  C   UNL     1      -3.424   5.556   4.551  0.00  0.00    +0.024 A 
ATOM     10  C   UNL     1      -2.072   5.879   4.436  0.00  0.00    +0.037 A 
ATOM     11  C   UNL     1      -1.099   5.025   4.936  0.00  0.00    +0.070 A 
ATOM     12  N   UNL     1      -1.695   7.072   3.820  0.00  0.00    -0.284 N 
ATOM     13  C   UNL     1      -0.568   7.123   3.083  0.00  0.00    +0.233 C 
ATOM     14  O   UNL     1       0.162   6.157   3.023  0.00  0.00    -0.274 OA
ATOM     15  H   UNL     1      -2.318   7.972   3.935  0.00  0.00    +0.155 HD
ENDROOT
BRANCH   4  16
ATOM     16  O   UNL     1      -0.013   1.111   7.066  0.00  0.00    -0.480 OA
ATOM     17  H   UNL     1       1.044   1.398   6.963  0.00  0.00    +0.295 HD
ENDBRANCH   4  16
BRANCH  13  18
ATOM     18  C   UNL     1      -0.214   8.382   2.333  0.00  0.00    +0.205 C 
BRANCH  18  19
ATOM     19  N   UNL     1       1.048   8.184   1.615  0.00  0.00    -0.171 NA
ATOM     20  C   UNL     1       2.323   8.402   2.302  0.00  0.00    +0.132 C 
BRANCH  19  21
ATOM     21  S   UNL     1       1.032   7.714   0.028  0.00  0.00    +0.061 S 
ATOM     22  O   UNL     1       2.267   8.137  -0.534  0.00  0.00    -0.153 OA
ATOM     23  O   UNL     1      -0.223   8.117  -0.503  0.00  0.00    -0.153 OA
BRANCH  21  24
ATOM     24  C   UNL     1       1.046   5.952   0.005  0.00  0.00    +0.106 A 
ATOM     25  C   UNL     1       2.264   5.276  -0.018  0.00  0.00    +0.029 A 
ATOM     26  C   UNL     1       2.310   3.916  -0.036  0.00  0.00    +0.010 A 
ATOM     27  C   UNL     1       1.113   3.180  -0.030  0.00  0.00    -0.018 A 
ATOM     28  C   UNL     1       1.121   1.774  -0.047  0.00  0.00    +0.008 A 
ATOM     29  C   UNL     1      -0.058   1.095  -0.041  0.00  0.00    +0.001 A 
ATOM     30  C   UNL     1      -1.277   1.771  -0.023  0.00  0.00    +0.001 A 
ATOM     31  C   UNL     1      -1.323   3.131  -0.001  0.00  0.00    +0.008 A 
ATOM     32  C   UNL     1      -0.126   3.868  -0.006  0.00  0.00    -0.016 A 
ATOM     33  C   UNL     1      -0.133   5.273   0.012  0.00  0.00    +0.037 A 
ENDBRANCH  21  24
ENDBRANCH  19  21
ENDBRANCH  18  19
ENDBRANCH  13  18
TORSDOF 5
