REMARK  Name = ZINC06148077
REMARK  6 active torsions:
REMARK  status: ('A' for Active; 'I' for Inactive)
REMARK    1  A    between atoms: C_1  and  C_2
REMARK    2  A    between atoms: C_5  and  S_8
REMARK    3  A    between atoms: S_8  and  N_11
REMARK    4  A    between atoms: C_17  and  C_19
REMARK    5  A    between atoms: C_19  and  S_20
REMARK    6  A    between atoms: S_20  and  C_21
REMARK                            x       y       z     vdW  Elec       q    Type
REMARK                         _______ _______ _______ _____ _____    ______ ____
ROOT
ATOM      1  N   UNL     1      -0.897   1.885  -1.312  0.00  0.00    -0.174 NA
ATOM      2  C   UNL     1      -1.885   0.978  -1.913  0.00  0.00    +0.128 C 
ATOM      3  C   UNL     1      -3.242   1.700  -1.960  0.00  0.00    +0.125 C 
ATOM      4  N   UNL     1      -3.046   3.028  -2.557  0.00  0.00    -0.298 N 
ATOM      5  C   UNL     1      -2.054   3.934  -1.959  0.00  0.00    +0.125 C 
ATOM      6  C   UNL     1      -0.701   3.214  -1.909  0.00  0.00    +0.128 C 
ATOM      7  C   UNL     1      -3.762   3.410  -3.633  0.00  0.00    +0.226 C 
ATOM      8  O   UNL     1      -3.591   4.509  -4.117  0.00  0.00    -0.275 OA
ENDROOT
BRANCH   1   9
ATOM      9  S   UNL     1      -0.017   1.417   0.010  0.00  0.00    +0.061 S 
ATOM     10  O   UNL     1       0.002  -0.004   0.002  0.00  0.00    -0.153 OA
ATOM     11  O   UNL     1       1.172   2.195   0.003  0.00  0.00    -0.153 OA
BRANCH   9  16
ATOM     12  C   UNL     1      -3.131   3.072   4.906  0.00  0.00    +0.044 C 
ATOM     13  C   UNL     1      -2.353   2.659   3.683  0.00  0.00    -0.050 A 
ATOM     14  C   UNL     1      -2.559   1.412   3.121  0.00  0.00    +0.005 A 
ATOM     15  C   UNL     1      -1.846   1.033   2.000  0.00  0.00    +0.029 A 
ATOM     16  C   UNL     1      -0.927   1.900   1.439  0.00  0.00    +0.105 A 
ATOM     17  C   UNL     1      -0.717   3.145   2.004  0.00  0.00    +0.029 A 
ATOM     18  C   UNL     1      -1.434   3.526   3.123  0.00  0.00    +0.005 A 
ENDBRANCH   9  16
ENDBRANCH   1   9
BRANCH   7  19
ATOM     19  C   UNL     1      -4.775   2.471  -4.235  0.00  0.00    +0.173 C 
BRANCH  19  20
ATOM     20  S   UNL     1      -5.566   3.266  -5.656  0.00  0.00    -0.079 S 
BRANCH  20  21
ATOM     21  C   UNL     1      -6.669   1.984  -6.150  0.00  0.00    +0.168 A 
ATOM     22  N   UNL     1      -7.533   2.055  -7.206  0.00  0.00    -0.333 N 
ATOM     23  H   UNL     1      -7.650   2.832  -7.826  0.00  0.00    +0.168 HD
ATOM     24  C   UNL     1      -8.217   0.852  -7.259  0.00  0.00    +0.068 A 
ATOM     25  C   UNL     1      -9.200   0.341  -8.092  0.00  0.00    +0.047 A 
ATOM     26  C   UNL     1      -9.692  -0.931  -7.876  0.00  0.00    +0.043 A 
ATOM     27  C   UNL     1      -9.207  -1.703  -6.829  0.00  0.00    +0.022 A 
ATOM     28  C   UNL     1      -8.231  -1.211  -5.992  0.00  0.00    +0.031 A 
ATOM     29  C   UNL     1      -7.724   0.075  -6.198  0.00  0.00    +0.090 A 
ATOM     30  N   UNL     1      -6.779   0.818  -5.563  0.00  0.00    -0.222 NA
ATOM     31 CL   UNL     1     -10.923  -1.569  -8.920  0.00  0.00    -0.083 Cl
ENDBRANCH  20  21
ENDBRANCH  19  20
ENDBRANCH   7  19
TORSDOF 5
