REMARK  Name = ZINC46699108
REMARK  7 active torsions:
REMARK  status: ('A' for Active; 'I' for Inactive)
REMARK    1  A    between atoms: C_1  and  C_2
REMARK    2  A    between atoms: C_2  and  C_4
REMARK    3  A    between atoms: C_2  and  N_14
REMARK    4  A    between atoms: C_15  and  C_17
REMARK    5  A    between atoms: C_17  and  C_18
REMARK    6  A    between atoms: C_18  and  N_19
REMARK    7  A    between atoms: C_29  and  C_34
REMARK                            x       y       z     vdW  Elec       q    Type
REMARK                         _______ _______ _______ _____ _____    ______ ____
ROOT
ATOM      1  C   UNL     1      -3.281  -1.051  -1.641  0.00  0.00    +0.115 C 
ENDROOT
BRANCH   1   3
ATOM      2  N   UNL     1      -1.351  -0.470  -0.207  0.00  0.00    -0.309 N 
ATOM      3  C   UNL     1      -1.857  -0.598  -1.450  0.00  0.00    +0.215 C 
ATOM      4  O   UNL     1      -1.165  -0.348  -2.415  0.00  0.00    -0.276 OA
ATOM      5  H   UNL     1      -1.904  -0.670   0.564  0.00  0.00    +0.149 HD
BRANCH   2   7
ATOM      6  C   UNL     1       0.077   1.497   0.062  0.00  0.00    +0.033 C 
ATOM      7  C   UNL     1       0.034  -0.030  -0.022  0.00  0.00    +0.101 C 
BRANCH   7   8
ATOM      8  C   UNL     1       0.582  -0.619   1.253  0.00  0.00    -0.020 A 
ATOM      9  C   UNL     1      -0.258  -0.935   2.276  0.00  0.00    +0.006 A 
ATOM     10  C   UNL     1       0.230  -1.480   3.462  0.00  0.00    +0.001 A 
ATOM     11  C   UNL     1       1.561  -1.712   3.631  0.00  0.00    +0.008 A 
ATOM     12  C   UNL     1       2.458  -1.399   2.597  0.00  0.00    -0.018 A 
ATOM     13  C   UNL     1       1.961  -0.850   1.388  0.00  0.00    -0.013 A 
ATOM     14  C   UNL     1       2.858  -0.542   0.351  0.00  0.00    +0.009 A 
ATOM     15  C   UNL     1       4.188  -0.779   0.518  0.00  0.00    +0.001 A 
ATOM     16  C   UNL     1       4.676  -1.325   1.704  0.00  0.00    +0.001 A 
ATOM     17  C   UNL     1       3.839  -1.623   2.735  0.00  0.00    +0.008 A 
ENDBRANCH   7   8
ENDBRANCH   2   7
ENDBRANCH   1   3
BRANCH   1  18
ATOM     18  C   UNL     1      -3.601  -1.111  -3.136  0.00  0.00    +0.119 C 
BRANCH  18  19
ATOM     19  N   UNL     1      -4.986  -1.552  -3.322  0.00  0.00    -0.275 N 
ATOM     20  C   UNL     1      -5.274  -2.872  -3.317  0.00  0.00    +0.250 C 
ATOM     21  O   UNL     1      -4.387  -3.685  -3.138  0.00  0.00    -0.270 OA
ATOM     22  C   UNL     1      -6.659  -3.332  -3.529  0.00  0.00    +0.058 A 
ATOM     23  C   UNL     1      -7.070  -4.621  -3.201  0.00  0.00    +0.015 A 
ATOM     24  C   UNL     1      -8.377  -4.997  -3.437  0.00  0.00    +0.001 A 
ATOM     25  C   UNL     1      -9.280  -4.107  -3.997  0.00  0.00    +0.002 A 
ATOM     26  C   UNL     1      -8.887  -2.820  -4.323  0.00  0.00    +0.024 A 
ATOM     27  C   UNL     1      -7.588  -2.429  -4.085  0.00  0.00    +0.050 A 
ATOM     28  N   UNL     1      -7.109  -1.142  -4.341  0.00  0.00    -0.249 N 
ATOM     29  C   UNL     1      -6.042  -0.558  -3.503  0.00  0.00    +0.109 C 
ATOM     30  C   UNL     1      -5.526   0.680  -4.244  0.00  0.00    +0.055 C 
ATOM     31  C   UNL     1      -6.519   0.856  -5.408  0.00  0.00    +0.100 C 
ATOM     32  C   UNL     1      -7.483  -0.304  -5.310  0.00  0.00    +0.222 C 
ATOM     33  O   UNL     1      -8.465  -0.449  -6.006  0.00  0.00    -0.275 OA
ATOM     34  C   UNL     1      -6.610  -0.151  -2.142  0.00  0.00    +0.054 C 
ENDBRANCH  18  19
ENDBRANCH   1  18
TORSDOF 5
