REMARK  Name = ZINC13636325
REMARK  4 active torsions:
REMARK  status: ('A' for Active; 'I' for Inactive)
REMARK    1  A    between atoms: C_1  and  O_2
REMARK    2  A    between atoms: O_2  and  C_3
REMARK    3  A    between atoms: C_6  and  C_9
REMARK    4  A    between atoms: C_20  and  C_25
REMARK                            x       y       z     vdW  Elec       q    Type
REMARK                         _______ _______ _______ _____ _____    ______ ____
ROOT
ATOM      1  C   UNL     1       0.176  -0.046  -0.023  0.00  0.00    +0.105 C 
ATOM      2  C   UNL     1      -0.144   1.428  -0.288  0.00  0.00    +0.029 C 
ATOM      3  C   UNL     1      -0.671   1.533  -1.749  0.00  0.00    +0.033 C 
ATOM      4  C   UNL     1       0.598   1.567  -2.578  0.00  0.00    -0.030 C 
ATOM      5  C   UNL     1       1.614   1.957  -1.847  0.00  0.00    -0.023 C 
ATOM      6  C   UNL     1       1.165   2.230  -0.431  0.00  0.00    +0.049 C 
ATOM      7  C   UNL     1       2.209   1.823   0.560  0.00  0.00    -0.019 A 
ATOM      8  C   UNL     1       3.328   2.623   0.707  0.00  0.00    +0.019 A 
ATOM      9  C   UNL     1       4.323   2.285   1.624  0.00  0.00    +0.037 A 
ATOM     10  C   UNL     1       4.193   1.130   2.402  0.00  0.00    +0.015 A 
ATOM     11  C   UNL     1       3.081   0.334   2.254  0.00  0.00    +0.024 A 
ATOM     12  C   UNL     1       2.091   0.676   1.336  0.00  0.00    +0.031 A 
ATOM     13  N   UNL     1       0.975  -0.147   1.202  0.00  0.00    -0.336 N 
ATOM     14  H   UNL     1       0.732  -0.772   1.903  0.00  0.00    +0.147 HD
ENDROOT
BRANCH   9  15
ATOM     15  C   UNL     1       5.512   3.145   1.773  0.00  0.00    +0.247 C 
ATOM     16  O   UNL     1       5.395   4.355   1.744  0.00  0.00    -0.270 OA
ATOM     17  N   UNL     1       6.729   2.589   1.942  0.00  0.00    -0.298 N 
ATOM     18  C   UNL     1       7.858   3.456   2.193  0.00  0.00    +0.108 C 
ATOM     19  C   UNL     1       8.498   3.887   0.857  0.00  0.00    +0.019 C 
ATOM     20  C   UNL     1       9.196   2.752   0.236  0.00  0.00    +0.002 C 
ATOM     21  C   UNL     1       8.289   1.583  -0.137  0.00  0.00    +0.002 C 
ATOM     22  C   UNL     1       8.103   0.691   1.065  0.00  0.00    +0.019 C 
ATOM     23  C   UNL     1       6.854   1.121   1.855  0.00  0.00    +0.108 C 
ENDBRANCH   9  15
BRANCH   1  27
ATOM     24  C   UNL     1       2.390  -1.643  -3.311  0.00  0.00    +0.120 A 
ATOM     25  C   UNL     1       3.054  -1.027  -2.259  0.00  0.00    +0.046 A 
ATOM     26  C   UNL     1       2.336  -0.512  -1.198  0.00  0.00    +0.009 A 
ATOM     27  C   UNL     1       0.957  -0.609  -1.183  0.00  0.00    -0.027 A 
ATOM     28  C   UNL     1       0.293  -1.227  -2.227  0.00  0.00    +0.009 A 
ATOM     29  C   UNL     1       1.007  -1.739  -3.293  0.00  0.00    +0.046 A 
BRANCH  24  31
ATOM     30  C   UNL     1       2.345  -2.772  -5.403  0.00  0.00    +0.277 C 
ATOM     31  O   UNL     1       3.095  -2.152  -4.356  0.00  0.00    -0.495 OA
ENDBRANCH  24  31
ENDBRANCH   1  27
TORSDOF 3
