REMARK  Name = ZINC02381337
REMARK  9 active torsions:
REMARK  status: ('A' for Active; 'I' for Inactive)
REMARK    1  A    between atoms: C_1  and  N_2
REMARK    2  A    between atoms: C_3  and  C_22
REMARK    3  A    between atoms: C_6  and  S_7
REMARK    4  A    between atoms: S_7  and  C_8
REMARK    5  A    between atoms: C_8  and  C_9
REMARK    6  A    between atoms: N_11  and  N_12
REMARK    7  A    between atoms: C_13  and  C_14
REMARK    8  A    between atoms: C_17  and  O_20
REMARK    9  A    between atoms: O_20  and  C_21
REMARK                            x       y       z     vdW  Elec       q    Type
REMARK                         _______ _______ _______ _____ _____    ______ ____
ROOT
ATOM      1  C   UNL     1      -1.654  -0.588  -0.671  0.00  0.00    +0.174 C 
ENDROOT
BRANCH   1   2
ATOM      2  C   UNL     1      -0.471   0.296  -0.973  0.00  0.00    +0.242 C 
ATOM      3  O   UNL     1       0.633  -0.191  -1.099  0.00  0.00    -0.273 OA
ATOM      4  N   UNL     1      -0.640   1.627  -1.103  0.00  0.00    -0.206 N 
ATOM      5  H   UNL     1      -1.524   2.015  -1.007  0.00  0.00    +0.177 HD
BRANCH   4   6
ATOM      6  N   UNL     1       0.460   2.448  -1.384  0.00  0.00    -0.188 NA
ATOM      7  C   UNL     1       0.297   3.729  -1.510  0.00  0.00    +0.138 C 
BRANCH   7   8
ATOM      8  C   UNL     1       1.455   4.594  -1.805  0.00  0.00    -0.005 A 
ATOM      9  C   UNL     1       2.728   4.036  -1.944  0.00  0.00    +0.013 A 
ATOM     10  C   UNL     1       3.806   4.847  -2.225  0.00  0.00    +0.046 A 
ATOM     11  C   UNL     1       3.630   6.218  -2.358  0.00  0.00    +0.120 A 
ATOM     12  C   UNL     1       2.367   6.778  -2.216  0.00  0.00    +0.046 A 
ATOM     13  C   UNL     1       1.282   5.974  -1.940  0.00  0.00    +0.013 A 
BRANCH  11  14
ATOM     14  O   UNL     1       4.697   7.015  -2.629  0.00  0.00    -0.495 OA
ATOM     15  C   UNL     1       5.967   6.374  -2.763  0.00  0.00    +0.277 C 
ENDBRANCH  11  14
ENDBRANCH   7   8
ENDBRANCH   4   6
ENDBRANCH   1   2
BRANCH   1  16
ATOM     16  S   UNL     1      -1.108  -2.309  -0.557  0.00  0.00    -0.077 S 
BRANCH  16  22
ATOM     17  C   UNL     1      -1.838  -5.495  -0.056  0.00  0.00    +0.153 C 
ATOM     18  N   UNL     1      -2.846  -4.433  -0.015  0.00  0.00    -0.305 N 
ATOM     19  C   UNL     1      -4.194  -4.575   0.226  0.00  0.00    +0.165 A 
ATOM     20  N   UNL     1      -4.723  -3.376   0.171  0.00  0.00    -0.128 NA
ATOM     21  N   UNL     1      -3.812  -2.504  -0.078  0.00  0.00    -0.122 NA
ATOM     22  C   UNL     1      -2.646  -3.096  -0.208  0.00  0.00    +0.192 A 
BRANCH  19  23
ATOM     23  C   UNL     1      -4.909  -5.840   0.495  0.00  0.00    +0.019 A 
ATOM     24  C   UNL     1      -6.290  -5.918   0.307  0.00  0.00    +0.012 A 
ATOM     25  C   UNL     1      -6.952  -7.103   0.556  0.00  0.00    +0.016 A 
ATOM     26  C   UNL     1      -6.250  -8.210   1.001  0.00  0.00    +0.018 A 
ATOM     27  C   UNL     1      -4.881  -8.138   1.195  0.00  0.00    +0.016 A 
ATOM     28  C   UNL     1      -4.207  -6.960   0.945  0.00  0.00    +0.012 A 
ATOM     29 BR   UNL     1      -7.165  -9.828   1.347  0.00  0.00    -0.050 Br
ENDBRANCH  19  23
ENDBRANCH  16  22
ENDBRANCH   1  16
TORSDOF 7
