REMARK  Name = ZINC20877825
REMARK  10 active torsions:
REMARK  status: ('A' for Active; 'I' for Inactive)
REMARK    1  A    between atoms: C_1  and  C_2
REMARK    2  A    between atoms: C_2  and  C_3
REMARK    3  A    between atoms: C_2  and  C_4
REMARK    4  A    between atoms: C_2  and  N_5
REMARK    5  A    between atoms: C_6  and  C_8
REMARK    6  A    between atoms: C_8  and  O_9
REMARK    7  A    between atoms: O_9  and  C_10
REMARK    8  A    between atoms: C_15  and  C_16
REMARK    9  A    between atoms: C_16  and  N_17
REMARK   10  A    between atoms: N_17  and  C_18
REMARK                            x       y       z     vdW  Elec       q    Type
REMARK                         _______ _______ _______ _____ _____    ______ ____
ROOT
ATOM      1  C   UNL     1       0.002  -0.004   0.002  0.00  0.00    +0.126 A 
ATOM      2  C   UNL     1       1.214  -0.680  -0.013  0.00  0.00    +0.047 A 
ATOM      3  C   UNL     1       2.399   0.030  -0.021  0.00  0.00    +0.023 A 
ATOM      4  C   UNL     1       2.378   1.414  -0.013  0.00  0.00    +0.042 A 
ATOM      5  C   UNL     1       1.171   2.089   0.002  0.00  0.00    +0.028 A 
ATOM      6  C   UNL     1      -0.017   1.383   0.010  0.00  0.00    +0.013 A 
ATOM      7 CL   UNL     1       3.869   2.303  -0.023  0.00  0.00    -0.084 Cl
ENDROOT
BRANCH   1   8
ATOM      8  O   UNL     1      -1.165  -0.701   0.010  0.00  0.00    -0.482 OA
BRANCH   8   9
ATOM      9  C   UNL     1      -1.070  -2.126   0.001  0.00  0.00    +0.324 C 
BRANCH   9  11
ATOM     10  N   UNL     1      -2.611  -4.061   0.006  0.00  0.00    -0.308 N 
ATOM     11  C   UNL     1      -2.454  -2.722   0.012  0.00  0.00    +0.251 C 
ATOM     12  O   UNL     1      -3.426  -1.997   0.025  0.00  0.00    -0.272 OA
ATOM     13  H   UNL     1      -1.730  -4.718  -0.006  0.00  0.00    +0.149 HD
BRANCH  10  15
ATOM     14  C   UNL     1      -4.723  -4.173  -1.223  0.00  0.00    +0.031 C 
ATOM     15  C   UNL     1      -3.957  -4.640   0.017  0.00  0.00    +0.026 C 
ATOM     16  C   UNL     1      -3.855  -6.167   0.007  0.00  0.00    +0.031 C 
ATOM     17  C   UNL     1      -4.698  -4.186   1.276  0.00  0.00    +0.031 C 
ENDBRANCH  10  15
ENDBRANCH   9  11
ENDBRANCH   8   9
ENDBRANCH   1   8
BRANCH   6  18
ATOM     18  C   UNL     1      -1.332   2.119   0.020  0.00  0.00    +0.140 C 
BRANCH  18  19
ATOM     19  N   UNL     1      -1.869   2.141   1.383  0.00  0.00    -0.340 N 
ATOM     20  H   UNL     1      -1.312   1.661   2.201  0.00  0.00    +0.146 HD
BRANCH  19  21
ATOM     21  C   UNL     1      -3.089   2.773   1.644  0.00  0.00    +0.029 A 
ATOM     22  C   UNL     1      -3.789   3.384   0.610  0.00  0.00    +0.025 A 
ATOM     23  C   UNL     1      -4.997   4.005   0.860  0.00  0.00    +0.029 A 
ATOM     24  C   UNL     1      -5.509   4.028   2.148  0.00  0.00    +0.067 A 
ATOM     25  C   UNL     1      -4.806   3.420   3.190  0.00  0.00    +0.069 A 
ATOM     26  C   UNL     1      -3.596   2.793   2.934  0.00  0.00    +0.050 A 
ATOM     27  N   UNL     1      -5.559   3.605   4.346  0.00  0.00    -0.306 N 
ATOM     28  H   UNL     1      -5.200   3.206   5.307  0.00  0.00    +0.170 HD
ATOM     29  C   UNL     1      -6.670   4.294   4.025  0.00  0.00    +0.325 A 
ATOM     30  O   UNL     1      -7.542   4.622   4.807  0.00  0.00    -0.247 OA
ATOM     31  N   UNL     1      -6.670   4.565   2.706  0.00  0.00    -0.306 N 
ATOM     32  H   UNL     1      -7.390   5.100   2.069  0.00  0.00    +0.170 HD
ENDBRANCH  19  21
ENDBRANCH  18  19
ENDBRANCH   6  18
TORSDOF 7
