REMARK  Name = ZINC44149393
REMARK  7 active torsions:
REMARK  status: ('A' for Active; 'I' for Inactive)
REMARK    1  A    between atoms: C_1  and  C_2
REMARK    2  A    between atoms: C_2  and  C_3
REMARK    3  A    between atoms: C_2  and  N_4
REMARK    4  A    between atoms: C_5  and  C_7
REMARK    5  A    between atoms: C_7  and  C_8
REMARK    6  A    between atoms: C_11  and  N_14
REMARK    7  A    between atoms: C_21  and  C_23
REMARK                            x       y       z     vdW  Elec       q    Type
REMARK                         _______ _______ _______ _____ _____    ______ ____
ROOT
ATOM      1  N   UNL     1      -3.175  -7.446  -2.761  0.00  0.00    -0.269 N 
ATOM      2  C   UNL     1      -2.914  -8.525  -1.998  0.00  0.00    +0.307 C 
ATOM      3  O   UNL     1      -2.743  -8.396  -0.801  0.00  0.00    -0.252 OA
ATOM      4  N   UNL     1      -2.843  -9.748  -2.560  0.00  0.00    -0.278 N 
ATOM      5  C   UNL     1      -3.023 -10.046  -3.993  0.00  0.00    +0.110 C 
ATOM      6  C   UNL     1      -3.463 -11.531  -4.036  0.00  0.00    +0.021 C 
ATOM      7  C   UNL     1      -2.613 -12.142  -2.890  0.00  0.00    +0.029 C 
ATOM      8  C   UNL     1      -2.567 -11.004  -1.848  0.00  0.00    +0.108 C 
ATOM      9  H   UNL     1      -3.389  -7.557  -3.701  0.00  0.00    +0.156 HD
ENDROOT
BRANCH   1  13
ATOM     10  C   UNL     1      -3.067  -3.633  -1.087  0.00  0.00    -0.039 A 
ATOM     11  C   UNL     1      -2.208  -4.613  -0.626  0.00  0.00    +0.006 A 
ATOM     12  C   UNL     1      -2.242  -5.878  -1.179  0.00  0.00    +0.023 A 
ATOM     13  C   UNL     1      -3.139  -6.165  -2.199  0.00  0.00    +0.035 A 
ATOM     14  C   UNL     1      -4.001  -5.178  -2.659  0.00  0.00    +0.023 A 
ATOM     15  C   UNL     1      -3.966  -3.917  -2.099  0.00  0.00    +0.006 A 
BRANCH  10  16
ATOM     16  C   UNL     1      -3.028  -2.253  -0.481  0.00  0.00    +0.130 C 
BRANCH  16  18
ATOM     17  N   UNL     1      -4.110  -1.047   1.387  0.00  0.00    -0.313 N 
ATOM     18  C   UNL     1      -3.978  -2.191   0.687  0.00  0.00    +0.218 C 
ATOM     19  O   UNL     1      -4.623  -3.170   0.998  0.00  0.00    -0.275 OA
ATOM     20  H   UNL     1      -3.594  -0.264   1.139  0.00  0.00    +0.149 HD
BRANCH  17  22
ATOM     21  C   UNL     1      -4.579   0.109   3.491  0.00  0.00    +0.027 C 
ATOM     22  C   UNL     1      -5.033  -0.986   2.523  0.00  0.00    +0.067 C 
ATOM     23  C   UNL     1      -6.442  -0.668   2.019  0.00  0.00    +0.027 C 
ENDBRANCH  17  22
ENDBRANCH  16  18
ENDBRANCH  10  16
ENDBRANCH   1  13
BRANCH   8  24
ATOM     24  C   UNL     1      -1.202 -10.944  -1.212  0.00  0.00    -0.027 A 
ATOM     25  C   UNL     1      -0.157 -10.331  -1.877  0.00  0.00    +0.005 A 
ATOM     26  C   UNL     1       1.095 -10.275  -1.293  0.00  0.00    +0.000 A 
ATOM     27  C   UNL     1       1.301 -10.832  -0.044  0.00  0.00    +0.000 A 
ATOM     28  C   UNL     1       0.255 -11.443   0.621  0.00  0.00    +0.000 A 
ATOM     29  C   UNL     1      -0.998 -11.495   0.039  0.00  0.00    +0.005 A 
ENDBRANCH   8  24
TORSDOF 5
