REMARK  Name = ZINC40933072
REMARK  9 active torsions:
REMARK  status: ('A' for Active; 'I' for Inactive)
REMARK    1  A    between atoms: C_1  and  C_2
REMARK    2  A    between atoms: C_2  and  N_3
REMARK    3  A    between atoms: C_4  and  C_17
REMARK    4  A    between atoms: C_5  and  N_16
REMARK    5  A    between atoms: N_8  and  C_9
REMARK    6  A    between atoms: C_12  and  C_15
REMARK    7  A    between atoms: C_17  and  C_18
REMARK    8  A    between atoms: C_17  and  C_19
REMARK    9  A    between atoms: C_17  and  C_20
REMARK                            x       y       z     vdW  Elec       q    Type
REMARK                         _______ _______ _______ _____ _____    ______ ____
ROOT
ATOM      1  N   UNL     1      -0.931  -0.664   0.071  0.00  0.00    -0.279 N 
ATOM      2  C   UNL     1      -1.524  -1.403  -0.923  0.00  0.00    +0.068 A 
ATOM      3  C   UNL     1      -2.863  -1.297  -0.789  0.00  0.00    +0.113 A 
ATOM      4  C   UNL     1      -3.128  -0.464   0.328  0.00  0.00    +0.293 A 
ATOM      5  O   UNL     1      -4.229  -0.150   0.745  0.00  0.00    -0.264 OA
ATOM      6  N   UNL     1      -1.943  -0.087   0.850  0.00  0.00    -0.215 N 
ENDROOT
BRANCH   6   7
ATOM      7  C   UNL     1      -1.758   0.735   1.966  0.00  0.00    +0.067 A 
ATOM      8  C   UNL     1      -0.832   0.387   2.940  0.00  0.00    +0.028 A 
ATOM      9  C   UNL     1      -0.650   1.201   4.041  0.00  0.00    +0.005 A 
ATOM     10  C   UNL     1      -1.390   2.362   4.173  0.00  0.00    -0.050 A 
ATOM     11  C   UNL     1      -2.313   2.711   3.205  0.00  0.00    +0.005 A 
ATOM     12  C   UNL     1      -2.495   1.904   2.099  0.00  0.00    +0.028 A 
ATOM     13  C   UNL     1      -1.190   3.248   5.376  0.00  0.00    +0.044 C 
ENDBRANCH   6   7
BRANCH   2  14
ATOM     14  C   UNL     1      -0.804  -2.195  -1.984  0.00  0.00    +0.006 C 
ATOM     15  C   UNL     1      -1.816  -2.723  -3.002  0.00  0.00    +0.017 C 
ATOM     16  C   UNL     1       0.210  -1.295  -2.692  0.00  0.00    +0.017 C 
ATOM     17  C   UNL     1      -0.074  -3.372  -1.333  0.00  0.00    +0.017 C 
ENDBRANCH   2  14
BRANCH   3  18
ATOM     18  N   UNL     1      -3.830  -1.909  -1.615  0.00  0.00    -0.352 N 
ATOM     19  H   UNL     1      -3.663  -2.009  -2.565  0.00  0.00    +0.143 HD
ATOM     20  H   UNL     1      -4.662  -2.228  -1.232  0.00  0.00    +0.143 HD
ENDBRANCH   3  18
BRANCH   1  22
ATOM     21  C   UNL     1       1.004   0.740  -0.446  0.00  0.00    +0.029 C 
ATOM     22  C   UNL     1       0.510  -0.510   0.285  0.00  0.00    +0.139 C 
ENDBRANCH   1  22
TORSDOF 4
