REMARK  Name = ZINC63432455
REMARK  5 active torsions:
REMARK  status: ('A' for Active; 'I' for Inactive)
REMARK    1  A    between atoms: C_1  and  C_2
REMARK    2  A    between atoms: C_12  and  C_14
REMARK    3  A    between atoms: N_16  and  C_17
REMARK    4  A    between atoms: C_20  and  C_23
REMARK    5  A    between atoms: N_25  and  C_26
REMARK                            x       y       z     vdW  Elec       q    Type
REMARK                         _______ _______ _______ _____ _____    ______ ____
ROOT
ATOM      1  C   UNL     1      -0.651  -4.081  -2.395  0.00  0.00    +0.300 C 
ATOM      2  O   UNL     1      -0.666  -2.868  -2.385  0.00  0.00    -0.265 OA
ATOM      3  N   UNL     1      -1.021  -4.750  -3.505  0.00  0.00    -0.305 N 
ATOM      4  H   UNL     1      -1.009  -5.720  -3.513  0.00  0.00    +0.149 HD
ENDROOT
BRANCH   1  16
ATOM      5  C   UNL     1       1.281  -6.947   4.726  0.00  0.00    +0.044 C 
ATOM      6  C   UNL     1       1.013  -6.205   3.443  0.00  0.00    -0.050 A 
ATOM      7  C   UNL     1       0.254  -6.796   2.450  0.00  0.00    +0.005 A 
ATOM      8  C   UNL     1       0.010  -6.117   1.273  0.00  0.00    +0.024 A 
ATOM      9  C   UNL     1       0.526  -4.839   1.088  0.00  0.00    +0.040 A 
ATOM     10  C   UNL     1       1.285  -4.246   2.085  0.00  0.00    -0.026 A 
ATOM     11  C   UNL     1       1.522  -4.934   3.263  0.00  0.00    +0.008 A 
ATOM     12  C   UNL     1       1.852  -2.860   1.923  0.00  0.00    +0.038 C 
ATOM     13  C   UNL     1       1.922  -2.479   0.444  0.00  0.00    +0.024 C 
ATOM     14  C   UNL     1       0.551  -2.728  -0.198  0.00  0.00    +0.114 C 
ATOM     15  N   UNL     1       0.271  -4.168  -0.114  0.00  0.00    -0.263 N 
ATOM     16  C   UNL     1      -0.223  -4.833  -1.178  0.00  0.00    +0.306 C 
ATOM     17  O   UNL     1      -0.321  -6.042  -1.146  0.00  0.00    -0.265 OA
ENDBRANCH   1  16
BRANCH   3  18
ATOM     18  C   UNL     1      -1.441  -4.013  -4.699  0.00  0.00    +0.073 C 
ATOM     19  C   UNL     1      -2.928  -3.668  -4.589  0.00  0.00    +0.023 C 
ATOM     20  C   UNL     1      -3.743  -4.957  -4.473  0.00  0.00    +0.014 C 
ATOM     21  C   UNL     1      -3.510  -5.821  -5.714  0.00  0.00    +0.075 C 
ATOM     22  C   UNL     1      -2.024  -6.166  -5.824  0.00  0.00    +0.014 C 
ATOM     23  C   UNL     1      -1.208  -4.877  -5.940  0.00  0.00    +0.023 C 
BRANCH  21  24
ATOM     24  C   UNL     1      -4.314  -7.091  -5.600  0.00  0.00    +0.216 C 
ATOM     25  O   UNL     1      -5.004  -7.286  -4.622  0.00  0.00    -0.276 OA
ATOM     26  N   UNL     1      -4.265  -8.010  -6.584  0.00  0.00    -0.318 N 
ATOM     27  C   UNL     1      -5.045  -9.245  -6.473  0.00  0.00    +0.128 C 
ATOM     28  H   UNL     1      -3.712  -7.854  -7.367  0.00  0.00    +0.148 HD
ENDBRANCH  21  24
ENDBRANCH   3  18
TORSDOF 3
