REMARK  Name = ZINC08020007
REMARK  10 active torsions:
REMARK  status: ('A' for Active; 'I' for Inactive)
REMARK    1  A    between atoms: C_1  and  O_2
REMARK    2  A    between atoms: O_2  and  C_3
REMARK    3  A    between atoms: C_5  and  C_17
REMARK    4  A    between atoms: C_8  and  O_9
REMARK    5  A    between atoms: O_9  and  C_10
REMARK    6  A    between atoms: C_10  and  C_11
REMARK    7  A    between atoms: C_17  and  N_18
REMARK    8  A    between atoms: N_18  and  S_19
REMARK    9  A    between atoms: S_19  and  C_22
REMARK   10  A    between atoms: C_25  and  N_28
REMARK                            x       y       z     vdW  Elec       q    Type
REMARK                         _______ _______ _______ _____ _____    ______ ____
ROOT
ATOM      1  C   UNL     1       1.155   3.176   0.008  0.00  0.00    +0.162 A 
ATOM      2  C   UNL     1      -0.057   3.846   0.022  0.00  0.00    +0.054 A 
ATOM      3  C   UNL     1      -1.241   3.133   0.030  0.00  0.00    -0.028 A 
ATOM      4  C   UNL     1      -1.219   1.751   0.017  0.00  0.00    +0.009 A 
ATOM      5  C   UNL     1      -0.013   1.076   0.008  0.00  0.00    +0.050 A 
ATOM      6  C   UNL     1       1.178   1.785   0.000  0.00  0.00    +0.162 A 
ENDROOT
BRANCH   1   8
ATOM      7  C   UNL     1       2.222   5.302   0.009  0.00  0.00    +0.277 C 
ATOM      8  O   UNL     1       2.321   3.877   0.001  0.00  0.00    -0.491 OA
ENDBRANCH   1   8
BRANCH   6   9
ATOM      9  O   UNL     1       2.365   1.123  -0.014  0.00  0.00    -0.484 OA
BRANCH   9  10
ATOM     10  C   UNL     1       2.312  -0.305  -0.020  0.00  0.00    +0.264 C 
BRANCH  10  11
ATOM     11  C   UNL     1       3.713  -0.861  -0.035  0.00  0.00    -0.010 A 
ATOM     12  C   UNL     1       4.342  -1.115  -1.239  0.00  0.00    +0.007 A 
ATOM     13  C   UNL     1       5.629  -1.619  -1.254  0.00  0.00    +0.000 A 
ATOM     14  C   UNL     1       6.283  -1.879  -0.064  0.00  0.00    +0.000 A 
ATOM     15  C   UNL     1       5.651  -1.631   1.141  0.00  0.00    +0.000 A 
ATOM     16  C   UNL     1       4.366  -1.121   1.155  0.00  0.00    +0.007 A 
ENDBRANCH  10  11
ENDBRANCH   9  10
ENDBRANCH   6   9
BRANCH   3  17
ATOM     17  C   UNL     1      -2.559   3.864   0.046  0.00  0.00    +0.141 C 
BRANCH  17  18
ATOM     18  N   UNL     1      -2.999   4.107  -1.330  0.00  0.00    -0.186 NA
ATOM     19  H   UNL     1      -2.373   4.009  -2.064  0.00  0.00    +0.148 HD
BRANCH  18  20
ATOM     20  S   UNL     1      -4.566   4.551  -1.632  0.00  0.00    +0.059 S 
ATOM     21  O   UNL     1      -4.672   4.737  -3.037  0.00  0.00    -0.153 OA
ATOM     22  O   UNL     1      -5.391   3.639  -0.920  0.00  0.00    -0.153 OA
BRANCH  20  23
ATOM     23  C   UNL     1      -4.810   6.133  -0.895  0.00  0.00    +0.105 A 
ATOM     24  C   UNL     1      -5.258   6.224   0.410  0.00  0.00    +0.030 A 
ATOM     25  C   UNL     1      -5.445   7.462   0.993  0.00  0.00    +0.024 A 
ATOM     26  C   UNL     1      -5.194   8.617   0.262  0.00  0.00    +0.025 A 
ATOM     27  C   UNL     1      -4.751   8.522  -1.051  0.00  0.00    +0.024 A 
ATOM     28  C   UNL     1      -4.560   7.280  -1.625  0.00  0.00    +0.030 A 
BRANCH  26  29
ATOM     29  N   UNL     1      -5.388   9.871   0.846  0.00  0.00    -0.358 N 
ATOM     30  H   UNL     1      -5.212  10.676   0.335  0.00  0.00    +0.142 HD
ATOM     31  H   UNL     1      -5.698   9.936   1.763  0.00  0.00    +0.142 HD
ENDBRANCH  26  29
ENDBRANCH  20  23
ENDBRANCH  18  20
ENDBRANCH  17  18
ENDBRANCH   3  17
TORSDOF 9
