REMARK  Name = ZINC23076270
REMARK  4 active torsions:
REMARK  status: ('A' for Active; 'I' for Inactive)
REMARK    1  A    between atoms: C_1  and  C_2
REMARK    2  A    between atoms: C_8  and  C_12
REMARK    3  A    between atoms: C_20  and  O_24
REMARK    4  A    between atoms: O_24  and  C_25
REMARK                            x       y       z     vdW  Elec       q    Type
REMARK                         _______ _______ _______ _____ _____    ______ ____
ROOT
ATOM      1  C   UNL     1       2.887   0.211   1.819  0.00  0.00    +0.240 C 
ATOM      2  O   UNL     1       2.273   0.994   2.512  0.00  0.00    -0.273 OA
ATOM      3  N   UNL     1       4.235   0.233   1.809  0.00  0.00    -0.263 N 
ATOM      4  C   UNL     1       4.919   1.151   2.590  0.00  0.00    +0.165 A 
ATOM      5  N   UNL     1       4.436   2.063   3.399  0.00  0.00    -0.225 NA
ATOM      6  C   UNL     1       5.229   2.900   4.106  0.00  0.00    +0.081 A 
ATOM      7  C   UNL     1       4.839   3.919   5.006  0.00  0.00    +0.032 A 
ATOM      8  C   UNL     1       5.776   4.685   5.647  0.00  0.00    +0.048 A 
ATOM      9  C   UNL     1       7.138   4.491   5.439  0.00  0.00    +0.121 A 
ATOM     10  C   UNL     1       7.555   3.500   4.563  0.00  0.00    +0.063 A 
ATOM     11  C   UNL     1       6.619   2.729   3.919  0.00  0.00    +0.044 A 
ATOM     12  S   UNL     1       6.682   1.387   2.756  0.00  0.00    -0.052 S 
ATOM     13  H   UNL     1       4.726  -0.394   1.254  0.00  0.00    +0.157 HD
ENDROOT
BRANCH   1  21
ATOM     14  C   UNL     1      -0.019   1.526   0.010  0.00  0.00    +0.044 C 
ATOM     15  C   UNL     1       0.002  -0.004   0.002  0.00  0.00    +0.082 C 
ATOM     16  C   UNL     1      -1.404  -0.622   0.037  0.00  0.00    +0.046 C 
ATOM     17  C   UNL     1      -1.621  -0.740   1.566  0.00  0.00    +0.099 C 
ATOM     18  C   UNL     1      -0.224  -0.854   2.133  0.00  0.00    +0.217 C 
ATOM     19  O   UNL     1       0.033  -1.143   3.282  0.00  0.00    -0.276 OA
ATOM     20  N   UNL     1       0.703  -0.589   1.174  0.00  0.00    -0.275 N 
ATOM     21  C   UNL     1       2.143  -0.788   0.970  0.00  0.00    +0.173 C 
ATOM     22  C   UNL     1       2.620  -0.629  -0.494  0.00  0.00    +0.103 C 
ATOM     23  S   UNL     1       0.998  -0.704  -1.380  0.00  0.00    -0.133 S 
ENDBRANCH   1  21
BRANCH   9  24
ATOM     24  O   UNL     1       8.050   5.265   6.086  0.00  0.00    -0.495 OA
ATOM     25  C   UNL     1       7.541   6.265   6.971  0.00  0.00    +0.277 C 
ENDBRANCH   9  24
TORSDOF 2
