REMARK  Name = ZINC02269279
REMARK  8 active torsions:
REMARK  status: ('A' for Active; 'I' for Inactive)
REMARK    1  A    between atoms: C_1  and  C_2
REMARK    2  A    between atoms: C_11  and  N_28
REMARK    3  A    between atoms: C_13  and  S_15
REMARK    4  A    between atoms: S_15  and  C_16
REMARK    5  A    between atoms: C_16  and  C_17
REMARK    6  A    between atoms: N_19  and  C_20
REMARK    7  A    between atoms: C_23  and  O_26
REMARK    8  A    between atoms: O_26  and  C_27
REMARK                            x       y       z     vdW  Elec       q    Type
REMARK                         _______ _______ _______ _____ _____    ______ ____
ROOT
ATOM      1  C   UNL     1      -0.418  -1.130  -1.617  0.00  0.00    +0.008 C 
ATOM      2  C   UNL     1       0.937  -0.429  -1.498  0.00  0.00    -0.009 C 
ATOM      3  C   UNL     1       1.638  -0.875  -0.211  0.00  0.00    +0.008 C 
ATOM      4  C   UNL     1       3.084  -0.378  -0.210  0.00  0.00    +0.037 C 
ATOM      5  C   UNL     1       3.090   1.126  -0.472  0.00  0.00    -0.025 A 
ATOM      6  C   UNL     1       2.014   1.732  -1.022  0.00  0.00    -0.004 A 
ATOM      7  S   UNL     1       2.454   3.448  -1.142  0.00  0.00    -0.073 S 
ATOM      8  C   UNL     1       4.077   3.353  -0.458  0.00  0.00    +0.115 A 
ATOM      9  C   UNL     1       4.227   1.976  -0.154  0.00  0.00    +0.051 A 
ATOM     10  C   UNL     1       5.465   1.573   0.425  0.00  0.00    +0.129 A 
ATOM     11  N   UNL     1       6.358   2.540   0.623  0.00  0.00    -0.207 NA
ATOM     12  C   UNL     1       6.151   3.811   0.314  0.00  0.00    +0.191 A 
ATOM     13  N   UNL     1       5.014   4.252  -0.230  0.00  0.00    -0.214 NA
ATOM     14  C   UNL     1       0.727   1.091  -1.440  0.00  0.00    +0.046 C 
ENDROOT
BRANCH  10  15
ATOM     15  N   UNL     1       5.722   0.257   0.763  0.00  0.00    -0.343 N 
ATOM     16  H   UNL     1       5.177  -0.455   0.392  0.00  0.00    +0.144 HD
ATOM     17  H   UNL     1       6.447   0.045   1.371  0.00  0.00    +0.144 HD
ENDBRANCH  10  15
BRANCH  12  18
ATOM     18  S   UNL     1       7.434   4.974   0.637  0.00  0.00    -0.077 S 
BRANCH  18  19
ATOM     19  C   UNL     1       8.685   3.874   1.344  0.00  0.00    +0.173 C 
BRANCH  19  20
ATOM     20  C   UNL     1       9.910   4.673   1.707  0.00  0.00    +0.227 C 
ATOM     21  O   UNL     1       9.935   5.869   1.507  0.00  0.00    -0.275 OA
ATOM     22  N   UNL     1      10.978   4.059   2.254  0.00  0.00    -0.285 N 
ATOM     23  H   UNL     1      10.933   3.116   2.479  0.00  0.00    +0.155 HD
BRANCH  22  24
ATOM     24  C   UNL     1      12.153   4.782   2.497  0.00  0.00    +0.034 A 
ATOM     25  C   UNL     1      13.390   4.168   2.347  0.00  0.00    +0.027 A 
ATOM     26  C   UNL     1      14.548   4.883   2.582  0.00  0.00    +0.047 A 
ATOM     27  C   UNL     1      14.476   6.210   2.980  0.00  0.00    +0.120 A 
ATOM     28  C   UNL     1      13.240   6.822   3.136  0.00  0.00    +0.047 A 
ATOM     29  C   UNL     1      12.082   6.110   2.895  0.00  0.00    +0.027 A 
BRANCH  27  30
ATOM     30  O   UNL     1      15.616   6.911   3.217  0.00  0.00    -0.495 OA
ATOM     31  C   UNL     1      16.853   6.218   3.036  0.00  0.00    +0.277 C 
ENDBRANCH  27  30
ENDBRANCH  22  24
ENDBRANCH  19  20
ENDBRANCH  18  19
ENDBRANCH  12  18
TORSDOF 6
