REMARK  Name = ZINC47932425
REMARK  11 active torsions:
REMARK  status: ('A' for Active; 'I' for Inactive)
REMARK    1  A    between atoms: C_1  and  C_2
REMARK    2  A    between atoms: C_2  and  C_3
REMARK    3  A    between atoms: C_6  and  C_9
REMARK    4  A    between atoms: C_9  and  C_11
REMARK    5  A    between atoms: C_9  and  N_24
REMARK    6  A    between atoms: C_11  and  N_12
REMARK    7  A    between atoms: C_13  and  C_15
REMARK    8  A    between atoms: C_18  and  S_20
REMARK    9  A    between atoms: S_20  and  N_23
REMARK   10  A    between atoms: N_24  and  C_25
REMARK   11  A    between atoms: N_24  and  C_26
REMARK                            x       y       z     vdW  Elec       q    Type
REMARK                         _______ _______ _______ _____ _____    ______ ____
ROOT
ATOM      1  N   UNL     1       1.740  -0.176  -5.964  0.00  0.00    -0.310 N 
ATOM      2  C   UNL     1       1.855   0.932  -6.722  0.00  0.00    +0.279 C 
ATOM      3  O   UNL     1       2.955   1.399  -6.953  0.00  0.00    -0.267 OA
ATOM      4  H   UNL     1       0.863  -0.549  -5.780  0.00  0.00    +0.149 HD
ENDROOT
BRANCH   2   5
ATOM      5  C   UNL     1       0.656   1.575  -7.269  0.00  0.00    +0.192 A 
ATOM      6  C   UNL     1       0.631   2.693  -8.052  0.00  0.00    +0.057 A 
ATOM      7  C   UNL     1      -0.717   2.952  -8.344  0.00  0.00    +0.072 A 
ATOM      8  C   UNL     1      -1.447   1.992  -7.733  0.00  0.00    +0.258 A 
ATOM      9  O   UNL     1      -0.616   1.162  -7.091  0.00  0.00    -0.432 OA
BRANCH   8  10
ATOM     10  S   UNL     1      -3.203   1.853  -7.780  0.00  0.00    +0.089 S 
ATOM     11  O   UNL     1      -3.583   1.119  -6.624  0.00  0.00    -0.150 OA
ATOM     12  O   UNL     1      -3.706   3.154  -8.055  0.00  0.00    -0.150 OA
BRANCH  10  13
ATOM     13  N   UNL     1      -3.586   0.911  -9.087  0.00  0.00    -0.201 NA
ATOM     14  H   UNL     1      -4.384   0.360  -9.071  0.00  0.00    +0.144 HD
ATOM     15  H   UNL     1      -3.011   0.910  -9.869  0.00  0.00    +0.144 HD
ENDBRANCH  10  13
ENDBRANCH   8  10
ENDBRANCH   2   5
BRANCH   1  16
ATOM     16  C   UNL     1       2.938  -0.819  -5.418  0.00  0.00    +0.094 C 
BRANCH  16  17
ATOM     17  C   UNL     1       2.539  -2.099  -4.682  0.00  0.00    -0.021 C 
BRANCH  17  21
ATOM     18  C   UNL     1       0.108  -1.109  -1.312  0.00  0.00    -0.048 A 
ATOM     19  C   UNL     1      -0.479  -1.556  -2.481  0.00  0.00    +0.004 A 
ATOM     20  C   UNL     1       0.307  -1.876  -3.571  0.00  0.00    +0.002 A 
ATOM     21  C   UNL     1       1.682  -1.749  -3.493  0.00  0.00    -0.059 A 
ATOM     22  C   UNL     1       2.269  -1.302  -2.325  0.00  0.00    +0.002 A 
ATOM     23  C   UNL     1       1.482  -0.978  -1.235  0.00  0.00    +0.004 A 
BRANCH  18  25
ATOM     24  C   UNL     1      -1.144   0.716  -0.194  0.00  0.00    +0.009 C 
ATOM     25  C   UNL     1      -0.750  -0.760  -0.123  0.00  0.00    +0.032 C 
ENDBRANCH  18  25
ENDBRANCH  17  21
BRANCH  17  26
ATOM     26  N   UNL     1       3.748  -2.797  -4.224  0.00  0.00    +0.382 N 
ATOM     27  C   UNL     1       3.365  -4.003  -3.478  0.00  0.00    -0.096 C 
ATOM     28  C   UNL     1       4.563  -3.179  -5.386  0.00  0.00    -0.096 C 
ATOM     29  H   UNL     1       4.283  -2.187  -3.625  0.00  0.00    -0.082 HD
ENDBRANCH  17  26
ENDBRANCH  16  17
ENDBRANCH   1  16
TORSDOF 8
