REMARK  Name = ZINC15970091
REMARK  8 active torsions:
REMARK  status: ('A' for Active; 'I' for Inactive)
REMARK    1  A    between atoms: C_1  and  C_2
REMARK    2  A    between atoms: C_4  and  C_39
REMARK    3  A    between atoms: C_13  and  C_16
REMARK    4  A    between atoms: C_16  and  C_17
REMARK    5  A    between atoms: N_29  and  C_32
REMARK    6  A    between atoms: C_32  and  C_33
REMARK    7  A    between atoms: C_33  and  O_34
REMARK    8  A    between atoms: O_34  and  C_35
REMARK                            x       y       z     vdW  Elec       q    Type
REMARK                         _______ _______ _______ _____ _____    ______ ____
ROOT
ATOM      1  C   UNL     1      -0.018   1.503   0.010  0.00  0.00    +0.044 C 
ATOM      2  C   UNL     1       0.002  -0.004   0.002  0.00  0.00    -0.050 A 
ATOM      3  C   UNL     1       0.006  -0.691  -1.199  0.00  0.00    +0.008 A 
ATOM      4  C   UNL     1       0.026  -2.070  -1.212  0.00  0.00    -0.029 A 
ATOM      5  C   UNL     1       0.043  -2.782  -0.015  0.00  0.00    +0.042 A 
ATOM      6  C   UNL     1       0.038  -2.081   1.187  0.00  0.00    +0.004 A 
ATOM      7  C   UNL     1       0.023  -0.704   1.195  0.00  0.00    +0.011 A 
ATOM      8  C   UNL     1       0.059  -3.122   2.270  0.00  0.00    +0.136 C 
ATOM      9  C   UNL     1       1.285  -2.962   3.178  0.00  0.00    +0.122 C 
ATOM     10  C   UNL     1       0.754  -2.190   4.418  0.00  0.00    +0.107 C 
ATOM     11  C   UNL     1      -0.738  -1.934   4.117  0.00  0.00    +0.072 C 
ATOM     12  N   UNL     1      -1.116  -3.009   3.152  0.00  0.00    -0.295 NA
ATOM     13  C   UNL     1       0.888  -3.194   5.539  0.00  0.00    +0.227 C 
ATOM     14  O   UNL     1       0.572  -3.001   6.694  0.00  0.00    -0.275 OA
ATOM     15  N   UNL     1       1.410  -4.329   5.059  0.00  0.00    -0.239 N 
ATOM     16  C   UNL     1       1.683  -4.311   3.735  0.00  0.00    +0.228 C 
ATOM     17  O   UNL     1       2.165  -5.219   3.092  0.00  0.00    -0.275 OA
ATOM     18  C   UNL     1       0.078  -4.440   1.545  0.00  0.00    +0.243 C 
ATOM     19  O   UNL     1       0.101  -5.543   2.049  0.00  0.00    -0.273 OA
ATOM     20  N   UNL     1       0.065  -4.157   0.228  0.00  0.00    -0.283 N 
ATOM     21  C   UNL     1       0.029  -2.808  -2.526  0.00  0.00    +0.045 C 
ATOM     22  H   UNL     1      -1.938  -2.746   2.628  0.00  0.00    +0.124 HD
ATOM     23  H   UNL     1       0.070  -4.831  -0.470  0.00  0.00    +0.155 HD
ENDROOT
BRANCH  11  24
ATOM     24  C   UNL     1      -1.569  -2.068   5.395  0.00  0.00    +0.056 C 
BRANCH  24  25
ATOM     25  C   UNL     1      -3.000  -1.696   5.105  0.00  0.00    -0.021 A 
ATOM     26  C   UNL     1      -3.563  -0.490   5.284  0.00  0.00    +0.087 A 
ATOM     27  N   UNL     1      -4.879  -0.531   4.912  0.00  0.00    -0.360 N 
ATOM     28  H   UNL     1      -5.492   0.220   4.950  0.00  0.00    +0.165 HD
ATOM     29  C   UNL     1      -5.203  -1.795   4.473  0.00  0.00    +0.047 A 
ATOM     30  C   UNL     1      -4.039  -2.579   4.570  0.00  0.00    +0.003 A 
ATOM     31  C   UNL     1      -4.068  -3.920   4.184  0.00  0.00    +0.010 A 
ATOM     32  C   UNL     1      -5.228  -4.465   3.711  0.00  0.00    +0.001 A 
ATOM     33  C   UNL     1      -6.379  -3.695   3.610  0.00  0.00    +0.002 A 
ATOM     34  C   UNL     1      -6.375  -2.372   3.994  0.00  0.00    +0.026 A 
ENDBRANCH  24  25
ENDBRANCH  11  24
BRANCH  15  35
ATOM     35  C   UNL     1       1.671  -5.499   5.902  0.00  0.00    +0.144 C 
BRANCH  35  36
ATOM     36  C   UNL     1       0.435  -6.400   5.920  0.00  0.00    +0.179 C 
BRANCH  36  37
ATOM     37  O   UNL     1       0.206  -6.922   4.610  0.00  0.00    -0.381 OA
ATOM     38  C   UNL     1      -0.932  -7.781   4.517  0.00  0.00    +0.194 C 
ENDBRANCH  36  37
ENDBRANCH  35  36
ENDBRANCH  15  35
TORSDOF 5
