REMARK  Name = ZINC25152124
REMARK  10 active torsions:
REMARK  status: ('A' for Active; 'I' for Inactive)
REMARK    1  A    between atoms: C_1  and  N_2
REMARK    2  A    between atoms: N_5  and  S_8
REMARK    3  A    between atoms: S_8  and  C_11
REMARK    4  A    between atoms: C_14  and  N_20
REMARK    5  A    between atoms: C_15  and  N_17
REMARK    6  A    between atoms: N_20  and  C_21
REMARK    7  A    between atoms: C_21  and  C_22
REMARK    8  A    between atoms: C_25  and  O_28
REMARK    9  A    between atoms: O_28  and  C_29
REMARK   10  A    between atoms: C_29  and  C_30
REMARK                            x       y       z     vdW  Elec       q    Type
REMARK                         _______ _______ _______ _____ _____    ______ ____
ROOT
ATOM      1  C   UNL     1       0.373   0.623   3.417  0.00  0.00    +0.108 A 
ATOM      2  C   UNL     1       1.205  -0.480   3.377  0.00  0.00    +0.030 A 
ATOM      3  C   UNL     1       2.111  -0.702   4.396  0.00  0.00    +0.027 A 
ATOM      4  C   UNL     1       2.179   0.181   5.467  0.00  0.00    +0.058 A 
ATOM      5  C   UNL     1       1.338   1.285   5.506  0.00  0.00    +0.149 A 
ATOM      6  C   UNL     1       0.438   1.503   4.482  0.00  0.00    +0.063 A 
ENDROOT
BRANCH   1   7
ATOM      7  S   UNL     1      -0.777   0.905   2.112  0.00  0.00    +0.061 S 
ATOM      8  O   UNL     1      -1.821   1.701   2.656  0.00  0.00    -0.153 OA
ATOM      9  O   UNL     1      -1.019  -0.357   1.505  0.00  0.00    -0.153 OA
BRANCH   7  14
ATOM     10  C   UNL     1       0.098   3.914  -2.671  0.00  0.00    -0.096 C 
ATOM     11  N   UNL     1       0.376   3.296  -1.367  0.00  0.00    +0.380 N 
ATOM     12  C   UNL     1       0.273   1.833  -1.446  0.00  0.00    -0.062 C 
ATOM     13  C   UNL     1       0.743   1.220  -0.122  0.00  0.00    +0.091 C 
ATOM     14  N   UNL     1      -0.012   1.838   0.978  0.00  0.00    -0.180 NA
ATOM     15  C   UNL     1      -0.073   3.306   1.040  0.00  0.00    +0.091 C 
ATOM     16  C   UNL     1      -0.511   3.838  -0.329  0.00  0.00    -0.062 C 
ATOM     17  H   UNL     1       1.410   3.545  -1.087  0.00  0.00    -0.082 HD
ENDBRANCH   7  14
ENDBRANCH   1   7
BRANCH   5  18
ATOM     18  N   UNL     1       1.406   2.228   6.646  0.00  0.00    +0.058 N 
ATOM     19  O   UNL     1       0.386   2.730   7.083  0.00  0.00    -0.126 OA
ATOM     20  O   UNL     1       2.482   2.501   7.147  0.00  0.00    -0.126 OA
ENDBRANCH   5  18
BRANCH   4  21
ATOM     21  N   UNL     1       3.090  -0.043   6.502  0.00  0.00    -0.338 N 
ATOM     22  H   UNL     1       3.077   0.600   7.394  0.00  0.00    +0.146 HD
BRANCH  21  23
ATOM     23  C   UNL     1       4.063  -1.133   6.398  0.00  0.00    +0.137 C 
BRANCH  23  24
ATOM     24  C   UNL     1       4.922  -1.160   7.636  0.00  0.00    -0.030 A 
ATOM     25  C   UNL     1       6.096  -0.432   7.676  0.00  0.00    +0.009 A 
ATOM     26  C   UNL     1       6.883  -0.449   8.812  0.00  0.00    +0.046 A 
ATOM     27  C   UNL     1       6.498  -1.208   9.908  0.00  0.00    +0.121 A 
ATOM     28  C   UNL     1       5.322  -1.942   9.863  0.00  0.00    +0.046 A 
ATOM     29  C   UNL     1       4.537  -1.916   8.727  0.00  0.00    +0.009 A 
BRANCH  27  30
ATOM     30  O   UNL     1       7.273  -1.231  11.025  0.00  0.00    -0.483 OA
BRANCH  30  31
ATOM     31  C   UNL     1       8.470  -0.451  11.000  0.00  0.00    +0.342 C 
BRANCH  31  32
ATOM     32  C   UNL     1       9.204  -0.601  12.334  0.00  0.00    +0.424 C 
ATOM     33  F   UNL     1       9.528  -1.947  12.539  0.00  0.00    -0.167 F 
ATOM     34  F   UNL     1      10.376   0.162  12.310  0.00  0.00    -0.167 F 
ATOM     35  F   UNL     1       8.379  -0.157  13.373  0.00  0.00    -0.167 F 
ENDBRANCH  31  32
ENDBRANCH  30  31
ENDBRANCH  27  30
ENDBRANCH  23  24
ENDBRANCH  21  23
ENDBRANCH   4  21
TORSDOF 9
