REMARK  Name = ZINC05883942
REMARK  4 active torsions:
REMARK  status: ('A' for Active; 'I' for Inactive)
REMARK    1  A    between atoms: C_8  and  C_10
REMARK    2  A    between atoms: C_10  and  O_12
REMARK    3  A    between atoms: O_12  and  C_13
REMARK    4  A    between atoms: C_13  and  C_14
REMARK                            x       y       z     vdW  Elec       q    Type
REMARK                         _______ _______ _______ _____ _____    ______ ____
ROOT
ATOM      1  O   UNL     1       2.765   7.730   0.009  0.00  0.00    -0.451 OA
ENDROOT
BRANCH   1   2
ATOM      2  C   UNL     1       3.139   6.435  -0.004  0.00  0.00    +0.348 C 
ATOM      3  O   UNL     1       4.319   6.143  -0.017  0.00  0.00    -0.244 OA
BRANCH   2  11
ATOM      4  C   UNL     1      -0.011   1.075  -0.010  0.00  0.00    +0.001 A 
ATOM      5  C   UNL     1      -1.234   1.736   0.000  0.00  0.00    +0.001 A 
ATOM      6  C   UNL     1      -1.260   3.116   0.014  0.00  0.00    +0.016 A 
ATOM      7  C   UNL     1      -0.074   3.819   0.008  0.00  0.00    +0.022 A 
ATOM      8  C   UNL     1       1.185   3.172  -0.007  0.00  0.00    +0.008 A 
ATOM      9  C   UNL     1       1.165   1.754  -0.016  0.00  0.00    +0.010 A 
ATOM     10  C   UNL     1       2.302   4.028  -0.012  0.00  0.00    +0.070 A 
ATOM     11  C   UNL     1       2.123   5.378  -0.001  0.00  0.00    +0.116 A 
ATOM     12  S   UNL     1       0.346   5.543   0.016  0.00  0.00    -0.080 S 
ATOM     13 CL   UNL     1       3.906   3.364  -0.032  0.00  0.00    -0.082 Cl
ENDBRANCH   2  11
ENDBRANCH   1   2
BRANCH   1  14
ATOM     14  C   UNL     1       3.824   8.723   0.005  0.00  0.00    +0.328 C 
BRANCH  14  15
ATOM     15  C   UNL     1       3.220  10.103   0.020  0.00  0.00    +0.256 C 
ATOM     16  O   UNL     1       2.015  10.237   0.032  0.00  0.00    -0.272 OA
ATOM     17  N   UNL     1       4.019  11.189   0.020  0.00  0.00    -0.268 N 
ATOM     18  C   UNL     1       3.462  12.464  -0.074  0.00  0.00    +0.125 A 
ATOM     19  C   UNL     1       4.295  13.572  -0.181  0.00  0.00    +0.045 A 
ATOM     20  C   UNL     1       3.730  14.832  -0.278  0.00  0.00    +0.025 A 
ATOM     21  C   UNL     1       2.345  14.940  -0.254  0.00  0.00    +0.059 A 
ATOM     22  C   UNL     1       1.579  13.796  -0.140  0.00  0.00    +0.132 A 
ATOM     23  N   UNL     1       2.147  12.608  -0.054  0.00  0.00    -0.239 NA
ATOM     24 CL   UNL     1       1.585  16.497  -0.366  0.00  0.00    -0.082 Cl
ATOM     25  H   UNL     1       4.981  11.083   0.084  0.00  0.00    +0.156 HD
ENDBRANCH  14  15
ENDBRANCH   1  14
TORSDOF 4
