REMARK  Name = ZINC02341454
REMARK  4 active torsions:
REMARK  status: ('A' for Active; 'I' for Inactive)
REMARK    1  A    between atoms: C_9  and  C_12
REMARK    2  A    between atoms: N_14  and  N_15
REMARK    3  A    between atoms: C_16  and  C_17
REMARK    4  A    between atoms: C_20  and  C_22
REMARK                            x       y       z     vdW  Elec       q    Type
REMARK                         _______ _______ _______ _____ _____    ______ ____
ROOT
ATOM      1  N   UNL     1      -2.173   9.486   0.009  0.00  0.00    -0.185 NA
ATOM      2  C   UNL     1      -3.151  10.281   0.337  0.00  0.00    +0.176 C 
ENDROOT
BRANCH   2   3
ATOM      3  C   UNL     1      -3.099  11.696  -0.034  0.00  0.00    +0.148 A 
ATOM      4  C   UNL     1      -4.061  12.642   0.248  0.00  0.00    +0.051 A 
ATOM      5  C   UNL     1      -3.606  13.854  -0.288  0.00  0.00    +0.050 A 
ATOM      6  C   UNL     1      -2.398  13.606  -0.870  0.00  0.00    +0.137 A 
ATOM      7  O   UNL     1      -2.100  12.303  -0.706  0.00  0.00    -0.454 OA
BRANCH   6   8
ATOM      8  C   UNL     1      -1.554  14.602  -1.560  0.00  0.00    +0.036 A 
ATOM      9  C   UNL     1      -0.200  14.719  -1.236  0.00  0.00    +0.014 A 
ATOM     10  C   UNL     1       0.583  15.651  -1.884  0.00  0.00    +0.021 A 
ATOM     11  C   UNL     1       0.030  16.470  -2.855  0.00  0.00    +0.042 A 
ATOM     12  C   UNL     1      -1.311  16.360  -3.181  0.00  0.00    +0.040 A 
ATOM     13  C   UNL     1      -2.105  15.428  -2.543  0.00  0.00    +0.053 A 
ATOM     14 CL   UNL     1      -3.785  15.285  -2.958  0.00  0.00    -0.083 Cl
ATOM     15 CL   UNL     1       1.023  17.640  -3.666  0.00  0.00    -0.083 Cl
ENDBRANCH   6   8
ENDBRANCH   2   3
BRANCH   1  18
ATOM     16  C   UNL     1      -1.210   7.309   0.025  0.00  0.00    +0.276 C 
ATOM     17  O   UNL     1      -0.256   7.742  -0.587  0.00  0.00    -0.270 OA
ATOM     18  N   UNL     1      -2.222   8.132   0.364  0.00  0.00    -0.204 N 
ATOM     19  H   UNL     1      -2.985   7.786   0.854  0.00  0.00    +0.177 HD
BRANCH  16  28
ATOM     20  C   UNL     1      -0.013   1.076   0.008  0.00  0.00    +0.004 A 
ATOM     21  C   UNL     1       1.176   1.782   0.000  0.00  0.00    +0.004 A 
ATOM     22  C   UNL     1       1.161   3.164   0.007  0.00  0.00    +0.049 A 
ATOM     23  C   UNL     1      -0.046   3.846   0.020  0.00  0.00    +0.163 A 
ATOM     24  C   UNL     1      -1.241   3.136   0.030  0.00  0.00    +0.162 A 
ATOM     25  C   UNL     1      -1.219   1.749   0.017  0.00  0.00    +0.049 A 
ATOM     26  O   UNL     1      -2.437   3.785   0.048  0.00  0.00    -0.484 OA
ATOM     27  C   UNL     1      -2.424   5.167  -0.326  0.00  0.00    +0.283 C 
ATOM     28  C   UNL     1      -1.263   5.852   0.407  0.00  0.00    +0.297 C 
ATOM     29  O   UNL     1      -0.045   5.207   0.019  0.00  0.00    -0.472 OA
ENDBRANCH  16  28
ENDBRANCH   1  18
TORSDOF 4
