REMARK  Name = ZINC58948769
REMARK  12 active torsions:
REMARK  status: ('A' for Active; 'I' for Inactive)
REMARK    1  A    between atoms: C_1  and  C_2
REMARK    2  A    between atoms: C_2  and  O_3
REMARK    3  A    between atoms: O_3  and  C_4
REMARK    4  A    between atoms: C_4  and  C_6
REMARK    5  A    between atoms: C_7  and  N_26
REMARK    6  A    between atoms: C_9  and  C_25
REMARK    7  A    between atoms: C_10  and  C_22
REMARK    8  A    between atoms: C_11  and  C_13
REMARK    9  A    between atoms: C_16  and  C_19
REMARK   10  A    between atoms: C_19  and  C_20
REMARK   11  A    between atoms: C_19  and  C_21
REMARK   12  A    between atoms: C_22  and  C_24
REMARK                            x       y       z     vdW  Elec       q    Type
REMARK                         _______ _______ _______ _____ _____    ______ ____
ROOT
ATOM      1  C   UNL     1      -2.787  -2.394   0.011  0.00  0.00    +0.105 C 
ATOM      2  C   UNL     1      -2.940  -3.740  -0.087  0.00  0.00    +0.195 C 
ATOM      3  O   UNL     1      -4.157  -4.311  -0.077  0.00  0.00    -0.446 OA
ATOM      4  C   UNL     1      -5.245  -3.573  -0.342  0.00  0.00    +0.112 C 
ATOM      5  C   UNL     1      -5.231  -2.232  -0.261  0.00  0.00    +0.045 C 
ATOM      6  C   UNL     1      -3.983  -1.490   0.141  0.00  0.00    +0.097 C 
ATOM      7  C   UNL     1      -6.520  -4.268  -0.743  0.00  0.00    +0.086 C 
ENDROOT
BRANCH   6   8
ATOM      8  C   UNL     1      -4.109  -1.029   1.570  0.00  0.00    -0.035 A 
ATOM      9  C   UNL     1      -4.270  -1.955   2.584  0.00  0.00    +0.005 A 
ATOM     10  C   UNL     1      -4.385  -1.531   3.895  0.00  0.00    +0.004 A 
ATOM     11  C   UNL     1      -4.338  -0.182   4.192  0.00  0.00    -0.045 A 
ATOM     12  C   UNL     1      -4.176   0.744   3.178  0.00  0.00    +0.004 A 
ATOM     13  C   UNL     1      -4.056   0.320   1.868  0.00  0.00    +0.005 A 
BRANCH  11  14
ATOM     14  C   UNL     1      -4.465   0.279   5.621  0.00  0.00    +0.013 C 
ATOM     15  C   UNL     1      -3.204   1.048   6.022  0.00  0.00    +0.012 C 
ATOM     16  C   UNL     1      -5.684   1.193   5.756  0.00  0.00    +0.012 C 
ENDBRANCH  11  14
ENDBRANCH   6   8
BRANCH   5  17
ATOM     17  C   UNL     1      -6.403  -1.509  -0.551  0.00  0.00    +0.160 C 
ATOM     18  O   UNL     1      -7.415  -2.098  -0.872  0.00  0.00    -0.293 OA
ATOM     19  C   UNL     1      -6.401  -0.005  -0.465  0.00  0.00    +0.091 C 
ENDBRANCH   5  17
BRANCH   2  20
ATOM     20  N   UNL     1      -1.829  -4.532  -0.199  0.00  0.00    -0.329 N 
ATOM     21  H   UNL     1      -0.944  -4.140  -0.131  0.00  0.00    +0.145 HD
ATOM     22  H   UNL     1      -1.927  -5.486  -0.346  0.00  0.00    +0.145 HD
ENDBRANCH   2  20
BRANCH   1  23
ATOM     23  C   UNL     1      -1.498  -1.839  -0.004  0.00  0.00    +0.341 C 
ATOM     24  O   UNL     1      -1.066  -1.329  -1.022  0.00  0.00    -0.245 OA
BRANCH  23  25
ATOM     25  O   UNL     1      -0.736  -1.871   1.111  0.00  0.00    -0.462 OA
BRANCH  25  27
ATOM     26  C   UNL     1       1.273  -1.419   2.375  0.00  0.00    +0.048 C 
ATOM     27  C   UNL     1       0.566  -1.288   1.025  0.00  0.00    +0.229 C 
ENDBRANCH  25  27
ENDBRANCH  23  25
ENDBRANCH   1  23
TORSDOF 7
