REMARK  Name = ZINC62857474
REMARK  6 active torsions:
REMARK  status: ('A' for Active; 'I' for Inactive)
REMARK    1  A    between atoms: C_1  and  C_2
REMARK    2  A    between atoms: C_2  and  C_3
REMARK    3  A    between atoms: C_3  and  C_9
REMARK    4  A    between atoms: N_11  and  C_12
REMARK    5  A    between atoms: N_11  and  C_13
REMARK    6  A    between atoms: C_13  and  C_14
REMARK                            x       y       z     vdW  Elec       q    Type
REMARK                         _______ _______ _______ _____ _____    ______ ____
ROOT
ATOM      1  C   UNL     1       0.183  -0.116   2.468  0.00  0.00    +0.220 C 
ATOM      2  O   UNL     1       0.738   0.649   3.228  0.00  0.00    -0.275 OA
ATOM      3  N   UNL     1      -1.011  -0.647   2.800  0.00  0.00    -0.297 N 
ATOM      4  C   UNL     1      -1.723  -1.500   1.845  0.00  0.00    +0.132 C 
ENDROOT
BRANCH   1   5
ATOM      5  C   UNL     1       0.827  -0.472   1.153  0.00  0.00    +0.032 C 
ATOM      6  C   UNL     1       2.273   0.030   1.138  0.00  0.00    +0.012 C 
ATOM      7  C   UNL     1       3.063  -0.688   2.237  0.00  0.00    -0.018 C 
ATOM      8  C   UNL     1       2.971  -2.200   2.018  0.00  0.00    -0.083 C 
ATOM      9  N   UNL     1       1.566  -2.621   2.069  0.00  0.00    +0.380 N 
ATOM     10  C   UNL     1       0.817  -1.991   0.974  0.00  0.00    -0.066 C 
ATOM     11  H   UNL     1       1.513  -3.624   1.978  0.00  0.00    -0.086 HD
ATOM     12  H   UNL     1       1.165  -2.343   2.952  0.00  0.00    -0.086 HD
BRANCH   5  14
ATOM     13  C   UNL     1       0.184   1.703   0.103  0.00  0.00    +0.005 C 
ATOM     14  C   UNL     1       0.048   0.182   0.009  0.00  0.00    +0.011 C 
ENDBRANCH   5  14
ENDBRANCH   1   5
BRANCH   3  15
ATOM     15  C   UNL     1      -1.596  -0.370   4.114  0.00  0.00    +0.181 C 
BRANCH  15  16
ATOM     16  C   UNL     1      -2.453   0.867   4.033  0.00  0.00    +0.124 A 
ATOM     17  C   UNL     1      -3.765   0.896   3.741  0.00  0.00    +0.047 A 
ATOM     18  C   UNL     1      -4.162   2.253   3.774  0.00  0.00    +0.057 A 
ATOM     19  C   UNL     1      -3.067   2.972   4.085  0.00  0.00    +0.170 A 
ATOM     20  O   UNL     1      -2.036   2.126   4.246  0.00  0.00    -0.452 OA
ATOM     21 BR   UNL     1      -2.994   4.852   4.270  0.00  0.00    -0.008 Br
ENDBRANCH  15  16
ENDBRANCH   3  15
TORSDOF 4
