REMARK  Name = ZINC45253487
REMARK  9 active torsions:
REMARK  status: ('A' for Active; 'I' for Inactive)
REMARK    1  A    between atoms: C_1  and  C_2
REMARK    2  A    between atoms: C_3  and  C_30
REMARK    3  A    between atoms: C_5  and  S_7
REMARK    4  A    between atoms: S_7  and  C_8
REMARK    5  A    between atoms: C_8  and  C_9
REMARK    6  A    between atoms: C_11  and  N_24
REMARK    7  A    between atoms: C_13  and  N_15
REMARK    8  A    between atoms: N_15  and  C_16
REMARK    9  A    between atoms: C_16  and  C_17
REMARK                            x       y       z     vdW  Elec       q    Type
REMARK                         _______ _______ _______ _____ _____    ______ ____
ROOT
ATOM      1  C   UNL     1       0.074  -3.907   4.403  0.00  0.00    +0.029 A 
ATOM      2  C   UNL     1      -1.115  -4.433   4.858  0.00  0.00    +0.045 A 
ATOM      3  C   UNL     1      -1.090  -5.459   5.804  0.00  0.00    +0.035 A 
ATOM      4  C   UNL     1       0.146  -5.915   6.253  0.00  0.00    +0.064 A 
ATOM      5  C   UNL     1       1.301  -5.335   5.747  0.00  0.00    +0.098 A 
ATOM      6  N   UNL     1       1.231  -4.365   4.846  0.00  0.00    -0.346 N 
ATOM      7  H   UNL     1       2.053  -3.979   4.505  0.00  0.00    +0.167 HD
ENDROOT
BRANCH   3   8
ATOM      8  N   UNL     1      -2.273  -6.014   6.286  0.00  0.00    -0.328 N 
ATOM      9  C   UNL     1      -2.216  -7.169   7.183  0.00  0.00    +0.116 C 
ATOM     10  C   UNL     1      -2.743  -6.768   8.566  0.00  0.00    +0.088 C 
ATOM     11  S   UNL     1      -4.432  -6.123   8.380  0.00  0.00    -0.158 S 
ATOM     12  C   UNL     1      -4.244  -4.827   7.120  0.00  0.00    +0.088 C 
ATOM     13  C   UNL     1      -3.557  -5.431   5.895  0.00  0.00    +0.116 C 
ENDBRANCH   3   8
BRANCH   5  14
ATOM     14  N   UNL     1       2.543  -5.779   6.186  0.00  0.00    -0.325 N 
ATOM     15  H   UNL     1       3.353  -5.377   5.835  0.00  0.00    +0.148 HD
BRANCH  14  16
ATOM     16  C   UNL     1       2.628  -6.854   7.178  0.00  0.00    +0.158 C 
BRANCH  16  17
ATOM     17  C   UNL     1       4.075  -7.144   7.480  0.00  0.00    +0.061 A 
ATOM     18  C   UNL     1       4.679  -6.544   8.569  0.00  0.00    +0.025 A 
ATOM     19  C   UNL     1       6.011  -6.817   8.840  0.00  0.00    +0.006 A 
ATOM     20  C   UNL     1       6.691  -7.688   8.003  0.00  0.00    +0.059 A 
ATOM     21  C   UNL     1       6.020  -8.252   6.930  0.00  0.00    +0.213 A 
ATOM     22  N   UNL     1       4.749  -7.973   6.706  0.00  0.00    -0.223 NA
ATOM     23  F   UNL     1       6.673  -9.103   6.107  0.00  0.00    -0.184 F 
ENDBRANCH  16  17
ENDBRANCH  14  16
ENDBRANCH   5  14
BRANCH   1  24
ATOM     24  C   UNL     1       0.055  -2.799   3.382  0.00  0.00    +0.132 C 
BRANCH  24  25
ATOM     25  S   UNL     1       0.070  -3.514   1.715  0.00  0.00    -0.061 S 
BRANCH  25  30
ATOM     26  C   UNL     1      -0.019   1.435  -0.070  0.00  0.00    +0.069 C 
ATOM     27  C   UNL     1       0.009  -0.071  -0.059  0.00  0.00    +0.080 A 
ATOM     28  C   UNL     1       0.025  -0.869  -1.137  0.00  0.00    +0.126 A 
ATOM     29  O   UNL     1       0.048  -2.144  -0.693  0.00  0.00    -0.436 OA
ATOM     30  C   UNL     1       0.046  -2.110   0.649  0.00  0.00    +0.258 A 
ATOM     31  N   UNL     1       0.028  -0.857   1.035  0.00  0.00    -0.208 NA
ATOM     32  C   UNL     1       0.018  -0.424  -2.577  0.00  0.00    +0.088 C 
ENDBRANCH  25  30
ENDBRANCH  24  25
ENDBRANCH   1  24
TORSDOF 7
