REMARK  Name = ZINC27694988
REMARK  15 active torsions:
REMARK  status: ('A' for Active; 'I' for Inactive)
REMARK    1  A    between atoms: C_1  and  C_2
REMARK    2  A    between atoms: C_2  and  C_4
REMARK    3  A    between atoms: C_2  and  C_14
REMARK    4  A    between atoms: C_7  and  C_10
REMARK    5  A    between atoms: C_10  and  C_11
REMARK    6  A    between atoms: C_11  and  C_12
REMARK    7  A    between atoms: C_11  and  C_13
REMARK    8  A    between atoms: N_22  and  C_23
REMARK    9  A    between atoms: C_23  and  C_24
REMARK   10  A    between atoms: C_24  and  C_26
REMARK   11  A    between atoms: C_24  and  O_41
REMARK   12  A    between atoms: C_26  and  N_27
REMARK   13  A    between atoms: N_27  and  C_28
REMARK   14  A    between atoms: N_27  and  C_35
REMARK   15  A    between atoms: C_28  and  C_29
REMARK                            x       y       z     vdW  Elec       q    Type
REMARK                         _______ _______ _______ _____ _____    ______ ____
ROOT
ATOM      1  C   UNL     1       2.035  -1.016   0.107  0.00  0.00    +0.118 A 
ATOM      2  N   UNL     1       1.707  -0.988  -1.152  0.00  0.00    -0.232 NA
ATOM      3  C   UNL     1       0.571  -1.707  -1.343  0.00  0.00    +0.089 A 
ATOM      4  C   UNL     1      -0.205  -2.002  -2.467  0.00  0.00    +0.030 A 
ATOM      5  C   UNL     1      -1.325  -2.774  -2.338  0.00  0.00    +0.002 A 
ATOM      6  C   UNL     1      -1.703  -3.270  -1.099  0.00  0.00    +0.002 A 
ATOM      7  C   UNL     1      -0.954  -2.991   0.024  0.00  0.00    +0.028 A 
ATOM      8  C   UNL     1       0.188  -2.209  -0.088  0.00  0.00    +0.069 A 
ATOM      9  N   UNL     1       1.138  -1.760   0.808  0.00  0.00    -0.325 N 
ENDROOT
BRANCH   1  11
ATOM     10  C   UNL     1       3.139   1.176   0.457  0.00  0.00    +0.020 C 
ATOM     11  C   UNL     1       3.239  -0.331   0.701  0.00  0.00    +0.082 C 
BRANCH  11  12
ATOM     12  C   UNL     1       4.491  -0.863   0.051  0.00  0.00    -0.037 A 
ATOM     13  C   UNL     1       4.674  -0.727  -1.312  0.00  0.00    +0.004 A 
ATOM     14  C   UNL     1       5.822  -1.215  -1.907  0.00  0.00    +0.004 A 
ATOM     15  C   UNL     1       6.788  -1.838  -1.139  0.00  0.00    -0.047 A 
ATOM     16  C   UNL     1       6.605  -1.973   0.224  0.00  0.00    +0.004 A 
ATOM     17  C   UNL     1       5.459  -1.481   0.820  0.00  0.00    +0.004 A 
BRANCH  15  18
ATOM     18  C   UNL     1       8.039  -2.370  -1.789  0.00  0.00    +0.038 C 
BRANCH  18  19
ATOM     19  C   UNL     1       9.113  -1.281  -1.796  0.00  0.00    -0.013 C 
ATOM     20  C   UNL     1      10.421  -1.858  -2.341  0.00  0.00    +0.007 C 
ATOM     21  C   UNL     1       8.658  -0.122  -2.685  0.00  0.00    +0.007 C 
ENDBRANCH  18  19
ENDBRANCH  15  18
ENDBRANCH  11  12
ENDBRANCH   1  11
BRANCH   9  22
ATOM     22  C   UNL     1       1.170  -2.031   2.247  0.00  0.00    +0.153 C 
BRANCH  22  23
ATOM     23  C   UNL     1       0.391  -0.944   2.989  0.00  0.00    +0.118 C 
BRANCH  23  24
ATOM     24  O   UNL     1      -0.989  -1.012   2.622  0.00  0.00    -0.392 OA
ATOM     25  H   UNL     1      -1.420  -1.842   2.869  0.00  0.00    +0.210 HD
ENDBRANCH  23  24
BRANCH  23  26
ATOM     26  C   UNL     1       0.529  -1.156   4.498  0.00  0.00    -0.045 C 
BRANCH  26  27
ATOM     27  N   UNL     1      -0.001   0.016   5.208  0.00  0.00    +0.386 N 
ATOM     28  H   UNL     1       0.423   0.854   4.837  0.00  0.00    -0.081 HD
BRANCH  27  29
ATOM     29  C   UNL     1      -1.457   0.083   5.026  0.00  0.00    -0.068 C 
ATOM     30  C   UNL     1      -2.015   1.272   5.809  0.00  0.00    -0.015 C 
ATOM     31  C   UNL     1      -3.532   1.341   5.620  0.00  0.00    -0.002 C 
ATOM     32  C   UNL     1      -4.169   0.049   6.133  0.00  0.00    -0.000 C 
ATOM     33  C   UNL     1      -3.611  -1.141   5.349  0.00  0.00    -0.002 C 
ATOM     34  C   UNL     1      -2.094  -1.210   5.538  0.00  0.00    -0.015 C 
ENDBRANCH  27  29
BRANCH  27  35
ATOM     35  C   UNL     1       0.309  -0.097   6.639  0.00  0.00    -0.043 C 
BRANCH  35  36
ATOM     36  C   UNL     1       0.202   1.260   7.285  0.00  0.00    -0.064 A 
ATOM     37  C   UNL     1       0.821   2.352   6.706  0.00  0.00    +0.002 A 
ATOM     38  C   UNL     1       0.723   3.597   7.298  0.00  0.00    +0.000 A 
ATOM     39  C   UNL     1       0.006   3.750   8.470  0.00  0.00    +0.000 A 
ATOM     40  C   UNL     1      -0.613   2.658   9.050  0.00  0.00    +0.000 A 
ATOM     41  C   UNL     1      -0.519   1.414   8.455  0.00  0.00    +0.002 A 
ENDBRANCH  35  36
ENDBRANCH  27  35
ENDBRANCH  26  27
ENDBRANCH  23  26
ENDBRANCH  22  23
ENDBRANCH   9  22
TORSDOF 12
