REMARK  Name = ZINC63908696
REMARK  5 active torsions:
REMARK  status: ('A' for Active; 'I' for Inactive)
REMARK    1  A    between atoms: C_1  and  C_2
REMARK    2  A    between atoms: C_4  and  C_12
REMARK    3  A    between atoms: C_12  and  C_14
REMARK    4  A    between atoms: C_14  and  C_16
REMARK    5  A    between atoms: C_14  and  N_17
REMARK                            x       y       z     vdW  Elec       q    Type
REMARK                         _______ _______ _______ _____ _____    ______ ____
ROOT
ATOM      1  C   UNL     1       0.379  -0.286  -2.575  0.00  0.00    +0.182 C 
ATOM      2  O   UNL     1      -0.602   0.376  -2.847  0.00  0.00    -0.290 OA
ENDROOT
BRANCH   1   5
ATOM      3  C   UNL     1      -0.019   1.526   0.010  0.00  0.00    +0.035 C 
ATOM      4  C   UNL     1       0.002  -0.004   0.002  0.00  0.00    +0.111 C 
ATOM      5  C   UNL     1       0.728  -0.508  -1.226  0.00  0.00    +0.028 C 
ATOM      6  C   UNL     1       1.805  -1.234  -0.750  0.00  0.00    +0.006 A 
ATOM      7  C   UNL     1       2.845  -1.946  -1.391  0.00  0.00    +0.010 A 
ATOM      8  C   UNL     1       3.789  -2.580  -0.660  0.00  0.00    +0.001 A 
ATOM      9  C   UNL     1       3.790  -2.566   0.744  0.00  0.00    +0.002 A 
ATOM     10  C   UNL     1       2.842  -1.915   1.453  0.00  0.00    +0.026 A 
ATOM     11  C   UNL     1       1.776  -1.199   0.733  0.00  0.00    +0.043 A 
ATOM     12  N   UNL     1       0.756  -0.505   1.155  0.00  0.00    -0.377 N 
ATOM     13  H   UNL     1       0.532  -0.344   2.085  0.00  0.00    +0.160 HD
ENDBRANCH   1   5
BRANCH   1  14
ATOM     14  C   UNL     1       1.223  -0.869  -3.678  0.00  0.00    +0.141 C 
ATOM     15  C   UNL     1       2.518  -0.065  -3.809  0.00  0.00    +0.036 C 
BRANCH  14  16
ATOM     16  N   UNL     1       0.484  -0.813  -4.941  0.00  0.00    -0.319 N 
ATOM     17  C   UNL     1       0.120  -1.977  -5.754  0.00  0.00    +0.110 C 
ATOM     18  C   UNL     1      -0.637  -1.403  -6.963  0.00  0.00    +0.056 C 
ATOM     19  C   UNL     1      -0.642   0.091  -6.734  0.00  0.00    -0.025 A 
ATOM     20  C   UNL     1       0.018   0.357  -5.544  0.00  0.00    +0.034 A 
ATOM     21  C   UNL     1       0.136   1.681  -5.116  0.00  0.00    +0.023 A 
ATOM     22  C   UNL     1      -0.401   2.705  -5.866  0.00  0.00    +0.002 A 
ATOM     23  C   UNL     1      -1.061   2.429  -7.049  0.00  0.00    +0.000 A 
ATOM     24  C   UNL     1      -1.175   1.121  -7.485  0.00  0.00    +0.005 A 
ENDBRANCH  14  16
ENDBRANCH   1  14
TORSDOF 3
