REMARK  Name = ZINC09136864
REMARK  5 active torsions:
REMARK  status: ('A' for Active; 'I' for Inactive)
REMARK    1  A    between atoms: C_4  and  N_7
REMARK    2  A    between atoms: N_11  and  N_12
REMARK    3  A    between atoms: N_12  and  C_13
REMARK    4  A    between atoms: C_20  and  C_22
REMARK    5  A    between atoms: C_25  and  N_28
REMARK                            x       y       z     vdW  Elec       q    Type
REMARK                         _______ _______ _______ _____ _____    ______ ____
ROOT
ATOM      1  N   UNL     1       3.622  -0.651  -0.037  0.00  0.00    -0.155 N 
ATOM      2  C   UNL     1       3.756  -1.992  -0.051  0.00  0.00    +0.292 C 
ATOM      3  O   UNL     1       2.858  -2.817  -0.052  0.00  0.00    -0.266 OA
ATOM      4  C   UNL     1       5.203  -2.260  -0.066  0.00  0.00    +0.173 C 
ATOM      5  N   UNL     1       5.803  -3.435  -0.082  0.00  0.00    -0.175 NA
ATOM      6  C   UNL     1       5.835  -0.925  -0.058  0.00  0.00    +0.122 C 
ATOM      7  N   UNL     1       4.875  -0.039  -0.048  0.00  0.00    -0.170 NA
ENDROOT
BRANCH   1  11
ATOM      8  C   UNL     1      -0.017   1.379   0.010  0.00  0.00    +0.000 A 
ATOM      9  C   UNL     1       1.170   2.089   0.002  0.00  0.00    +0.002 A 
ATOM     10  C   UNL     1       2.377   1.420  -0.013  0.00  0.00    +0.025 A 
ATOM     11  C   UNL     1       2.400   0.031  -0.021  0.00  0.00    +0.060 A 
ATOM     12  C   UNL     1       1.206  -0.680  -0.013  0.00  0.00    +0.025 A 
ATOM     13  C   UNL     1       0.002  -0.004   0.002  0.00  0.00    +0.002 A 
ENDBRANCH   1  11
BRANCH   6  14
ATOM     14  C   UNL     1       7.290  -0.642  -0.066  0.00  0.00    +0.004 A 
ATOM     15  C   UNL     1       8.207  -1.693  -0.088  0.00  0.00    +0.012 A 
ATOM     16  C   UNL     1       9.560  -1.424  -0.096  0.00  0.00    +0.033 A 
ATOM     17  C   UNL     1      10.008  -0.115  -0.081  0.00  0.00    +0.126 A 
ATOM     18  C   UNL     1       9.103   0.932  -0.058  0.00  0.00    +0.033 A 
ATOM     19  C   UNL     1       7.747   0.675  -0.057  0.00  0.00    +0.012 A 
BRANCH  17  20
ATOM     20  N   UNL     1      11.461   0.167  -0.089  0.00  0.00    +0.056 N 
ATOM     21  O   UNL     1      12.254  -0.745  -0.108  0.00  0.00    -0.126 OA
ATOM     22  O   UNL     1      11.855   1.310  -0.076  0.00  0.00    -0.126 OA
ENDBRANCH  17  20
ENDBRANCH   6  14
BRANCH   5  23
ATOM     23  N   UNL     1       5.102  -4.518  -0.087  0.00  0.00    -0.237 N 
ATOM     24  H   UNL     1       4.133  -4.468  -0.079  0.00  0.00    +0.174 HD
BRANCH  23  25
ATOM     25  C   UNL     1       5.737  -5.760  -0.105  0.00  0.00    +0.048 A 
ATOM     26  C   UNL     1       7.125  -5.832  -0.111  0.00  0.00    +0.026 A 
ATOM     27  C   UNL     1       7.750  -7.064  -0.128  0.00  0.00    +0.016 A 
ATOM     28  C   UNL     1       6.996  -8.224  -0.139  0.00  0.00    +0.013 A 
ATOM     29  C   UNL     1       5.614  -8.155  -0.133  0.00  0.00    +0.016 A 
ATOM     30  C   UNL     1       4.982  -6.927  -0.110  0.00  0.00    +0.026 A 
ATOM     31  I   UNL     1       7.949 -10.089  -0.167  0.00  0.00    -0.044 I 
ENDBRANCH  23  25
ENDBRANCH   5  23
TORSDOF 5
