REMARK  Name = ZINC36586008
REMARK  16 active torsions:
REMARK  status: ('A' for Active; 'I' for Inactive)
REMARK    1  A    between atoms: C_1  and  C_2
REMARK    2  A    between atoms: C_2  and  C_3
REMARK    3  A    between atoms: C_2  and  C_4
REMARK    4  A    between atoms: C_2  and  N_5
REMARK    5  A    between atoms: C_6  and  C_8
REMARK    6  A    between atoms: C_8  and  C_10
REMARK    7  A    between atoms: C_8  and  N_19
REMARK    8  A    between atoms: C_13  and  O_18
REMARK    9  A    between atoms: C_14  and  O_16
REMARK   10  A    between atoms: O_16  and  C_17
REMARK   11  A    between atoms: N_19  and  C_32
REMARK   12  A    between atoms: C_20  and  C_22
REMARK   13  A    between atoms: C_24  and  N_29
REMARK   14  A    between atoms: C_32  and  C_33
REMARK   15  A    between atoms: C_32  and  C_34
REMARK   16  A    between atoms: C_32  and  C_35
REMARK                            x       y       z     vdW  Elec       q    Type
REMARK                         _______ _______ _______ _____ _____    ______ ____
ROOT
ATOM      1  C   UNL     1       4.546   1.406  -0.868  0.00  0.00    +0.193 C 
ENDROOT
BRANCH   1   2
ATOM      2  C   UNL     1       3.104   1.714  -1.181  0.00  0.00    -0.014 A 
ATOM      3  C   UNL     1       2.762   2.228  -2.418  0.00  0.00    +0.010 A 
ATOM      4  C   UNL     1       1.441   2.513  -2.710  0.00  0.00    +0.049 A 
ATOM      5  C   UNL     1       0.457   2.284  -1.761  0.00  0.00    +0.158 A 
ATOM      6  C   UNL     1       0.802   1.766  -0.516  0.00  0.00    +0.162 A 
ATOM      7  C   UNL     1       2.127   1.479  -0.232  0.00  0.00    +0.055 A 
BRANCH   6   8
ATOM      8  O   UNL     1      -0.160   1.540   0.418  0.00  0.00    -0.491 OA
ATOM      9  C   UNL     1       0.267   1.008   1.673  0.00  0.00    +0.277 C 
ENDBRANCH   6   8
BRANCH   5  10
ATOM     10  O   UNL     1      -0.843   2.564  -2.047  0.00  0.00    -0.503 OA
ATOM     11  H   UNL     1      -1.327   1.825  -2.440  0.00  0.00    +0.292 HD
ENDBRANCH   5  10
ENDBRANCH   1   2
BRANCH   1  13
ATOM     12  N   UNL     1       4.401   2.808   1.165  0.00  0.00    -0.309 N 
ATOM     13  C   UNL     1       5.094   2.456   0.064  0.00  0.00    +0.239 C 
ATOM     14  O   UNL     1       6.159   2.984  -0.177  0.00  0.00    -0.273 OA
ATOM     15  H   UNL     1       3.549   2.385   1.358  0.00  0.00    +0.149 HD
BRANCH  12  17
ATOM     16  C   UNL     1       5.110   5.144   1.310  0.00  0.00    +0.031 C 
ATOM     17  C   UNL     1       4.933   3.828   2.071  0.00  0.00    +0.026 C 
ATOM     18  C   UNL     1       6.287   3.369   2.617  0.00  0.00    +0.031 C 
ATOM     19  C   UNL     1       3.959   4.038   3.232  0.00  0.00    +0.031 C 
ENDBRANCH  12  17
ENDBRANCH   1  13
BRANCH   1  20
ATOM     20  N   UNL     1       5.325   1.400  -2.109  0.00  0.00    -0.277 N 
ATOM     21  C   UNL     1       5.899   2.537  -2.549  0.00  0.00    +0.252 C 
ATOM     22  O   UNL     1       5.354   3.607  -2.358  0.00  0.00    -0.270 OA
BRANCH  21  23
ATOM     23  C   UNL     1       7.189   2.483  -3.264  0.00  0.00    +0.086 A 
ATOM     24  C   UNL     1       7.639   1.279  -3.810  0.00  0.00    +0.049 A 
ATOM     25  C   UNL     1       8.845   1.235  -4.476  0.00  0.00    +0.127 A 
ATOM     26  C   UNL     1       9.613   2.381  -4.606  0.00  0.00    +0.036 A 
ATOM     27  C   UNL     1       9.180   3.577  -4.071  0.00  0.00    +0.054 A 
ATOM     28  C   UNL     1       7.966   3.641  -3.403  0.00  0.00    +0.191 A 
ATOM     29  O   UNL     1       7.536   4.817  -2.881  0.00  0.00    -0.287 OA
BRANCH  25  30
ATOM     30  N   UNL     1       9.322  -0.041  -5.054  0.00  0.00    +0.056 N 
ATOM     31  O   UNL     1       8.611  -1.019  -5.030  0.00  0.00    -0.126 OA
ATOM     32  O   UNL     1      10.422  -0.107  -5.551  0.00  0.00    -0.126 OA
ENDBRANCH  25  30
ENDBRANCH  21  23
BRANCH  20  33
ATOM     33  C   UNL     1       5.479   0.158  -2.871  0.00  0.00    +0.030 C 
ATOM     34  C   UNL     1       4.252  -0.729  -2.654  0.00  0.00    +0.031 C 
ATOM     35  C   UNL     1       5.614   0.487  -4.359  0.00  0.00    +0.031 C 
ATOM     36  C   UNL     1       6.732  -0.579  -2.396  0.00  0.00    +0.031 C 
ENDBRANCH  20  33
ENDBRANCH   1  20
TORSDOF 9
