REMARK  Name = ZINC20239143
REMARK  11 active torsions:
REMARK  status: ('A' for Active; 'I' for Inactive)
REMARK    1  A    between atoms: C_1  and  C_2
REMARK    2  A    between atoms: C_5  and  C_8
REMARK    3  A    between atoms: C_8  and  S_9
REMARK    4  A    between atoms: S_9  and  C_10
REMARK    5  A    between atoms: C_10  and  C_11
REMARK    6  A    between atoms: C_11  and  N_12
REMARK    7  A    between atoms: C_13  and  C_15
REMARK    8  A    between atoms: C_15  and  N_16
REMARK    9  A    between atoms: N_16  and  C_17
REMARK   10  A    between atoms: N_16  and  S_25
REMARK   11  A    between atoms: S_25  and  C_28
REMARK                            x       y       z     vdW  Elec       q    Type
REMARK                         _______ _______ _______ _____ _____    ______ ____
ROOT
ATOM      1  N   UNL     1       4.345  -1.062  -1.629  0.00  0.00    -0.193 N 
ENDROOT
BRANCH   1   2
ATOM      2  C   UNL     1       3.928  -2.216  -2.299  0.00  0.00    +0.070 A 
ATOM      3  C   UNL     1       4.770  -3.318  -2.378  0.00  0.00    +0.027 A 
ATOM      4  C   UNL     1       4.355  -4.456  -3.041  0.00  0.00    +0.022 A 
ATOM      5  C   UNL     1       3.102  -4.501  -3.625  0.00  0.00    +0.042 A 
ATOM      6  C   UNL     1       2.260  -3.405  -3.549  0.00  0.00    +0.042 A 
ATOM      7  C   UNL     1       2.667  -2.265  -2.882  0.00  0.00    +0.065 A 
ATOM      8 CL   UNL     1       1.608  -0.894  -2.779  0.00  0.00    -0.082 Cl
ATOM      9 CL   UNL     1       2.584  -5.934  -4.457  0.00  0.00    -0.083 Cl
ENDBRANCH   1   2
BRANCH   1  10
ATOM     10  S   UNL     1       3.934  -0.832  -0.042  0.00  0.00    +0.075 S 
ATOM     11  O   UNL     1       4.902   0.054   0.504  0.00  0.00    -0.150 OA
ATOM     12  O   UNL     1       3.686  -2.120   0.505  0.00  0.00    -0.150 OA
BRANCH  10  13
ATOM     13  C   UNL     1       2.396   0.029  -0.022  0.00  0.00    +0.109 A 
ATOM     14  C   UNL     1       1.208  -0.679  -0.014  0.00  0.00    +0.029 A 
ATOM     15  C   UNL     1       0.002  -0.004   0.002  0.00  0.00    +0.002 A 
ATOM     16  C   UNL     1      -0.017   1.378   0.010  0.00  0.00    +0.000 A 
ATOM     17  C   UNL     1       1.171   2.086   0.002  0.00  0.00    +0.002 A 
ATOM     18  C   UNL     1       2.377   1.411  -0.014  0.00  0.00    +0.029 A 
ENDBRANCH  10  13
ENDBRANCH   1  10
BRANCH   1  19
ATOM     19  C   UNL     1       5.147  -0.057  -2.331  0.00  0.00    +0.227 C 
BRANCH  19  21
ATOM     20  N   UNL     1       7.532   0.339  -2.855  0.00  0.00    -0.313 N 
ATOM     21  C   UNL     1       6.602  -0.443  -2.272  0.00  0.00    +0.232 C 
ATOM     22  O   UNL     1       6.937  -1.459  -1.699  0.00  0.00    -0.274 OA
ATOM     23  H   UNL     1       7.228   1.260  -3.374  0.00  0.00    +0.149 HD
BRANCH  20  24
ATOM     24  C   UNL     1       8.946  -0.037  -2.797  0.00  0.00    +0.115 C 
BRANCH  24  25
ATOM     25  C   UNL     1       9.783   1.013  -3.531  0.00  0.00    +0.088 C 
BRANCH  25  26
ATOM     26  S   UNL     1      11.535   0.548  -3.459  0.00  0.00    -0.155 S 
BRANCH  26  27
ATOM     27  C   UNL     1      12.379   1.876  -4.362  0.00  0.00    +0.104 C 
BRANCH  27  32
ATOM     28  C   UNL     1      18.066   0.852  -4.423  0.00  0.00    +0.044 C 
ATOM     29  C   UNL     1      16.583   1.119  -4.407  0.00  0.00    -0.050 A 
ATOM     30  C   UNL     1      15.781   0.626  -5.419  0.00  0.00    +0.003 A 
ATOM     31  C   UNL     1      14.421   0.871  -5.404  0.00  0.00    +0.005 A 
ATOM     32  C   UNL     1      13.862   1.609  -4.377  0.00  0.00    -0.038 A 
ATOM     33  C   UNL     1      14.665   2.107  -3.368  0.00  0.00    +0.005 A 
ATOM     34  C   UNL     1      16.025   1.858  -3.380  0.00  0.00    +0.003 A 
ENDBRANCH  27  32
ENDBRANCH  26  27
ENDBRANCH  25  26
ENDBRANCH  24  25
ENDBRANCH  20  24
ENDBRANCH  19  21
ENDBRANCH   1  19
TORSDOF 10
