REMARK  Name = ZINC41583997
REMARK  11 active torsions:
REMARK  status: ('A' for Active; 'I' for Inactive)
REMARK    1  A    between atoms: C_1  and  C_2
REMARK    2  A    between atoms: C_5  and  C_38
REMARK    3  A    between atoms: N_8  and  C_10
REMARK    4  A    between atoms: C_10  and  C_11
REMARK    5  A    between atoms: C_12  and  O_37
REMARK    6  A    between atoms: C_18  and  C_33
REMARK    7  A    between atoms: C_19  and  O_22
REMARK    8  A    between atoms: O_22  and  C_23
REMARK    9  A    between atoms: C_26  and  C_29
REMARK   10  A    between atoms: C_29  and  O_31
REMARK   11  A    between atoms: O_31  and  C_32
REMARK                            x       y       z     vdW  Elec       q    Type
REMARK                         _______ _______ _______ _____ _____    ______ ____
ROOT
ATOM      1  C   UNL     1       0.869  -2.348   3.575  0.00  0.00    +0.020 A 
ATOM      2  C   UNL     1       1.213  -1.135   4.149  0.00  0.00    +0.122 A 
ATOM      3  C   UNL     1       0.503  -0.641   5.241  0.00  0.00    +0.046 A 
ATOM      4  C   UNL     1      -0.545  -1.347   5.761  0.00  0.00    +0.019 A 
ATOM      5  C   UNL     1      -0.904  -2.570   5.193  0.00  0.00    +0.068 A 
ATOM      6  C   UNL     1      -0.197  -3.074   4.087  0.00  0.00    +0.144 A 
ATOM      7  O   UNL     1      -0.557  -4.255   3.544  0.00  0.00    -0.447 OA
ATOM      8  C   UNL     1      -1.579  -4.980   4.015  0.00  0.00    +0.254 A 
ATOM      9  C   UNL     1      -2.328  -4.588   5.066  0.00  0.00    +0.222 A 
ATOM     10  C   UNL     1      -2.027  -3.362   5.724  0.00  0.00    +0.235 A 
ATOM     11  O   UNL     1      -2.682  -2.976   6.678  0.00  0.00    -0.283 OA
ENDROOT
BRANCH   8  12
ATOM     12  C   UNL     1      -1.907  -6.288   3.343  0.00  0.00    +0.454 C 
ATOM     13  F   UNL     1      -2.910  -6.945   4.064  0.00  0.00    -0.163 F 
ATOM     14  F   UNL     1      -2.355  -6.043   2.040  0.00  0.00    -0.163 F 
ATOM     15  F   UNL     1      -0.762  -7.090   3.299  0.00  0.00    -0.163 F 
ENDBRANCH   8  12
BRANCH   2  16
ATOM     16  O   UNL     1       2.252  -0.423   3.644  0.00  0.00    -0.506 OA
ATOM     17  H   UNL     1       2.000   0.201   2.949  0.00  0.00    +0.292 HD
ENDBRANCH   2  16
BRANCH   1  18
ATOM     18  C   UNL     1       1.644  -2.873   2.394  0.00  0.00    -0.036 C 
BRANCH  18  24
ATOM     19  C   UNL     1       0.583   1.121  -0.230  0.00  0.00    +0.005 C 
ATOM     20  C   UNL     1       0.451  -0.402  -0.166  0.00  0.00    -0.031 C 
ATOM     21  C   UNL     1       1.099  -1.024  -1.406  0.00  0.00    +0.003 C 
ATOM     22  C   UNL     1       1.030  -2.550  -1.294  0.00  0.00    -0.031 C 
ATOM     23  C   UNL     1       1.715  -2.992   0.001  0.00  0.00    -0.075 C 
ATOM     24  N   UNL     1       1.033  -2.385   1.151  0.00  0.00    +0.383 N 
ATOM     25  C   UNL     1       1.155  -0.923   1.089  0.00  0.00    -0.075 C 
ATOM     26  C   UNL     1      -0.433  -2.996  -1.278  0.00  0.00    +0.005 C 
ATOM     27  H   UNL     1       0.057  -2.640   1.135  0.00  0.00    -0.081 HD
ENDBRANCH  18  24
ENDBRANCH   1  18
BRANCH   9  28
ATOM     28  O   UNL     1      -3.357  -5.365   5.502  0.00  0.00    -0.448 OA
BRANCH  28  29
ATOM     29  C   UNL     1      -4.619  -4.889   5.360  0.00  0.00    +0.129 A 
ATOM     30  C   UNL     1      -4.838  -3.698   4.678  0.00  0.00    +0.047 A 
ATOM     31  C   UNL     1      -6.118  -3.211   4.532  0.00  0.00    +0.018 A 
ATOM     32  C   UNL     1      -7.197  -3.916   5.072  0.00  0.00    +0.059 A 
ATOM     33  C   UNL     1      -6.973  -5.114   5.758  0.00  0.00    +0.018 A 
ATOM     34  C   UNL     1      -5.691  -5.596   5.894  0.00  0.00    +0.047 A 
BRANCH  32  35
ATOM     35  C   UNL     1      -8.570  -3.398   4.919  0.00  0.00    +0.339 C 
ATOM     36  O   UNL     1      -8.763  -2.357   4.323  0.00  0.00    -0.245 OA
BRANCH  35  37
ATOM     37  O   UNL     1      -9.609  -4.079   5.440  0.00  0.00    -0.464 OA
ATOM     38  C   UNL     1     -10.910  -3.519   5.254  0.00  0.00    +0.280 C 
ENDBRANCH  35  37
ENDBRANCH  32  35
ENDBRANCH  28  29
ENDBRANCH   9  28
TORSDOF 8
