REMARK  Name = ZINC04517612
REMARK  11 active torsions:
REMARK  status: ('A' for Active; 'I' for Inactive)
REMARK    1  A    between atoms: C_1  and  C_2
REMARK    2  A    between atoms: C_2  and  C_3
REMARK    3  A    between atoms: C_3  and  C_4
REMARK    4  A    between atoms: C_4  and  C_5
REMARK    5  A    between atoms: C_5  and  O_6
REMARK    6  A    between atoms: O_6  and  C_7
REMARK    7  A    between atoms: C_10  and  C_13
REMARK    8  A    between atoms: C_14  and  N_21
REMARK    9  A    between atoms: N_21  and  N_22
REMARK   10  A    between atoms: C_23  and  C_24
REMARK   11  A    between atoms: C_29  and  O_30
REMARK                            x       y       z     vdW  Elec       q    Type
REMARK                         _______ _______ _______ _____ _____    ______ ____
ROOT
ATOM      1  C   UNL     1      -7.787  -6.649   0.032  0.00  0.00    +0.114 A 
ATOM      2  C   UNL     1      -8.101  -7.620   1.083  0.00  0.00    +0.081 A 
ATOM      3  C   UNL     1      -9.339  -8.235   1.073  0.00  0.00    +0.098 A 
ATOM      4  C   UNL     1     -10.252  -7.912   0.060  0.00  0.00    +0.267 A 
ATOM      5  O   UNL     1     -11.350  -8.447   0.039  0.00  0.00    -0.266 OA
ATOM      6  N   UNL     1      -9.927  -7.015  -0.888  0.00  0.00    -0.243 N 
ATOM      7  H   UNL     1     -10.571  -6.802  -1.582  0.00  0.00    +0.192 HD
ATOM      8  N   UNL     1      -8.682  -6.380  -0.890  0.00  0.00    -0.169 NA
ENDROOT
BRANCH   1  12
ATOM      9  C   UNL     1      -4.006  -4.703  -0.022  0.00  0.00    +0.121 A 
ATOM     10  C   UNL     1      -5.151  -4.003  -0.381  0.00  0.00    +0.046 A 
ATOM     11  C   UNL     1      -6.378  -4.632  -0.365  0.00  0.00    +0.014 A 
ATOM     12  C   UNL     1      -6.469  -5.971   0.013  0.00  0.00    +0.004 A 
ATOM     13  C   UNL     1      -5.318  -6.670   0.373  0.00  0.00    +0.014 A 
ATOM     14  C   UNL     1      -4.093  -6.038   0.350  0.00  0.00    +0.046 A 
BRANCH   9  15
ATOM     15  O   UNL     1      -2.799  -4.081  -0.039  0.00  0.00    -0.492 OA
BRANCH  15  16
ATOM     16  C   UNL     1      -2.782  -2.707  -0.431  0.00  0.00    +0.229 C 
BRANCH  16  17
ATOM     17  C   UNL     1      -1.345  -2.182  -0.389  0.00  0.00    +0.041 C 
BRANCH  17  18
ATOM     18  C   UNL     1      -1.327  -0.711  -0.809  0.00  0.00    +0.003 C 
BRANCH  18  20
ATOM     19  C   UNL     1       0.127   1.285  -1.187  0.00  0.00    +0.004 C 
ATOM     20  C   UNL     1       0.109  -0.186  -0.768  0.00  0.00    -0.003 C 
ENDBRANCH  18  20
ENDBRANCH  17  18
ENDBRANCH  16  17
ENDBRANCH  15  16
ENDBRANCH   9  15
ENDBRANCH   1  12
BRANCH   2  21
ATOM     21  N   UNL     1      -7.177  -7.916   2.067  0.00  0.00    -0.235 N 
ATOM     22  H   UNL     1      -6.345  -7.420   2.115  0.00  0.00    +0.174 HD
BRANCH  21  23
ATOM     23  N   UNL     1      -7.442  -8.932   2.994  0.00  0.00    -0.190 NA
ATOM     24  C   UNL     1      -6.574  -9.210   3.919  0.00  0.00    +0.141 C 
BRANCH  24  25
ATOM     25  C   UNL     1      -6.853 -10.278   4.895  0.00  0.00    +0.037 A 
ATOM     26  C   UNL     1      -5.923 -10.577   5.894  0.00  0.00    +0.033 A 
ATOM     27  C   UNL     1      -6.191 -11.578   6.805  0.00  0.00    +0.042 A 
ATOM     28  C   UNL     1      -7.378 -12.289   6.732  0.00  0.00    +0.023 A 
ATOM     29  C   UNL     1      -8.305 -12.003   5.747  0.00  0.00    +0.047 A 
ATOM     30  C   UNL     1      -8.054 -10.997   4.829  0.00  0.00    +0.126 A 
ATOM     31 CL   UNL     1      -5.036 -11.949   8.046  0.00  0.00    -0.084 Cl
BRANCH  30  32
ATOM     32  O   UNL     1      -8.967 -10.712   3.864  0.00  0.00    -0.506 OA
ATOM     33  H   UNL     1      -8.849 -11.219   3.049  0.00  0.00    +0.292 HD
ENDBRANCH  30  32
ENDBRANCH  24  25
ENDBRANCH  21  23
ENDBRANCH   2  21
TORSDOF 10
