REMARK  Name = ZINC34831965
REMARK  6 active torsions:
REMARK  status: ('A' for Active; 'I' for Inactive)
REMARK    1  A    between atoms: C_1  and  C_2
REMARK    2  A    between atoms: C_5  and  C_34
REMARK    3  A    between atoms: C_6  and  N_8
REMARK    4  A    between atoms: C_14  and  C_16
REMARK    5  A    between atoms: C_26  and  C_28
REMARK    6  A    between atoms: C_28  and  C_29
REMARK                            x       y       z     vdW  Elec       q    Type
REMARK                         _______ _______ _______ _____ _____    ______ ____
ROOT
ATOM      1  C   UNL     1      -1.191  -3.994   6.974  0.00  0.00    +0.152 A 
ATOM      2  C   UNL     1      -1.334  -4.598   8.233  0.00  0.00    +0.023 A 
ATOM      3  C   UNL     1      -2.667  -4.669   8.467  0.00  0.00    +0.043 A 
ATOM      4  N   UNL     1      -3.284  -4.136   7.398  0.00  0.00    -0.280 N 
ATOM      5  H   UNL     1      -4.245  -4.058   7.292  0.00  0.00    +0.189 HD
ATOM      6  N   UNL     1      -2.412  -3.739   6.536  0.00  0.00    -0.169 NA
ATOM      7  C   UNL     1      -3.280  -5.244   9.717  0.00  0.00    +0.074 C 
ATOM      8  C   UNL     1      -2.232  -6.112  10.426  0.00  0.00    +0.114 C 
ATOM      9  N   UNL     1      -0.950  -5.394  10.462  0.00  0.00    -0.296 N 
ATOM     10  C   UNL     1      -0.278  -5.096   9.183  0.00  0.00    +0.147 C 
ATOM     11  C   UNL     1      -0.402  -5.017  11.634  0.00  0.00    +0.221 C 
ATOM     12  O   UNL     1       0.657  -4.425  11.646  0.00  0.00    -0.275 OA
ENDROOT
BRANCH   1  19
ATOM     13  N   UNL     1       0.191  -3.478   2.295  0.00  0.00    -0.327 N 
ATOM     14  C   UNL     1       1.454  -3.562   3.042  0.00  0.00    +0.124 C 
ATOM     15  C   UNL     1       1.298  -2.790   4.358  0.00  0.00    +0.127 C 
ATOM     16  N   UNL     1       0.057  -3.225   5.014  0.00  0.00    -0.293 N 
ATOM     17  C   UNL     1      -1.206  -3.142   4.267  0.00  0.00    +0.127 C 
ATOM     18  C   UNL     1      -1.051  -3.909   2.953  0.00  0.00    +0.124 C 
ATOM     19  C   UNL     1       0.077  -3.694   6.277  0.00  0.00    +0.267 C 
ATOM     20  O   UNL     1       1.138  -3.870   6.844  0.00  0.00    -0.268 OA
BRANCH  13  26
ATOM     21  C   UNL     1      -0.218   0.314  -0.804  0.00  0.00    +0.044 C 
ATOM     22  C   UNL     1      -0.026  -1.159  -0.546  0.00  0.00    -0.049 A 
ATOM     23  C   UNL     1       0.130  -2.031  -1.608  0.00  0.00    +0.004 A 
ATOM     24  C   UNL     1       0.305  -3.383  -1.377  0.00  0.00    +0.005 A 
ATOM     25  C   UNL     1       0.326  -3.866  -0.083  0.00  0.00    -0.029 A 
ATOM     26  C   UNL     1       0.170  -2.993   0.986  0.00  0.00    +0.033 A 
ATOM     27  C   UNL     1      -0.001  -1.635   0.750  0.00  0.00    +0.026 A 
ATOM     28  C   UNL     1       0.518  -5.340   0.169  0.00  0.00    +0.045 C 
ENDBRANCH  13  26
ENDBRANCH   1  19
BRANCH  11  29
ATOM     29  C   UNL     1      -1.105  -5.330  12.930  0.00  0.00    +0.138 C 
BRANCH  29  30
ATOM     30  C   UNL     1      -0.290  -4.805  14.083  0.00  0.00    -0.001 A 
ATOM     31  C   UNL     1      -0.344  -3.591  14.684  0.00  0.00    +0.011 A 
ATOM     32  C   UNL     1       0.509  -3.326  15.739  0.00  0.00    +0.008 A 
ATOM     33  C   UNL     1       1.376  -4.288  16.141  0.00  0.00    +0.045 A 
ATOM     34  S   UNL     1       0.993  -5.622  15.018  0.00  0.00    -0.101 S 
ENDBRANCH  29  30
ENDBRANCH  11  29
TORSDOF 4
