REMARK  Name = ZINC59167494
REMARK  10 active torsions:
REMARK  status: ('A' for Active; 'I' for Inactive)
REMARK    1  A    between atoms: C_4  and  C_7
REMARK    2  A    between atoms: C_7  and  N_8
REMARK    3  A    between atoms: N_8  and  C_9
REMARK    4  A    between atoms: N_8  and  C_16
REMARK    5  A    between atoms: C_9  and  C_10
REMARK    6  A    between atoms: C_16  and  C_17
REMARK    7  A    between atoms: N_19  and  N_20
REMARK    8  A    between atoms: C_21  and  C_22
REMARK    9  A    between atoms: C_25  and  C_27
REMARK   10  A    between atoms: C_30  and  N_33
REMARK                            x       y       z     vdW  Elec       q    Type
REMARK                         _______ _______ _______ _____ _____    ______ ____
ROOT
ATOM      1  C   UNL     1       5.654  -1.608   2.873  0.00  0.00    +0.216 C 
ATOM      2  O   UNL     1       4.945  -1.415   3.833  0.00  0.00    -0.276 OA
ATOM      3  N   UNL     1       6.899  -2.094   3.042  0.00  0.00    -0.208 N 
ATOM      4  H   UNL     1       7.468  -2.249   2.272  0.00  0.00    +0.177 HD
ENDROOT
BRANCH   3   5
ATOM      5  N   UNL     1       7.335  -2.354   4.228  0.00  0.00    -0.185 NA
ATOM      6  C   UNL     1       8.562  -2.833   4.394  0.00  0.00    +0.176 C 
BRANCH   6   7
ATOM      7  C   UNL     1       9.031  -3.112   5.671  0.00  0.00    +0.148 A 
ATOM      8  C   UNL     1      10.362  -3.638   6.015  0.00  0.00    +0.051 A 
ATOM      9  C   UNL     1      10.387  -3.757   7.367  0.00  0.00    +0.050 A 
ATOM     10  C   UNL     1       9.129  -3.325   7.857  0.00  0.00    +0.136 A 
ATOM     11  O   UNL     1       8.353  -2.946   6.827  0.00  0.00    -0.454 OA
BRANCH  10  12
ATOM     12  C   UNL     1       8.749  -3.295   9.222  0.00  0.00    +0.017 A 
ATOM     13  C   UNL     1       9.654  -3.708  10.219  0.00  0.00    +0.014 A 
ATOM     14  C   UNL     1       9.278  -3.674  11.532  0.00  0.00    +0.033 A 
ATOM     15  C   UNL     1       8.010  -3.234  11.884  0.00  0.00    +0.126 A 
ATOM     16  C   UNL     1       7.111  -2.824  10.910  0.00  0.00    +0.033 A 
ATOM     17  C   UNL     1       7.468  -2.845   9.592  0.00  0.00    +0.014 A 
BRANCH  15  18
ATOM     18  N   UNL     1       7.614  -3.202  13.310  0.00  0.00    +0.056 N 
ATOM     19  O   UNL     1       8.463  -3.590  14.239  0.00  0.00    -0.126 OA
ATOM     20  O   UNL     1       6.412  -2.785  13.650  0.00  0.00    -0.126 OA
ENDBRANCH  15  18
ENDBRANCH  10  12
ENDBRANCH   6   7
ENDBRANCH   3   5
BRANCH   1  21
ATOM     21  C   UNL     1       5.144  -1.305   1.488  0.00  0.00    +0.021 C 
BRANCH  21  22
ATOM     22  N   UNL     1       3.721  -0.950   1.556  0.00  0.00    +0.391 N 
ATOM     23  H   UNL     1       3.547  -0.417   2.396  0.00  0.00    -0.080 HD
BRANCH  22  24
ATOM     24  C   UNL     1       3.360  -0.144   0.382  0.00  0.00    -0.042 C 
BRANCH  24  28
ATOM     25  C   UNL     1      -0.685   1.181   0.750  0.00  0.00    +0.000 A 
ATOM     26  C   UNL     1       0.344   1.954   1.254  0.00  0.00    +0.000 A 
ATOM     27  C   UNL     1       1.653   1.525   1.135  0.00  0.00    +0.002 A 
ATOM     28  C   UNL     1       1.933   0.323   0.512  0.00  0.00    -0.064 A 
ATOM     29  C   UNL     1       0.904  -0.451   0.009  0.00  0.00    +0.002 A 
ATOM     30  C   UNL     1      -0.405  -0.021   0.127  0.00  0.00    +0.000 A 
ENDBRANCH  24  28
ENDBRANCH  22  24
BRANCH  22  31
ATOM     31  C   UNL     1       2.911  -2.175   1.577  0.00  0.00    -0.042 C 
BRANCH  31  32
ATOM     32  C   UNL     1       3.169  -2.926   2.858  0.00  0.00    -0.064 A 
ATOM     33  C   UNL     1       4.096  -3.951   2.883  0.00  0.00    +0.002 A 
ATOM     34  C   UNL     1       4.333  -4.640   4.058  0.00  0.00    +0.000 A 
ATOM     35  C   UNL     1       3.643  -4.304   5.207  0.00  0.00    +0.000 A 
ATOM     36  C   UNL     1       2.716  -3.278   5.182  0.00  0.00    +0.000 A 
ATOM     37  C   UNL     1       2.482  -2.587   4.008  0.00  0.00    +0.002 A 
ENDBRANCH  31  32
ENDBRANCH  22  31
ENDBRANCH  21  22
ENDBRANCH   1  21
TORSDOF 10
