REMARK  Name = ZINC36579465
REMARK  16 active torsions:
REMARK  status: ('A' for Active; 'I' for Inactive)
REMARK    1  A    between atoms: C_1  and  C_2
REMARK    2  A    between atoms: C_2  and  C_3
REMARK    3  A    between atoms: C_3  and  C_4
REMARK    4  A    between atoms: C_4  and  N_5
REMARK    5  A    between atoms: C_6  and  C_8
REMARK    6  A    between atoms: C_8  and  C_10
REMARK    7  A    between atoms: C_8  and  N_17
REMARK    8  A    between atoms: C_15  and  O_16
REMARK    9  A    between atoms: N_17  and  C_36
REMARK   10  A    between atoms: C_18  and  C_20
REMARK   11  A    between atoms: C_26  and  O_28
REMARK   12  A    between atoms: O_28  and  C_29
REMARK   13  A    between atoms: C_29  and  C_30
REMARK   14  A    between atoms: C_36  and  C_37
REMARK   15  A    between atoms: C_36  and  C_38
REMARK   16  A    between atoms: C_36  and  C_39
REMARK                            x       y       z     vdW  Elec       q    Type
REMARK                         _______ _______ _______ _____ _____    ______ ____
ROOT
ATOM      1  N   UNL     1       1.643  -5.283  -4.065  0.00  0.00    -0.279 N 
ATOM      2  C   UNL     1       2.768  -5.888  -3.635  0.00  0.00    +0.238 C 
ATOM      3  O   UNL     1       3.616  -5.246  -3.052  0.00  0.00    -0.274 OA
ENDROOT
BRANCH   2   4
ATOM      4  C   UNL     1       2.972  -7.361  -3.878  0.00  0.00    +0.165 C 
ATOM      5  C   UNL     1       2.416  -8.171  -2.688  0.00  0.00    +0.033 C 
ATOM      6  C   UNL     1       3.453  -9.315  -2.531  0.00  0.00    +0.021 C 
ATOM      7  C   UNL     1       4.773  -8.589  -2.891  0.00  0.00    +0.112 C 
ATOM      8  N   UNL     1       4.408  -7.657  -3.979  0.00  0.00    -0.256 N 
ATOM      9  C   UNL     1       5.250  -7.161  -4.907  0.00  0.00    +0.404 C 
ATOM     10  O   UNL     1       4.834  -6.399  -5.758  0.00  0.00    -0.226 OA
BRANCH   9  11
ATOM     11  O   UNL     1       6.550  -7.510  -4.893  0.00  0.00    -0.445 OA
BRANCH  11  12
ATOM     12  C   UNL     1       7.384  -6.946  -5.907  0.00  0.00    +0.269 C 
BRANCH  12  13
ATOM     13  C   UNL     1       8.795  -7.447  -5.733  0.00  0.00    -0.010 A 
ATOM     14  C   UNL     1       9.681  -6.751  -4.933  0.00  0.00    +0.007 A 
ATOM     15  C   UNL     1      10.975  -7.210  -4.773  0.00  0.00    +0.000 A 
ATOM     16  C   UNL     1      11.383  -8.366  -5.413  0.00  0.00    +0.000 A 
ATOM     17  C   UNL     1      10.495  -9.063  -6.212  0.00  0.00    +0.000 A 
ATOM     18  C   UNL     1       9.200  -8.606  -6.368  0.00  0.00    +0.007 A 
ENDBRANCH  12  13
ENDBRANCH  11  12
ENDBRANCH   9  11
ENDBRANCH   2   4
BRANCH   1  19
ATOM     19  C   UNL     1       0.652  -6.041  -4.835  0.00  0.00    +0.030 C 
ATOM     20  C   UNL     1       1.202  -6.324  -6.234  0.00  0.00    +0.031 C 
ATOM     21  C   UNL     1       0.359  -7.364  -4.125  0.00  0.00    +0.031 C 
ATOM     22  C   UNL     1      -0.637  -5.225  -4.948  0.00  0.00    +0.031 C 
ENDBRANCH   1  19
BRANCH   1  23
ATOM     23  C   UNL     1       1.410  -3.869  -3.764  0.00  0.00    +0.196 C 
BRANCH  23  24
ATOM     24  C   UNL     1       1.354  -3.676  -2.270  0.00  0.00    +0.023 A 
ATOM     25  C   UNL     1       2.050  -4.530  -1.436  0.00  0.00    +0.009 A 
ATOM     26  C   UNL     1       1.999  -4.354  -0.066  0.00  0.00    +0.001 A 
ATOM     27  C   UNL     1       1.252  -3.324   0.474  0.00  0.00    +0.004 A 
ATOM     28  C   UNL     1       0.555  -2.467  -0.355  0.00  0.00    +0.046 A 
ATOM     29  C   UNL     1       0.609  -2.638  -1.731  0.00  0.00    +0.122 A 
BRANCH  29  30
ATOM     30  O   UNL     1      -0.071  -1.792  -2.550  0.00  0.00    -0.506 OA
ATOM     31  H   UNL     1      -0.975  -2.077  -2.745  0.00  0.00    +0.292 HD
ENDBRANCH  29  30
ENDBRANCH  23  24
BRANCH  23  33
ATOM     32  N   UNL     1       2.475  -1.696  -4.280  0.00  0.00    -0.313 N 
ATOM     33  C   UNL     1       2.533  -3.042  -4.335  0.00  0.00    +0.238 C 
ATOM     34  O   UNL     1       3.489  -3.587  -4.845  0.00  0.00    -0.273 OA
ATOM     35  H   UNL     1       1.710  -1.260  -3.872  0.00  0.00    +0.149 HD
BRANCH  32  36
ATOM     36  C   UNL     1       3.567  -0.893  -4.836  0.00  0.00    +0.104 C 
BRANCH  36  37
ATOM     37  C   UNL     1       3.254   0.593  -4.645  0.00  0.00    +0.018 C 
BRANCH  37  39
ATOM     38  C   UNL     1       4.082   2.918  -5.035  0.00  0.00    +0.004 C 
ATOM     39  C   UNL     1       4.394   1.432  -5.225  0.00  0.00    -0.002 C 
ENDBRANCH  37  39
ENDBRANCH  36  37
ENDBRANCH  32  36
ENDBRANCH  23  33
ENDBRANCH   1  23
TORSDOF 12
