REMARK  Name = ZINC04334946
REMARK  5 active torsions:
REMARK  status: ('A' for Active; 'I' for Inactive)
REMARK    1  A    between atoms: C_2  and  C_3
REMARK    2  A    between atoms: C_3  and  N_4
REMARK    3  A    between atoms: N_4  and  C_5
REMARK    4  A    between atoms: C_5  and  N_7
REMARK    5  A    between atoms: C_8  and  C_22
REMARK                            x       y       z     vdW  Elec       q    Type
REMARK                         _______ _______ _______ _____ _____    ______ ____
ROOT
ATOM      1  N   UNL     1      -2.409  -3.349  -2.367  0.00  0.00    -0.196 N 
ATOM      2  C   UNL     1      -3.511  -4.270  -2.701  0.00  0.00    +0.140 C 
ATOM      3  C   UNL     1      -2.937  -5.110  -3.845  0.00  0.00    +0.067 C 
ATOM      4  C   UNL     1      -3.796  -5.050  -5.109  0.00  0.00    +0.016 C 
ATOM      5  C   UNL     1      -3.097  -5.819  -6.228  0.00  0.00    +0.036 C 
ATOM      6  C   UNL     1      -1.670  -5.400  -6.439  0.00  0.00    -0.038 A 
ATOM      7  C   UNL     1      -1.049  -5.693  -7.641  0.00  0.00    +0.004 A 
ATOM      8  C   UNL     1       0.266  -5.329  -7.856  0.00  0.00    +0.000 A 
ATOM      9  C   UNL     1       0.987  -4.668  -6.877  0.00  0.00    +0.001 A 
ATOM     10  C   UNL     1       0.386  -4.363  -5.672  0.00  0.00    +0.010 A 
ATOM     11  C   UNL     1      -0.939  -4.722  -5.457  0.00  0.00    +0.001 A 
ATOM     12  C   UNL     1      -1.628  -4.404  -4.185  0.00  0.00    +0.072 C 
ATOM     13  N   UNL     1      -1.395  -3.498  -3.316  0.00  0.00    -0.181 NA
ENDROOT
BRANCH   2  14
ATOM     14  C   UNL     1      -4.725  -3.502  -3.158  0.00  0.00    -0.006 A 
ATOM     15  C   UNL     1      -4.582  -2.232  -3.684  0.00  0.00    +0.007 A 
ATOM     16  C   UNL     1      -5.694  -1.528  -4.104  0.00  0.00    +0.000 A 
ATOM     17  C   UNL     1      -6.952  -2.093  -3.997  0.00  0.00    +0.001 A 
ATOM     18  C   UNL     1      -7.096  -3.362  -3.470  0.00  0.00    +0.020 A 
ATOM     19  C   UNL     1      -5.982  -4.070  -3.056  0.00  0.00    +0.046 A 
ATOM     20 CL   UNL     1      -6.162  -5.668  -2.401  0.00  0.00    -0.083 Cl
ENDBRANCH   2  14
BRANCH   1  21
ATOM     21  C   UNL     1      -2.386  -2.498  -1.322  0.00  0.00    +0.153 C 
ATOM     22  S   UNL     1      -3.713  -2.432  -0.243  0.00  0.00    -0.017 S 
BRANCH  21  23
ATOM     23  N   UNL     1      -1.318  -1.700  -1.126  0.00  0.00    -0.322 N 
ATOM     24  H   UNL     1      -0.566  -1.737  -1.737  0.00  0.00    +0.148 HD
BRANCH  23  25
ATOM     25  C   UNL     1      -1.293  -0.775   0.010  0.00  0.00    +0.130 C 
BRANCH  25  27
ATOM     26  C   UNL     1      -0.016   1.306   0.009  0.00  0.00    +0.005 C 
ATOM     27  C   UNL     1       0.002  -0.004   0.002  0.00  0.00    -0.016 C 
ENDBRANCH  25  27
ENDBRANCH  23  25
ENDBRANCH  21  23
ENDBRANCH   1  21
TORSDOF 5
