REMARK  Name = ZINC20357013
REMARK  11 active torsions:
REMARK  status: ('A' for Active; 'I' for Inactive)
REMARK    1  A    between atoms: C_1  and  C_2
REMARK    2  A    between atoms: C_5  and  N_9
REMARK    3  A    between atoms: C_6  and  C_8
REMARK    4  A    between atoms: C_10  and  C_12
REMARK    5  A    between atoms: C_12  and  C_13
REMARK    6  A    between atoms: C_13  and  C_14
REMARK    7  A    between atoms: N_16  and  N_17
REMARK    8  A    between atoms: C_18  and  C_19
REMARK    9  A    between atoms: C_21  and  O_28
REMARK   10  A    between atoms: C_22  and  O_26
REMARK   11  A    between atoms: O_26  and  C_27
REMARK                            x       y       z     vdW  Elec       q    Type
REMARK                         _______ _______ _______ _____ _____    ______ ____
ROOT
ATOM      1  C   UNL     1       3.751   1.774  -0.053  0.00  0.00    +0.233 C 
ATOM      2  O   UNL     1       3.734   2.987  -0.053  0.00  0.00    -0.274 OA
ATOM      3  N   UNL     1       4.927   1.116  -0.071  0.00  0.00    -0.207 N 
ATOM      4  H   UNL     1       4.942   0.016  -0.071  0.00  0.00    +0.177 HD
ENDROOT
BRANCH   3   5
ATOM      5  N   UNL     1       6.131   1.833  -0.089  0.00  0.00    -0.188 NA
ATOM      6  C   UNL     1       7.263   1.200  -0.107  0.00  0.00    +0.138 C 
BRANCH   6   7
ATOM      7  C   UNL     1       8.530   1.955  -0.126  0.00  0.00    -0.001 A 
ATOM      8  C   UNL     1       9.750   1.274  -0.139  0.00  0.00    +0.058 A 
ATOM      9  C   UNL     1      10.935   1.986  -0.163  0.00  0.00    +0.160 A 
ATOM     10  C   UNL     1      10.911   3.380  -0.163  0.00  0.00    +0.175 A 
ATOM     11  C   UNL     1       9.699   4.056  -0.144  0.00  0.00    +0.064 A 
ATOM     12  C   UNL     1       8.512   3.351  -0.126  0.00  0.00    +0.028 A 
ATOM     13 BR   UNL     1       9.674   5.947  -0.144  0.00  0.00    -0.046 Br
BRANCH  10  14
ATOM     14  O   UNL     1      12.077   4.078  -0.181  0.00  0.00    -0.490 OA
ATOM     15  C   UNL     1      12.653   4.412   1.084  0.00  0.00    +0.277 C 
ENDBRANCH  10  14
BRANCH   9  16
ATOM     16  O   UNL     1      12.124   1.327  -0.182  0.00  0.00    -0.503 OA
ATOM     17  H   UNL     1      13.067   1.894  -0.201  0.00  0.00    +0.292 HD
ENDBRANCH   9  16
ENDBRANCH   6   7
ENDBRANCH   3   5
BRANCH   1  18
ATOM     18  C   UNL     1       2.457   1.002  -0.033  0.00  0.00    +0.107 C 
BRANCH  18  19
ATOM     19  C   UNL     1       1.280   1.980  -0.015  0.00  0.00    +0.105 C 
BRANCH  19  21
ATOM     20  N   UNL     1      -1.191   1.867   0.018  0.00  0.00    -0.285 N 
ATOM     21  C   UNL     1      -0.014   1.209   0.005  0.00  0.00    +0.218 C 
ATOM     22  O   UNL     1       0.003  -0.004   0.005  0.00  0.00    -0.275 OA
ATOM     23  H   UNL     1      -1.207   2.963   0.109  0.00  0.00    +0.155 HD
BRANCH  20  28
ATOM     24  C   UNL     1      -6.057  -1.018  -0.402  0.00  0.00    +0.044 C 
ATOM     25  C   UNL     1      -4.765  -0.252  -0.291  0.00  0.00    -0.050 A 
ATOM     26  C   UNL     1      -3.597  -0.791  -0.800  0.00  0.00    +0.005 A 
ATOM     27  C   UNL     1      -2.411  -0.091  -0.699  0.00  0.00    +0.024 A 
ATOM     28  C   UNL     1      -2.391   1.155  -0.086  0.00  0.00    +0.036 A 
ATOM     29  C   UNL     1      -3.564   1.691   0.428  0.00  0.00    -0.029 A 
ATOM     30  C   UNL     1      -4.748   0.989   0.320  0.00  0.00    +0.008 A 
ATOM     31  C   UNL     1      -3.546   3.040   1.100  0.00  0.00    +0.045 C 
ENDBRANCH  20  28
ENDBRANCH  19  21
ENDBRANCH  18  19
ENDBRANCH   1  18
TORSDOF 8
