REMARK  Name = ZINC13498735
REMARK  11 active torsions:
REMARK  status: ('A' for Active; 'I' for Inactive)
REMARK    1  A    between atoms: C_1  and  C_2
REMARK    2  A    between atoms: C_2  and  C_3
REMARK    3  A    between atoms: C_2  and  C_4
REMARK    4  A    between atoms: C_4  and  C_6
REMARK    5  A    between atoms: C_4  and  N_76
REMARK    6  A    between atoms: N_10  and  C_11
REMARK    7  A    between atoms: C_17  and  C_18
REMARK    8  A    between atoms: C_17  and  N_76
REMARK    9  A    between atoms: C_23  and  O_30
REMARK   10  A    between atoms: O_30  and  C_31
REMARK   11  A    between atoms: C_32  and  N_76
REMARK                            x       y       z     vdW  Elec       q    Type
REMARK                         _______ _______ _______ _____ _____    ______ ____
ROOT
ATOM      1  N   UNL     1      -3.468  10.066   2.410  0.00  0.00    +0.391 N 
ATOM      2  H   UNL     1      -4.413   9.767   2.677  0.00  0.00    -0.080 HD
ENDROOT
BRANCH   1   3
ATOM      3  C   UNL     1      -3.347  10.017   0.937  0.00  0.00    -0.067 C 
ATOM      4  C   UNL     1      -3.934  11.298   0.339  0.00  0.00    -0.015 C 
ATOM      5  C   UNL     1      -3.836  11.239  -1.187  0.00  0.00    -0.002 C 
ATOM      6  C   UNL     1      -4.619  10.030  -1.702  0.00  0.00    -0.000 C 
ATOM      7  C   UNL     1      -4.033   8.749  -1.103  0.00  0.00    -0.002 C 
ATOM      8  C   UNL     1      -4.131   8.808   0.422  0.00  0.00    -0.015 C 
ENDBRANCH   1   3
BRANCH   1   9
ATOM      9  C   UNL     1      -3.247  11.446   2.890  0.00  0.00    +0.006 C 
BRANCH   9  10
ATOM     10  C   UNL     1      -3.919  11.603   4.229  0.00  0.00    +0.139 A 
ATOM     11  N   UNL     1      -3.830  10.787   5.250  0.00  0.00    -0.115 NA
ATOM     12  N   UNL     1      -4.545  11.268   6.208  0.00  0.00    -0.023 NA
ATOM     13  N   UNL     1      -5.094  12.366   5.822  0.00  0.00    -0.044 NA
ATOM     14  N   UNL     1      -4.732  12.607   4.607  0.00  0.00    -0.228 N 
BRANCH  14  15
ATOM     15  C   UNL     1      -5.132  13.757   3.792  0.00  0.00    +0.111 C 
ATOM     16  C   UNL     1      -4.681  15.049   4.477  0.00  0.00    +0.027 C 
ATOM     17  C   UNL     1      -5.098  16.250   3.626  0.00  0.00    +0.002 C 
ATOM     18  C   UNL     1      -6.620  16.260   3.469  0.00  0.00    +0.000 C 
ATOM     19  C   UNL     1      -7.071  14.968   2.784  0.00  0.00    +0.002 C 
ATOM     20  C   UNL     1      -6.654  13.767   3.635  0.00  0.00    +0.027 C 
ENDBRANCH  14  15
ENDBRANCH   9  10
BRANCH   9  22
ATOM     21  C   UNL     1      -1.097  11.740   1.651  0.00  0.00    +0.006 C 
ATOM     22  C   UNL     1      -1.750  11.728   3.034  0.00  0.00    -0.024 C 
ATOM     23  C   UNL     1      -1.550  13.089   3.704  0.00  0.00    +0.006 C 
ENDBRANCH   9  22
ENDBRANCH   1   9
BRANCH   1  24
ATOM     24  C   UNL     1      -2.483   9.152   3.027  0.00  0.00    -0.036 C 
BRANCH  24  25
ATOM     25  C   UNL     1      -2.962   7.734   2.851  0.00  0.00    +0.001 A 
ATOM     26  C   UNL     1      -2.387   6.938   1.915  0.00  0.00    +0.017 A 
ATOM     27  C   UNL     1      -2.874   5.566   1.770  0.00  0.00    -0.001 A 
ATOM     28  C   UNL     1      -2.318   4.699   0.821  0.00  0.00    +0.013 A 
ATOM     29  C   UNL     1      -2.789   3.424   0.711  0.00  0.00    +0.046 A 
ATOM     30  C   UNL     1      -3.828   2.979   1.529  0.00  0.00    +0.122 A 
ATOM     31  C   UNL     1      -4.390   3.821   2.472  0.00  0.00    +0.072 A 
ATOM     32  C   UNL     1      -3.919   5.121   2.602  0.00  0.00    +0.053 A 
ATOM     33  N   UNL     1      -4.462   5.982   3.534  0.00  0.00    -0.322 N 
ATOM     34  H   UNL     1      -5.181   5.674   4.106  0.00  0.00    +0.169 HD
ATOM     35  C   UNL     1      -4.006   7.240   3.660  0.00  0.00    +0.251 A 
ATOM     36  O   UNL     1      -4.509   7.973   4.494  0.00  0.00    -0.268 OA
BRANCH  30  37
ATOM     37  O   UNL     1      -4.287   1.708   1.402  0.00  0.00    -0.495 OA
ATOM     38  C   UNL     1      -3.665   0.889   0.410  0.00  0.00    +0.277 C 
ENDBRANCH  30  37
ENDBRANCH  24  25
ENDBRANCH   1  24
TORSDOF 8
