REMARK  Name = ZINC22040039
REMARK  10 active torsions:
REMARK  status: ('A' for Active; 'I' for Inactive)
REMARK    1  A    between atoms: C_1  and  C_2
REMARK    2  A    between atoms: C_7  and  C_9
REMARK    3  A    between atoms: C_7  and  C_10
REMARK    4  A    between atoms: N_13  and  C_17
REMARK    5  A    between atoms: C_17  and  C_18
REMARK    6  A    between atoms: C_18  and  O_20
REMARK    7  A    between atoms: O_20  and  C_21
REMARK    8  A    between atoms: C_21  and  C_23
REMARK    9  A    between atoms: C_21  and  C_24
REMARK   10  A    between atoms: N_26  and  C_27
REMARK                            x       y       z     vdW  Elec       q    Type
REMARK                         _______ _______ _______ _____ _____    ______ ____
ROOT
ATOM      1  C   UNL     1      -4.276  -4.559  -2.864  0.00  0.00    +0.238 C 
ENDROOT
BRANCH   1  13
ATOM      2  C   UNL     1      -1.001   1.466  -1.070  0.00  0.00    +0.007 C 
ATOM      3  C   UNL     1      -0.844  -0.052  -0.965  0.00  0.00    -0.011 C 
ATOM      4  C   UNL     1      -2.210  -0.721  -1.141  0.00  0.00    +0.038 C 
ATOM      5  C   UNL     1      -2.057  -2.232  -1.015  0.00  0.00    +0.113 C 
ATOM      6  C   UNL     1      -1.470  -2.605   0.342  0.00  0.00    +0.041 C 
ATOM      7  C   UNL     1      -0.107  -1.929   0.512  0.00  0.00    -0.032 C 
ATOM      8  C   UNL     1      -0.274  -0.412   0.409  0.00  0.00    +0.009 C 
ATOM      9  C   UNL     1       0.472  -2.287   1.883  0.00  0.00    +0.011 C 
ATOM     10  C   UNL     1       0.843  -2.414  -0.585  0.00  0.00    +0.011 C 
ATOM     11  C   UNL     1      -3.389  -2.916  -1.220  0.00  0.00    +0.247 C 
ATOM     12  O   UNL     1      -4.392  -2.784  -0.552  0.00  0.00    -0.273 OA
ATOM     13  N   UNL     1      -3.227  -3.705  -2.303  0.00  0.00    -0.213 N 
ATOM     14  C   UNL     1      -1.988  -3.610  -2.800  0.00  0.00    +0.310 C 
ATOM     15  O   UNL     1      -1.602  -4.224  -3.775  0.00  0.00    -0.252 OA
ATOM     16  N   UNL     1      -1.217  -2.756  -2.100  0.00  0.00    -0.285 N 
ATOM     17  H   UNL     1      -0.290  -2.531  -2.277  0.00  0.00    +0.151 HD
ENDBRANCH   1  13
BRANCH   1  18
ATOM     18  C   UNL     1      -5.056  -3.785  -3.896  0.00  0.00    +0.326 C 
ATOM     19  O   UNL     1      -4.764  -2.638  -4.138  0.00  0.00    -0.249 OA
BRANCH  18  20
ATOM     20  O   UNL     1      -6.073  -4.370  -4.547  0.00  0.00    -0.451 OA
BRANCH  20  21
ATOM     21  C   UNL     1      -6.768  -3.578  -5.512  0.00  0.00    +0.259 C 
ATOM     22  C   UNL     1      -6.104  -3.742  -6.880  0.00  0.00    +0.062 C 
BRANCH  21  23
ATOM     23  C   UNL     1      -8.204  -4.029  -5.593  0.00  0.00    +0.258 C 
ATOM     24  O   UNL     1      -8.594  -4.939  -4.893  0.00  0.00    -0.271 OA
ATOM     25  N   UNL     1      -9.054  -3.420  -6.442  0.00  0.00    -0.281 N 
ATOM     26  H   UNL     1      -8.729  -2.735  -7.047  0.00  0.00    +0.155 HD
BRANCH  25  27
ATOM     27  C   UNL     1     -10.408  -3.777  -6.453  0.00  0.00    +0.052 A 
ATOM     28  C   UNL     1     -10.796  -5.047  -6.048  0.00  0.00    +0.026 A 
ATOM     29  C   UNL     1     -12.132  -5.397  -6.059  0.00  0.00    +0.022 A 
ATOM     30  C   UNL     1     -13.085  -4.484  -6.475  0.00  0.00    +0.042 A 
ATOM     31  C   UNL     1     -12.702  -3.217  -6.880  0.00  0.00    +0.041 A 
ATOM     32  C   UNL     1     -11.367  -2.860  -6.865  0.00  0.00    +0.064 A 
ATOM     33 CL   UNL     1     -10.888  -1.268  -7.366  0.00  0.00    -0.082 Cl
ATOM     34 CL   UNL     1     -14.763  -4.928  -6.489  0.00  0.00    -0.083 Cl
ENDBRANCH  25  27
ENDBRANCH  21  23
ENDBRANCH  20  21
ENDBRANCH  18  20
ENDBRANCH   1  18
TORSDOF 6
