REMARK  Name = ZINC24008354
REMARK  3 active torsions:
REMARK  status: ('A' for Active; 'I' for Inactive)
REMARK    1  A    between atoms: C_4  and  N_7
REMARK    2  A    between atoms: C_13  and  C_15
REMARK    3  A    between atoms: C_21  and  C_23
REMARK                            x       y       z     vdW  Elec       q    Type
REMARK                         _______ _______ _______ _____ _____    ______ ____
ROOT
ATOM      1  C   UNL     1       0.213   3.189   3.432  0.00  0.00    +0.162 C 
ATOM      2  C   UNL     1      -0.791   2.317   4.226  0.00  0.00    +0.033 C 
ATOM      3  C   UNL     1      -0.169   2.340   5.647  0.00  0.00    +0.021 C 
ATOM      4  C   UNL     1       0.414   3.766   5.746  0.00  0.00    +0.108 C 
ATOM      5  N   UNL     1       0.620   4.250   4.371  0.00  0.00    -0.289 N 
ATOM      6  C   UNL     1       1.098   5.462   4.027  0.00  0.00    +0.222 C 
ATOM      7  O   UNL     1       1.129   5.793   2.861  0.00  0.00    -0.275 OA
ENDROOT
BRANCH   6   8
ATOM      8  C   UNL     1       1.594   6.407   5.092  0.00  0.00    +0.048 C 
ATOM      9  C   UNL     1       2.765   5.764   5.838  0.00  0.00    +0.019 C 
ATOM     10  C   UNL     1       3.269   6.722   6.919  0.00  0.00    -0.009 C 
ATOM     11  C   UNL     1       3.733   8.027   6.268  0.00  0.00    +0.007 C 
ATOM     12  C   UNL     1       2.562   8.669   5.521  0.00  0.00    -0.009 C 
ATOM     13  C   UNL     1       2.059   7.711   4.441  0.00  0.00    +0.019 C 
ATOM     14  C   UNL     1       1.431   8.966   6.508  0.00  0.00    +0.007 C 
ATOM     15  C   UNL     1       0.966   7.662   7.159  0.00  0.00    -0.009 C 
ATOM     16  C   UNL     1       2.137   7.019   7.905  0.00  0.00    +0.007 C 
ATOM     17  C   UNL     1       0.463   6.704   6.078  0.00  0.00    +0.019 C 
ENDBRANCH   6   8
BRANCH   1  24
ATOM     18  N   UNL     1       0.332   2.207  -1.451  0.00  0.00    -0.327 N 
ATOM     19  C   UNL     1       1.075   1.770  -0.262  0.00  0.00    +0.124 C 
ATOM     20  C   UNL     1       0.140   1.774   0.952  0.00  0.00    +0.126 C 
ATOM     21  N   UNL     1      -0.479   3.104   1.059  0.00  0.00    -0.297 N 
ATOM     22  C   UNL     1      -1.126   3.670  -0.135  0.00  0.00    +0.126 C 
ATOM     23  C   UNL     1      -0.140   3.590  -1.305  0.00  0.00    +0.124 C 
ATOM     24  C   UNL     1      -0.454   3.787   2.221  0.00  0.00    +0.236 C 
ATOM     25  O   UNL     1      -0.969   4.883   2.292  0.00  0.00    -0.274 OA
BRANCH  18  29
ATOM     26  C   UNL     1       2.634   1.770  -4.893  0.00  0.00    +0.000 A 
ATOM     27  C   UNL     1       1.348   2.273  -4.982  0.00  0.00    +0.002 A 
ATOM     28  C   UNL     1       0.582   2.419  -3.842  0.00  0.00    +0.023 A 
ATOM     29  C   UNL     1       1.104   2.060  -2.606  0.00  0.00    +0.030 A 
ATOM     30  C   UNL     1       2.397   1.561  -2.519  0.00  0.00    +0.023 A 
ATOM     31  C   UNL     1       3.156   1.412  -3.664  0.00  0.00    +0.002 A 
ENDBRANCH  18  29
ENDBRANCH   1  24
TORSDOF 3
