REMARK  Name = ZINC35271290
REMARK  18 active torsions:
REMARK  status: ('A' for Active; 'I' for Inactive)
REMARK    1  A    between atoms: C_1  and  C_2
REMARK    2  A    between atoms: C_3  and  C_4
REMARK    3  A    between atoms: C_3  and  C_5
REMARK    4  A    between atoms: C_5  and  O_7
REMARK    5  A    between atoms: O_7  and  C_8
REMARK    6  A    between atoms: C_10  and  O_43
REMARK    7  A    between atoms: C_12  and  C_42
REMARK    8  A    between atoms: C_15  and  O_23
REMARK    9  A    between atoms: C_17  and  O_19
REMARK   10  A    between atoms: O_19  and  C_20
REMARK   11  A    between atoms: C_20  and  C_22
REMARK   12  A    between atoms: O_23  and  C_24
REMARK   13  A    between atoms: C_24  and  C_41
REMARK   14  A    between atoms: C_27  and  O_40
REMARK   15  A    between atoms: C_29  and  C_39
REMARK   16  A    between atoms: C_33  and  C_36
REMARK   17  A    between atoms: C_36  and  C_37
REMARK   18  A    between atoms: C_36  and  C_38
REMARK                            x       y       z     vdW  Elec       q    Type
REMARK                         _______ _______ _______ _____ _____    ______ ____
ROOT
ATOM      1  C   UNL     1       1.334   0.120   4.624  0.00  0.00    +0.253 C 
ATOM      2  C   UNL     1       2.658   0.694   4.109  0.00  0.00    +0.187 C 
ATOM      3  C   UNL     1       3.326   1.497   5.227  0.00  0.00    +0.151 C 
ATOM      4  O   UNL     1       3.525   0.655   6.364  0.00  0.00    -0.342 OA
ATOM      5  C   UNL     1       2.318   0.127   6.917  0.00  0.00    +0.296 C 
ATOM      6  C   UNL     1       1.607  -0.731   5.868  0.00  0.00    +0.275 C 
ATOM      7  C   UNL     1       4.677   2.024   4.739  0.00  0.00    +0.041 C 
ENDROOT
BRANCH   2   8
ATOM      8  O   UNL     1       2.405   1.547   2.991  0.00  0.00    -0.385 OA
ATOM      9  H   UNL     1       3.201   1.946   2.613  0.00  0.00    +0.210 HD
ENDBRANCH   2   8
BRANCH   1  10
ATOM     10  O   UNL     1       0.739  -0.693   3.610  0.00  0.00    -0.451 OA
BRANCH  10  11
ATOM     11  C   UNL     1      -0.102  -0.081   2.751  0.00  0.00    +0.335 C 
ATOM     12  O   UNL     1      -0.322   1.109   2.860  0.00  0.00    -0.245 OA
BRANCH  11  15
ATOM     13  C   UNL     1      -1.854   1.225   0.970  0.00  0.00    +0.036 C 
ATOM     14  C   UNL     1      -1.580  -0.251   0.835  0.00  0.00    -0.020 C 
ATOM     15  C   UNL     1      -0.750  -0.854   1.683  0.00  0.00    +0.029 C 
ATOM     16  C   UNL     1      -0.477  -2.330   1.548  0.00  0.00    +0.051 C 
ENDBRANCH  11  15
ENDBRANCH  10  11
ENDBRANCH   1  10
BRANCH   6  17
ATOM     17  O   UNL     1       2.438  -1.839   5.516  0.00  0.00    -0.453 OA
BRANCH  17  18
ATOM     18  C   UNL     1       2.289  -2.965   6.231  0.00  0.00    +0.304 C 
ATOM     19  O   UNL     1       1.479  -3.008   7.126  0.00  0.00    -0.251 OA
ATOM     20  C   UNL     1       3.131  -4.174   5.918  0.00  0.00    +0.136 C 
ENDBRANCH  17  18
ENDBRANCH   6  17
BRANCH   5  21
ATOM     21  O   UNL     1       2.628  -0.675   8.059  0.00  0.00    -0.341 OA
BRANCH  21  22
ATOM     22  C   UNL     1       3.087   0.072   9.187  0.00  0.00    +0.074 C 
ATOM     23  C   UNL     1       4.351   0.842   8.804  0.00  0.00    +0.037 C 
ATOM     24  C   UNL     1       5.426  -0.153   8.359  0.00  0.00    +0.035 C 
ATOM     25  C   UNL     1       5.746  -1.093   9.521  0.00  0.00    +0.121 C 
ATOM     26  C   UNL     1       4.490  -1.868   9.931  0.00  0.00    +0.003 C 
ATOM     27  C   UNL     1       3.387  -0.886  10.343  0.00  0.00    +0.033 C 
ATOM     28  C   UNL     1       2.112  -1.685  10.643  0.00  0.00    +0.037 C 
ATOM     29  C   UNL     1       2.413  -2.832  11.559  0.00  0.00    -0.070 C 
ATOM     30  C   UNL     1       3.602  -3.295  11.772  0.00  0.00    -0.027 C 
ATOM     31  C   UNL     1       4.843  -2.740  11.143  0.00  0.00    +0.036 C 
ATOM     32  C   UNL     1       4.018  -2.749   8.773  0.00  0.00    +0.014 C 
ATOM     33  C   UNL     1       2.003   1.062   9.616  0.00  0.00    +0.042 C 
BRANCH  29  34
ATOM     34  C   UNL     1       1.260  -3.486  12.277  0.00  0.00    +0.008 C 
ATOM     35  C   UNL     1       0.553  -2.451  13.155  0.00  0.00    +0.012 C 
ATOM     36  C   UNL     1       0.272  -4.045  11.251  0.00  0.00    +0.012 C 
ENDBRANCH  29  34
BRANCH  25  37
ATOM     37  O   UNL     1       6.759  -2.016   9.118  0.00  0.00    -0.391 OA
ATOM     38  H   UNL     1       7.589  -1.597   8.851  0.00  0.00    +0.210 HD
ENDBRANCH  25  37
ENDBRANCH  21  22
ENDBRANCH   5  21
TORSDOF 10
