REMARK  Name = ZINC05338837
REMARK  3 active torsions:
REMARK  status: ('A' for Active; 'I' for Inactive)
REMARK    1  A    between atoms: C_4  and  C_7
REMARK    2  A    between atoms: C_9  and  O_29
REMARK    3  A    between atoms: N_22  and  C_23
REMARK                            x       y       z     vdW  Elec       q    Type
REMARK                         _______ _______ _______ _____ _____    ______ ____
ROOT
ATOM      1  C   UNL     1       1.470   1.878  -0.002  0.00  0.00    +0.170 C 
ATOM      2  C   UNL     1      -0.019   1.530   0.011  0.00  0.00    +0.159 C 
ATOM      3  C   UNL     1      -0.782   1.905  -1.219  0.00  0.00    +0.000 A 
ATOM      4  C   UNL     1      -0.896   2.960  -2.068  0.00  0.00    +0.007 A 
ATOM      5  C   UNL     1      -1.858   2.949  -3.081  0.00  0.00    +0.001 A 
ATOM      6  C   UNL     1      -2.728   1.909  -3.267  0.00  0.00    +0.008 A 
ATOM      7  C   UNL     1      -2.624   0.792  -2.423  0.00  0.00    -0.017 A 
ATOM      8  C   UNL     1      -1.583   0.796  -1.490  0.00  0.00    -0.003 A 
ATOM      9  C   UNL     1      -1.262  -0.354  -0.658  0.00  0.00    +0.009 A 
ATOM     10  C   UNL     1      -2.151  -1.411  -0.704  0.00  0.00    +0.010 A 
ATOM     11  C   UNL     1      -3.229  -1.370  -1.588  0.00  0.00    +0.001 A 
ATOM     12  C   UNL     1      -3.470  -0.329  -2.440  0.00  0.00    +0.008 A 
ATOM     13  C   UNL     1       0.002  -0.004   0.002  0.00  0.00    +0.105 C 
ATOM     14  N   UNL     1       1.149  -0.377   0.449  0.00  0.00    -0.180 NA
ATOM     15  N   UNL     1       2.042   0.680   0.663  0.00  0.00    -0.213 N 
ENDROOT
BRANCH   1  19
ATOM     16  C   UNL     1       2.245   5.415   2.264  0.00  0.00    +0.000 A 
ATOM     17  C   UNL     1       2.163   5.482   0.885  0.00  0.00    +0.000 A 
ATOM     18  C   UNL     1       1.911   4.337   0.152  0.00  0.00    +0.005 A 
ATOM     19  C   UNL     1       1.744   3.126   0.797  0.00  0.00    -0.022 A 
ATOM     20  C   UNL     1       1.822   3.060   2.176  0.00  0.00    +0.005 A 
ATOM     21  C   UNL     1       2.078   4.204   2.909  0.00  0.00    +0.000 A 
ENDBRANCH   1  19
BRANCH  15  22
ATOM     22  C   UNL     1       3.245   0.619   1.368  0.00  0.00    +0.052 A 
ATOM     23  C   UNL     1       4.036   1.754   1.496  0.00  0.00    +0.025 A 
ATOM     24  C   UNL     1       5.223   1.691   2.199  0.00  0.00    +0.002 A 
ATOM     25  C   UNL     1       5.629   0.497   2.767  0.00  0.00    +0.000 A 
ATOM     26  C   UNL     1       4.847  -0.636   2.638  0.00  0.00    +0.002 A 
ATOM     27  C   UNL     1       3.656  -0.579   1.941  0.00  0.00    +0.025 A 
ENDBRANCH  15  22
BRANCH   2  28
ATOM     28  O   UNL     1      -0.648   2.029   1.192  0.00  0.00    -0.375 OA
ATOM     29  H   UNL     1      -1.571   1.757   1.291  0.00  0.00    +0.211 HD
ENDBRANCH   2  28
TORSDOF 3
