REMARK  Name = ZINC13401292
REMARK  8 active torsions:
REMARK  status: ('A' for Active; 'I' for Inactive)
REMARK    1  A    between atoms: C_1  and  C_2
REMARK    2  A    between atoms: C_2  and  C_4
REMARK    3  A    between atoms: C_2  and  O_30
REMARK    4  A    between atoms: C_4  and  O_29
REMARK    5  A    between atoms: C_9  and  C_28
REMARK    6  A    between atoms: C_18  and  C_27
REMARK    7  A    between atoms: C_19  and  C_26
REMARK    8  A    between atoms: C_22  and  O_25
REMARK                            x       y       z     vdW  Elec       q    Type
REMARK                         _______ _______ _______ _____ _____    ______ ____
ROOT
ATOM      1  C   UNL     1       0.725   3.377  -2.091  0.00  0.00    +0.097 C 
ATOM      2  C   UNL     1       0.762   4.700  -1.305  0.00  0.00    +0.038 C 
ATOM      3  C   UNL     1      -0.625   4.871  -0.658  0.00  0.00    +0.007 C 
ATOM      4  C   UNL     1      -1.202   3.434  -0.551  0.00  0.00    +0.001 C 
ATOM      5  C   UNL     1      -0.615   2.712  -1.766  0.00  0.00    +0.002 C 
ATOM      6  C   UNL     1      -0.529   1.211  -1.634  0.00  0.00    +0.010 C 
ATOM      7  C   UNL     1       0.028   0.774  -0.275  0.00  0.00    +0.005 C 
ATOM      8  C   UNL     1      -0.889   1.326   0.805  0.00  0.00    -0.001 C 
ATOM      9  C   UNL     1      -0.808   2.852   0.794  0.00  0.00    -0.004 C 
ATOM     10  C   UNL     1       0.587   3.282   1.239  0.00  0.00    +0.004 C 
ATOM     11  C   UNL     1       0.796   2.827   2.687  0.00  0.00    +0.007 C 
ATOM     12  C   UNL     1       0.678   1.311   2.813  0.00  0.00    -0.024 C 
ATOM     13  C   UNL     1      -0.614   0.789   2.209  0.00  0.00    -0.023 C 
ATOM     14  C   UNL     1      -1.812   1.206   3.078  0.00  0.00    +0.010 C 
ATOM     15  C   UNL     1      -1.669   0.683   4.500  0.00  0.00    +0.032 C 
ATOM     16  C   UNL     1      -0.399   1.249   5.131  0.00  0.00    +0.115 C 
ATOM     17  C   UNL     1       0.818   0.920   4.288  0.00  0.00    +0.038 C 
ATOM     18  C   UNL     1      -0.571  -0.746   2.157  0.00  0.00    +0.012 C 
ATOM     19  C   UNL     1       1.886   0.661   2.107  0.00  0.00    +0.012 C 
ATOM     20  C   UNL     1      -1.555   2.994  -2.961  0.00  0.00    +0.014 C 
ENDROOT
BRANCH   1  22
ATOM     21  C   UNL     1       2.098   4.420  -3.906  0.00  0.00    +0.040 C 
ATOM     22  C   UNL     1       0.798   3.675  -3.596  0.00  0.00    +0.144 C 
BRANCH  22  23
ATOM     23  O   UNL     1       0.766   2.448  -4.327  0.00  0.00    -0.389 OA
ATOM     24  H   UNL     1       1.495   1.847  -4.119  0.00  0.00    +0.210 HD
ENDBRANCH  22  23
ENDBRANCH   1  22
BRANCH  16  25
ATOM     25  O   UNL     1      -0.530   2.657   5.321  0.00  0.00    -0.392 OA
ATOM     26  H   UNL     1      -1.295   2.912   5.855  0.00  0.00    +0.210 HD
ENDBRANCH  16  25
BRANCH   1  27
ATOM     27  O   UNL     1       1.823   2.545  -1.722  0.00  0.00    -0.385 OA
ATOM     28  H   UNL     1       2.689   2.930  -1.911  0.00  0.00    +0.210 HD
ENDBRANCH   1  27
TORSDOF 4
