REMARK  Name = ZINC44547066
REMARK  6 active torsions:
REMARK  status: ('A' for Active; 'I' for Inactive)
REMARK    1  A    between atoms: C_1  and  C_2
REMARK    2  A    between atoms: C_2  and  C_4
REMARK    3  A    between atoms: C_2  and  N_14
REMARK    4  A    between atoms: C_8  and  S_10
REMARK    5  A    between atoms: S_10  and  N_13
REMARK    6  A    between atoms: N_14  and  C_15
REMARK                            x       y       z     vdW  Elec       q    Type
REMARK                         _______ _______ _______ _____ _____    ______ ____
ROOT
ATOM      1  N   UNL     1       0.698  -0.398  -1.221  0.00  0.00    -0.342 N 
ATOM      2  H   UNL     1       1.668  -0.408  -1.234  0.00  0.00    +0.146 HD
ENDROOT
BRANCH   1   3
ATOM      3  C   UNL     1       0.011  -0.607  -2.350  0.00  0.00    +0.081 C 
ATOM      4  C   UNL     1       0.688  -0.958  -3.528  0.00  0.00    +0.051 C 
ATOM      5  C   UNL     1       0.009  -0.990  -4.753  0.00  0.00    +0.024 C 
ATOM      6  C   UNL     1       0.732  -1.346  -5.898  0.00  0.00    -0.003 A 
ATOM      7  C   UNL     1       0.118  -1.400  -7.164  0.00  0.00    +0.010 A 
ATOM      8  C   UNL     1       0.855  -1.750  -8.252  0.00  0.00    +0.001 A 
ATOM      9  C   UNL     1       2.208  -2.059  -8.145  0.00  0.00    +0.002 A 
ATOM     10  C   UNL     1       2.858  -2.026  -6.949  0.00  0.00    +0.024 A 
ATOM     11  C   UNL     1       2.155  -1.671  -5.784  0.00  0.00    +0.041 A 
ATOM     12  N   UNL     1       2.768  -1.630  -4.599  0.00  0.00    -0.281 N 
ATOM     13  C   UNL     1       2.120  -1.292  -3.493  0.00  0.00    +0.249 C 
ATOM     14  O   UNL     1       2.721  -1.262  -2.428  0.00  0.00    -0.270 OA
ATOM     15  H   UNL     1       3.712  -1.849  -4.546  0.00  0.00    +0.155 HD
ENDBRANCH   1   3
BRANCH   1  17
ATOM     16  C   UNL     1      -0.363   1.331   0.145  0.00  0.00    +0.033 C 
ATOM     17  C   UNL     1      -0.015  -0.155   0.035  0.00  0.00    +0.097 C 
BRANCH  17  18
ATOM     18  C   UNL     1       0.861  -0.553   1.195  0.00  0.00    -0.026 A 
ATOM     19  C   UNL     1       2.213  -0.265   1.171  0.00  0.00    +0.005 A 
ATOM     20  C   UNL     1       3.016  -0.630   2.235  0.00  0.00    +0.002 A 
ATOM     21  C   UNL     1       2.468  -1.282   3.324  0.00  0.00    +0.028 A 
ATOM     22  C   UNL     1       1.116  -1.570   3.348  0.00  0.00    +0.105 A 
ATOM     23  C   UNL     1       0.312  -1.201   2.286  0.00  0.00    +0.034 A 
BRANCH  22  24
ATOM     24  S   UNL     1       0.417  -2.402   4.735  0.00  0.00    +0.056 S 
ATOM     25  O   UNL     1      -0.766  -3.038   4.273  0.00  0.00    -0.153 OA
ATOM     26  O   UNL     1       1.476  -3.120   5.354  0.00  0.00    -0.153 OA
BRANCH  24  27
ATOM     27  N   UNL     1      -0.060  -1.240   5.814  0.00  0.00    -0.204 NA
ATOM     28  H   UNL     1      -0.816  -1.404   6.400  0.00  0.00    +0.144 HD
ATOM     29  H   UNL     1       0.415  -0.396   5.859  0.00  0.00    +0.144 HD
ENDBRANCH  24  27
ENDBRANCH  22  24
ENDBRANCH  17  18
ENDBRANCH   1  17
TORSDOF 5
