REMARK  Name = ZINC39363320
REMARK  12 active torsions:
REMARK  status: ('A' for Active; 'I' for Inactive)
REMARK    1  A    between atoms: C_1  and  C_2
REMARK    2  A    between atoms: C_4  and  C_16
REMARK    3  A    between atoms: C_5  and  C_15
REMARK    4  A    between atoms: N_7  and  C_8
REMARK    5  A    between atoms: C_16  and  N_17
REMARK    6  A    between atoms: N_17  and  C_18
REMARK    7  A    between atoms: C_18  and  C_19
REMARK    8  A    between atoms: C_24  and  C_25
REMARK    9  A    between atoms: C_28  and  O_33
REMARK   10  A    between atoms: C_30  and  O_31
REMARK   11  A    between atoms: O_31  and  C_32
REMARK   12  A    between atoms: O_33  and  C_34
REMARK                            x       y       z     vdW  Elec       q    Type
REMARK                         _______ _______ _______ _____ _____    ______ ____
ROOT
ATOM      1  N   UNL     1      -3.177   0.943  -0.679  0.00  0.00    +0.382 N 
ATOM      2  H   UNL     1      -3.587   0.900   0.241  0.00  0.00    -0.085 HD
ATOM      3  H   UNL     1      -2.513   1.702  -0.717  0.00  0.00    -0.085 HD
ENDROOT
BRANCH   1   4
ATOM      4  C   UNL     1      -2.490  -0.323  -0.969  0.00  0.00    -0.048 C 
BRANCH   4   7
ATOM      5  C   UNL     1      -0.019   1.526   0.010  0.00  0.00    +0.034 C 
ATOM      6  C   UNL     1       0.002  -0.004   0.002  0.00  0.00    +0.117 C 
ATOM      7  C   UNL     1      -1.407  -0.551   0.054  0.00  0.00    -0.047 C 
ATOM      8  C   UNL     1      -1.515  -1.263   1.156  0.00  0.00    +0.018 C 
ATOM      9  N   UNL     1      -0.338  -1.274   1.880  0.00  0.00    -0.268 N 
ATOM     10  N   UNL     1       0.645  -0.516   1.224  0.00  0.00    -0.247 N 
ATOM     11  C   UNL     1      -2.772  -1.980   1.577  0.00  0.00    +0.062 C 
ATOM     12  H   UNL     1      -0.210  -1.740   2.721  0.00  0.00    +0.170 HD
BRANCH  10  13
ATOM     13  C   UNL     1       1.961  -0.292   1.642  0.00  0.00    +0.048 A 
ATOM     14  C   UNL     1       2.811   0.494   0.875  0.00  0.00    +0.027 A 
ATOM     15  C   UNL     1       4.109   0.714   1.291  0.00  0.00    +0.040 A 
ATOM     16  C   UNL     1       4.564   0.151   2.471  0.00  0.00    +0.124 A 
ATOM     17  C   UNL     1       3.719  -0.633   3.238  0.00  0.00    +0.040 A 
ATOM     18  C   UNL     1       2.417  -0.851   2.829  0.00  0.00    +0.027 A 
ATOM     19  F   UNL     1       5.835   0.368   2.876  0.00  0.00    -0.205 F 
ENDBRANCH  10  13
ENDBRANCH   4   7
ENDBRANCH   1   4
BRANCH   1  20
ATOM     20  C   UNL     1      -4.233   1.166  -1.676  0.00  0.00    -0.067 C 
BRANCH  20  21
ATOM     21  C   UNL     1      -4.948   2.485  -1.375  0.00  0.00    +0.066 C 
ATOM     22  C   UNL     1      -5.751   2.376  -0.094  0.00  0.00    +0.115 C 
ATOM     23  N   UNL     1      -6.985   2.572  -0.425  0.00  0.00    -0.161 NA
ATOM     24  N   UNL     1      -7.141   2.805  -1.788  0.00  0.00    -0.153 NA
ATOM     25  C   UNL     1      -5.999   2.775  -2.429  0.00  0.00    +0.081 C 
BRANCH  25  26
ATOM     26  C   UNL     1      -5.780   2.979  -3.865  0.00  0.00    +0.040 A 
ATOM     27  C   UNL     1      -4.486   2.909  -4.397  0.00  0.00    +0.017 A 
ATOM     28  C   UNL     1      -4.286   3.101  -5.744  0.00  0.00    +0.046 A 
ATOM     29  C   UNL     1      -5.365   3.366  -6.582  0.00  0.00    +0.124 A 
ATOM     30  C   UNL     1      -6.651   3.439  -6.067  0.00  0.00    +0.091 A 
ATOM     31  C   UNL     1      -6.868   3.241  -4.715  0.00  0.00    +0.132 A 
BRANCH  31  32
ATOM     32  O   UNL     1      -8.126   3.306  -4.210  0.00  0.00    -0.494 OA
ATOM     33  C   UNL     1      -9.182   3.576  -5.134  0.00  0.00    +0.277 C 
ENDBRANCH  31  32
BRANCH  29  34
ATOM     34  O   UNL     1      -5.157   3.555  -7.911  0.00  0.00    -0.495 OA
ATOM     35  C   UNL     1      -3.809   3.467  -8.376  0.00  0.00    +0.277 C 
ENDBRANCH  29  34
ENDBRANCH  25  26
ENDBRANCH  20  21
ENDBRANCH   1  20
TORSDOF 8
