REMARK  Name = ZINC12293713
REMARK  5 active torsions:
REMARK  status: ('A' for Active; 'I' for Inactive)
REMARK    1  A    between atoms: C_6  and  C_7
REMARK    2  A    between atoms: C_7  and  C_9
REMARK    3  A    between atoms: C_7  and  O_27
REMARK    4  A    between atoms: C_9  and  N_50
REMARK    5  A    between atoms: C_16  and  O_26
REMARK                            x       y       z     vdW  Elec       q    Type
REMARK                         _______ _______ _______ _____ _____    ______ ____
ROOT
ATOM      1  C   UNL     1      -0.199   1.267   2.411  0.00  0.00    -0.075 C 
ATOM      2  C   UNL     1      -1.062   1.609   3.627  0.00  0.00    +0.029 C 
ATOM      3  C   UNL     1      -1.071   3.124   3.834  0.00  0.00    +0.110 C 
ATOM      4  C   UNL     1      -1.582   3.809   2.564  0.00  0.00    +0.029 C 
ATOM      5  C   UNL     1      -0.703   3.401   1.379  0.00  0.00    -0.075 C 
ATOM      6  C   UNL     1      -1.991   3.476   5.008  0.00  0.00    +0.084 C 
ATOM      7  C   UNL     1      -1.521   2.699   6.240  0.00  0.00    +0.152 C 
ATOM      8  C   UNL     1      -0.029   2.853   6.398  0.00  0.00    +0.024 A 
ATOM      9  C   UNL     1       0.544   2.557   7.624  0.00  0.00    +0.029 A 
ATOM     10  C   UNL     1       1.909   2.676   7.802  0.00  0.00    +0.042 A 
ATOM     11  C   UNL     1       2.709   3.091   6.752  0.00  0.00    +0.023 A 
ATOM     12  C   UNL     1       2.143   3.389   5.530  0.00  0.00    +0.047 A 
ATOM     13  C   UNL     1       0.768   3.273   5.349  0.00  0.00    +0.127 A 
ATOM     14  O   UNL     1       0.247   3.582   4.133  0.00  0.00    -0.485 OA
ATOM     15 CL   UNL     1       2.620   2.305   9.342  0.00  0.00    -0.084 Cl
ATOM     16  N   UNL     1      -0.765   1.933   1.218  0.00  0.00    +0.382 N 
ATOM     17  H   UNL     1      -1.747   1.651   1.114  0.00  0.00    -0.082 HD
ENDROOT
BRANCH   7  18
ATOM     18  O   UNL     1      -2.177   3.208   7.402  0.00  0.00    -0.387 OA
ATOM     19  H   UNL     1      -1.930   2.760   8.222  0.00  0.00    +0.210 HD
ENDBRANCH   7  18
BRANCH  16  20
ATOM     20  C   UNL     1      -0.019   1.526   0.010  0.00  0.00    -0.042 C 
BRANCH  20  21
ATOM     21  C   UNL     1       0.007  -0.002  -0.068  0.00  0.00    +0.128 C 
BRANCH  21  27
ATOM     22  C   UNL     1       2.037  -0.836  -1.270  0.00  0.00    +0.009 A 
ATOM     23  C   UNL     1       2.692  -1.228  -2.423  0.00  0.00    +0.041 A 
ATOM     24  C   UNL     1       2.026  -1.212  -3.636  0.00  0.00    +0.158 A 
ATOM     25  C   UNL     1       0.702  -0.802  -3.693  0.00  0.00    +0.159 A 
ATOM     26  C   UNL     1       0.048  -0.416  -2.536  0.00  0.00    +0.047 A 
ATOM     27  C   UNL     1       0.718  -0.428  -1.327  0.00  0.00    -0.018 A 
ATOM     28  F   UNL     1       0.049  -0.786  -4.876  0.00  0.00    -0.202 F 
ATOM     29  F   UNL     1       2.664  -1.594  -4.763  0.00  0.00    -0.202 F 
ENDBRANCH  21  27
BRANCH  21  30
ATOM     30  O   UNL     1      -1.333  -0.500  -0.086  0.00  0.00    -0.389 OA
ATOM     31  H   UNL     1      -1.860  -0.185  -0.833  0.00  0.00    +0.210 HD
ENDBRANCH  21  30
ENDBRANCH  20  21
ENDBRANCH  16  20
TORSDOF 5
