REMARK  Name = ZINC37298955
REMARK  6 active torsions:
REMARK  status: ('A' for Active; 'I' for Inactive)
REMARK    1  A    between atoms: C_1  and  C_2
REMARK    2  A    between atoms: C_5  and  N_11
REMARK    3  A    between atoms: C_6  and  N_8
REMARK    4  A    between atoms: N_11  and  C_12
REMARK    5  A    between atoms: C_12  and  C_14
REMARK    6  A    between atoms: C_12  and  C_15
REMARK                            x       y       z     vdW  Elec       q    Type
REMARK                         _______ _______ _______ _____ _____    ______ ____
ROOT
ATOM      1  C   UNL     1      -0.546   1.446  -0.044  0.00  0.00    +0.044 C 
ATOM      2  C   UNL     1      -0.250  -0.031  -0.024  0.00  0.00    -0.048 A 
ATOM      3  C   UNL     1       0.027  -0.695  -1.205  0.00  0.00    +0.005 A 
ATOM      4  C   UNL     1       0.299  -2.049  -1.190  0.00  0.00    +0.025 A 
ATOM      5  C   UNL     1       0.294  -2.744   0.013  0.00  0.00    +0.058 A 
ATOM      6  C   UNL     1       0.015  -2.074   1.197  0.00  0.00    +0.147 A 
ATOM      7  C   UNL     1      -0.251  -0.718   1.175  0.00  0.00    +0.038 A 
ENDROOT
BRANCH   6   8
ATOM      8  N   UNL     1       0.008  -2.810   2.481  0.00  0.00    +0.058 N 
ATOM      9  O   UNL     1      -0.427  -3.937   2.529  0.00  0.00    -0.126 OA
ATOM     10  O   UNL     1       0.437  -2.284   3.482  0.00  0.00    -0.126 OA
ENDBRANCH   6   8
BRANCH   5  11
ATOM     11  N   UNL     1       0.569  -4.113   0.032  0.00  0.00    -0.335 N 
ATOM     12  H   UNL     1       0.646  -4.581   0.878  0.00  0.00    +0.147 HD
BRANCH  11  13
ATOM     13  C   UNL     1       0.739  -4.843  -1.227  0.00  0.00    +0.105 C 
ATOM     14  C   UNL     1      -0.630  -5.274  -1.756  0.00  0.00    +0.033 C 
BRANCH  13  15
ATOM     15  C   UNL     1       1.592  -6.063  -0.989  0.00  0.00    +0.024 A 
ATOM     16  C   UNL     1       2.633  -6.533  -1.719  0.00  0.00    +0.030 A 
ATOM     17  C   UNL     1       3.276  -7.685  -1.305  0.00  0.00    +0.023 A 
ATOM     18  C   UNL     1       2.846  -8.310  -0.182  0.00  0.00    +0.046 A 
ATOM     19  S   UNL     1       1.498  -7.259   0.333  0.00  0.00    -0.099 S 
ATOM     20 BR   UNL     1       3.197  -5.627  -3.280  0.00  0.00    -0.049 Br
ENDBRANCH  13  15
ENDBRANCH  11  13
ENDBRANCH   5  11
TORSDOF 4
