REMARK  Name = ZINC06198266
REMARK  9 active torsions:
REMARK  status: ('A' for Active; 'I' for Inactive)
REMARK    1  A    between atoms: C_1  and  C_2
REMARK    2  A    between atoms: C_2  and  C_3
REMARK    3  A    between atoms: C_10  and  C_15
REMARK    4  A    between atoms: C_15  and  C_17
REMARK    5  A    between atoms: C_15  and  N_70
REMARK    6  A    between atoms: N_21  and  C_22
REMARK    7  A    between atoms: C_22  and  C_23
REMARK    8  A    between atoms: C_23  and  O_24
REMARK    9  A    between atoms: O_24  and  C_25
REMARK                            x       y       z     vdW  Elec       q    Type
REMARK                         _______ _______ _______ _____ _____    ______ ____
ROOT
ATOM      1  C   UNL     1      -2.490   0.996   0.020  0.00  0.00    +0.039 C 
ENDROOT
BRANCH   1   9
ATOM      2  C   UNL     1       1.400   5.178  -2.358  0.00  0.00    -0.047 A 
ATOM      3  C   UNL     1       2.314   5.152  -1.314  0.00  0.00    +0.005 A 
ATOM      4  C   UNL     1       2.117   4.329  -0.227  0.00  0.00    +0.026 A 
ATOM      5  C   UNL     1       0.991   3.514  -0.173  0.00  0.00    +0.049 A 
ATOM      6  C   UNL     1       0.066   3.543  -1.234  0.00  0.00    -0.001 A 
ATOM      7  C   UNL     1       0.287   4.387  -2.328  0.00  0.00    +0.013 A 
ATOM      8  C   UNL     1      -1.117   2.683  -1.169  0.00  0.00    +0.017 A 
ATOM      9  C   UNL     1      -1.281   1.889  -0.082  0.00  0.00    +0.011 A 
ATOM     10  C   UNL     1      -0.321   1.894   0.953  0.00  0.00    +0.251 A 
ATOM     11  O   UNL     1      -0.486   1.170   1.920  0.00  0.00    -0.268 OA
ATOM     12  N   UNL     1       0.768   2.681   0.902  0.00  0.00    -0.322 N 
ATOM     13  H   UNL     1       1.425   2.661   1.655  0.00  0.00    +0.169 HD
BRANCH   2  15
ATOM     14  C   UNL     1       0.989   7.447  -3.271  0.00  0.00    +0.009 C 
ATOM     15  C   UNL     1       1.638   6.087  -3.537  0.00  0.00    +0.032 C 
ENDBRANCH   2  15
ENDBRANCH   1   9
BRANCH   1  26
ATOM     16  C   UNL     1      -3.563   2.778   1.258  0.00  0.00    -0.077 C 
ATOM     17  C   UNL     1      -4.231   3.127   2.590  0.00  0.00    -0.018 C 
ATOM     18  C   UNL     1      -5.515   2.308   2.742  0.00  0.00    +0.003 C 
ATOM     19  C   UNL     1      -5.174   0.818   2.655  0.00  0.00    -0.044 C 
ATOM     20  C   UNL     1      -4.479   0.535   1.321  0.00  0.00    -0.071 C 
ATOM     21  C   UNL     1      -4.241   0.442   3.808  0.00  0.00    +0.005 C 
ATOM     22  C   UNL     1      -3.900  -1.048   3.723  0.00  0.00    +0.000 C 
ATOM     23  C   UNL     1      -5.186  -1.871   3.818  0.00  0.00    +0.000 C 
ATOM     24  C   UNL     1      -6.118  -1.496   2.664  0.00  0.00    +0.000 C 
ATOM     25  C   UNL     1      -6.459  -0.006   2.747  0.00  0.00    +0.005 C 
ATOM     26  N   UNL     1      -3.238   1.336   1.248  0.00  0.00    +0.390 N 
ATOM     27  H   UNL     1      -2.654   1.120   2.064  0.00  0.00    -0.080 HD
ENDBRANCH   1  26
BRANCH   1  28
ATOM     28  C   UNL     1      -3.358   1.184  -1.198  0.00  0.00    +0.142 A 
ATOM     29  N   UNL     1      -4.144   2.203  -1.449  0.00  0.00    -0.115 NA
ATOM     30  N   UNL     1      -4.713   1.996  -2.586  0.00  0.00    -0.023 NA
ATOM     31  N   UNL     1      -4.317   0.867  -3.063  0.00  0.00    -0.044 NA
ATOM     32  N   UNL     1      -3.481   0.337  -2.236  0.00  0.00    -0.228 N 
BRANCH  32  33
ATOM     33  C   UNL     1      -2.794  -0.948  -2.397  0.00  0.00    +0.175 C 
BRANCH  33  34
ATOM     34  C   UNL     1      -3.643  -2.061  -1.781  0.00  0.00    +0.183 C 
BRANCH  34  35
ATOM     35  O   UNL     1      -2.974  -3.313  -1.938  0.00  0.00    -0.381 OA
ATOM     36  C   UNL     1      -3.686  -4.426  -1.393  0.00  0.00    +0.194 C 
ENDBRANCH  34  35
ENDBRANCH  33  34
ENDBRANCH  32  33
ENDBRANCH   1  28
TORSDOF 7
