REMARK  Name = ZINC63743055
REMARK  8 active torsions:
REMARK  status: ('A' for Active; 'I' for Inactive)
REMARK    1  A    between atoms: C_1  and  O_2
REMARK    2  A    between atoms: O_2  and  C_3
REMARK    3  A    between atoms: C_8  and  S_13
REMARK    4  A    between atoms: S_13  and  C_14
REMARK    5  A    between atoms: C_14  and  C_15
REMARK    6  A    between atoms: N_24  and  C_25
REMARK    7  A    between atoms: C_25  and  C_26
REMARK    8  A    between atoms: C_26  and  O_27
REMARK                            x       y       z     vdW  Elec       q    Type
REMARK                         _______ _______ _______ _____ _____    ______ ____
ROOT
ATOM      1  C   UNL     1      -0.339  -3.826  -5.147  0.00  0.00    +0.115 C 
ENDROOT
BRANCH   1   2
ATOM      2  C   UNL     1      -1.283  -4.451  -6.176  0.00  0.00    +0.169 C 
ATOM      3  N   UNL     1      -0.627  -4.523  -7.487  0.00  0.00    -0.324 N 
ATOM      4  C   UNL     1      -0.560  -5.877  -7.848  0.00  0.00    +0.050 A 
ATOM      5  C   UNL     1      -0.039  -6.483  -8.984  0.00  0.00    +0.026 A 
ATOM      6  C   UNL     1      -0.087  -7.857  -9.122  0.00  0.00    +0.022 A 
ATOM      7  C   UNL     1      -0.655  -8.635  -8.128  0.00  0.00    +0.043 A 
ATOM      8  C   UNL     1      -1.176  -8.040  -6.995  0.00  0.00    +0.045 A 
ATOM      9  C   UNL     1      -1.132  -6.658  -6.848  0.00  0.00    +0.054 A 
ATOM     10  N   UNL     1      -1.589  -5.838  -5.806  0.00  0.00    -0.307 N 
ATOM     11 CL   UNL     1      -0.713 -10.361  -8.306  0.00  0.00    -0.083 Cl
ATOM     12  H   UNL     1      -0.300  -3.772  -8.008  0.00  0.00    +0.148 HD
BRANCH  10  13
ATOM     13  C   UNL     1      -2.249  -6.282  -4.575  0.00  0.00    +0.135 C 
BRANCH  13  14
ATOM     14  C   UNL     1      -3.763  -6.326  -4.796  0.00  0.00    +0.174 C 
BRANCH  14  15
ATOM     15  O   UNL     1      -4.073  -7.322  -5.772  0.00  0.00    -0.393 OA
ATOM     16  H   UNL     1      -5.017  -7.406  -5.963  0.00  0.00    +0.209 HD
ENDBRANCH  14  15
ENDBRANCH  13  14
ENDBRANCH  10  13
ENDBRANCH   1   2
BRANCH   1  17
ATOM     17  S   UNL     1       1.191  -4.797  -5.061  0.00  0.00    -0.112 S 
BRANCH  17  23
ATOM     18  C   UNL     1       0.605  -0.606  -1.054  0.00  0.00    +0.122 A 
ATOM     19  C   UNL     1       1.193   0.221  -2.099  0.00  0.00    +0.048 A 
ATOM     20  C   UNL     1       1.804  -0.317  -3.171  0.00  0.00    +0.031 A 
ATOM     21  C   UNL     1       1.890  -1.778  -3.307  0.00  0.00    +0.061 A 
ATOM     22  N   UNL     1       2.412  -2.544  -4.221  0.00  0.00    -0.355 N 
ATOM     23  C   UNL     1       2.188  -3.936  -3.814  0.00  0.00    +0.235 C 
ATOM     24  N   UNL     1       1.464  -3.883  -2.538  0.00  0.00    -0.355 N 
ATOM     25  C   UNL     1       1.289  -2.624  -2.240  0.00  0.00    +0.064 A 
ATOM     26  C   UNL     1       0.647  -1.960  -1.104  0.00  0.00    +0.073 A 
ATOM     27  H   UNL     1       2.866  -2.248  -5.026  0.00  0.00    +0.162 HD
ATOM     28  H   UNL     1       1.171  -4.644  -2.012  0.00  0.00    +0.162 HD
BRANCH  18  30
ATOM     29  C   UNL     1      -0.017   1.425   0.010  0.00  0.00    +0.277 C 
ATOM     30  O   UNL     1       0.002  -0.004   0.002  0.00  0.00    -0.495 OA
ENDBRANCH  18  30
ENDBRANCH  17  23
ENDBRANCH   1  17
TORSDOF 7
