REMARK  Name = ZINC09124278
REMARK  13 active torsions:
REMARK  status: ('A' for Active; 'I' for Inactive)
REMARK    1  A    between atoms: C_1  and  C_2
REMARK    2  A    between atoms: C_2  and  O_3
REMARK    3  A    between atoms: O_3  and  C_4
REMARK    4  A    between atoms: C_7  and  C_12
REMARK    5  A    between atoms: C_9  and  O_10
REMARK    6  A    between atoms: O_10  and  C_11
REMARK    7  A    between atoms: C_15  and  C_27
REMARK    8  A    between atoms: N_22  and  C_23
REMARK    9  A    between atoms: C_23  and  C_24
REMARK   10  A    between atoms: C_24  and  C_25
REMARK   11  A    between atoms: C_25  and  O_26
REMARK   12  A    between atoms: C_30  and  C_34
REMARK   13  A    between atoms: C_32  and  O_33
REMARK                            x       y       z     vdW  Elec       q    Type
REMARK                         _______ _______ _______ _____ _____    ______ ____
ROOT
ATOM      1  C   UNL     1      -1.876  -5.963  -0.900  0.00  0.00    +0.141 C 
ATOM      2  C   UNL     1      -1.700  -6.268  -2.363  0.00  0.00    +0.035 A 
ATOM      3  C   UNL     1      -2.150  -6.067  -3.672  0.00  0.00    +0.102 A 
ATOM      4  N   UNL     1      -1.369  -6.769  -4.470  0.00  0.00    -0.173 NA
ATOM      5  N   UNL     1      -0.471  -7.393  -3.794  0.00  0.00    -0.272 N 
ATOM      6  H   UNL     1       0.211  -7.969  -4.173  0.00  0.00    +0.189 HD
ATOM      7  C   UNL     1      -0.620  -7.123  -2.463  0.00  0.00    +0.126 A 
ATOM      8  C   UNL     1      -0.098  -7.376  -1.115  0.00  0.00    +0.265 C 
ATOM      9  O   UNL     1       0.853  -8.091  -0.862  0.00  0.00    -0.268 OA
ATOM     10  N   UNL     1      -0.822  -6.707  -0.198  0.00  0.00    -0.285 N 
ENDROOT
BRANCH   3  11
ATOM     11  C   UNL     1      -3.296  -5.220  -4.087  0.00  0.00    +0.045 A 
ATOM     12  C   UNL     1      -4.117  -4.635  -3.126  0.00  0.00    +0.034 A 
ATOM     13  C   UNL     1      -5.182  -3.847  -3.517  0.00  0.00    +0.045 A 
ATOM     14  C   UNL     1      -5.437  -3.638  -4.862  0.00  0.00    -0.029 A 
ATOM     15  C   UNL     1      -4.628  -4.215  -5.822  0.00  0.00    +0.050 A 
ATOM     16  C   UNL     1      -3.553  -5.002  -5.443  0.00  0.00    +0.126 A 
ATOM     17  C   UNL     1      -6.601  -2.778  -5.280  0.00  0.00    +0.045 C 
ATOM     18 CL   UNL     1      -6.205  -3.119  -2.319  0.00  0.00    -0.083 Cl
BRANCH  16  19
ATOM     19  O   UNL     1      -2.753  -5.565  -6.387  0.00  0.00    -0.506 OA
ATOM     20  H   UNL     1      -3.043  -6.441  -6.676  0.00  0.00    +0.292 HD
ENDBRANCH  16  19
ENDBRANCH   3  11
BRANCH   1  24
ATOM     21  C   UNL     1      -1.432  -1.766  -0.206  0.00  0.00    +0.162 A 
ATOM     22  C   UNL     1      -2.672  -2.367  -0.065  0.00  0.00    +0.050 A 
ATOM     23  C   UNL     1      -2.813  -3.724  -0.290  0.00  0.00    +0.009 A 
ATOM     24  C   UNL     1      -1.717  -4.484  -0.656  0.00  0.00    -0.019 A 
ATOM     25  C   UNL     1      -0.477  -3.891  -0.799  0.00  0.00    +0.055 A 
ATOM     26  C   UNL     1      -0.331  -2.530  -0.580  0.00  0.00    +0.162 A 
BRANCH  26  27
ATOM     27  O   UNL     1       0.888  -1.944  -0.726  0.00  0.00    -0.491 OA
ATOM     28  C   UNL     1       1.963  -2.780  -1.157  0.00  0.00    +0.277 C 
ENDBRANCH  26  27
BRANCH  21  29
ATOM     29  O   UNL     1      -1.292  -0.432   0.015  0.00  0.00    -0.489 OA
BRANCH  29  31
ATOM     30  C   UNL     1      -2.115   1.764   0.599  0.00  0.00    +0.048 C 
ATOM     31  C   UNL     1      -2.466   0.289   0.396  0.00  0.00    +0.226 C 
ENDBRANCH  29  31
ENDBRANCH  21  29
ENDBRANCH   1  24
BRANCH  10  32
ATOM     32  C   UNL     1      -0.597  -6.717   1.249  0.00  0.00    +0.111 C 
BRANCH  32  33
ATOM     33  C   UNL     1      -1.404  -7.852   1.883  0.00  0.00    +0.047 C 
BRANCH  33  34
ATOM     34  C   UNL     1      -1.170  -7.862   3.395  0.00  0.00    +0.157 C 
BRANCH  34  35
ATOM     35  O   UNL     1      -1.923  -8.922   3.986  0.00  0.00    -0.395 OA
ATOM     36  H   UNL     1      -1.822  -8.989   4.946  0.00  0.00    +0.209 HD
ENDBRANCH  34  35
ENDBRANCH  33  34
ENDBRANCH  32  33
ENDBRANCH  10  32
TORSDOF 10
