REMARK  Name = ZINC21902157
REMARK  3 active torsions:
REMARK  status: ('A' for Active; 'I' for Inactive)
REMARK    1  A    between atoms: C_3  and  C_6
REMARK    2  A    between atoms: N_15  and  C_16
REMARK    3  A    between atoms: C_16  and  C_17
REMARK                            x       y       z     vdW  Elec       q    Type
REMARK                         _______ _______ _______ _____ _____    ______ ____
ROOT
ATOM      1  C   UNL     1       3.761   1.845  -0.024  0.00  0.00    +0.001 C 
ATOM      2  C   UNL     1       4.315   1.784  -1.444  0.00  0.00    -0.046 A 
ATOM      3  C   UNL     1       3.586   2.123  -2.581  0.00  0.00    +0.010 A 
ATOM      4  C   UNL     1       4.160   2.035  -3.804  0.00  0.00    +0.045 A 
ATOM      5  S   UNL     1       5.801   1.454  -3.401  0.00  0.00    -0.101 S 
ATOM      6  C   UNL     1       5.600   1.375  -1.645  0.00  0.00    -0.010 A 
ATOM      7  C   UNL     1       6.575   0.966  -0.590  0.00  0.00    +0.024 C 
ATOM      8  C   UNL     1       6.003   1.410   0.768  0.00  0.00    -0.072 C 
ATOM      9  N   UNL     1       4.592   1.006   0.847  0.00  0.00    +0.392 N 
ATOM     10  H   UNL     1       4.508   0.043   0.559  0.00  0.00    -0.080 HD
ENDROOT
BRANCH   1  13
ATOM     11  C   UNL     1      -0.016   1.351   0.009  0.00  0.00    +0.008 A 
ATOM     12  C   UNL     1       1.183   2.038   0.002  0.00  0.00    +0.010 A 
ATOM     13  C   UNL     1       2.343   1.336  -0.013  0.00  0.00    -0.019 A 
ATOM     14  S   UNL     1       1.754  -0.349  -0.017  0.00  0.00    -0.103 S 
ATOM     15  C   UNL     1       0.002  -0.004   0.002  0.00  0.00    +0.045 A 
ENDBRANCH   1  13
BRANCH   9  16
ATOM     16  C   UNL     1       4.126   1.138   2.233  0.00  0.00    +0.000 C 
BRANCH  16  17
ATOM     17  C   UNL     1       4.894   0.187   3.114  0.00  0.00    +0.117 A 
ATOM     18  N   UNL     1       4.420  -1.037   3.289  0.00  0.00    -0.196 NA
ATOM     19  C   UNL     1       5.046  -1.920   4.050  0.00  0.00    +0.281 A 
ATOM     20  O   UNL     1       4.550  -3.167   4.220  0.00  0.00    -0.265 OA
ATOM     21  C   UNL     1       6.248  -1.526   4.682  0.00  0.00    +0.067 A 
ATOM     22  C   UNL     1       6.978  -2.394   5.503  0.00  0.00    +0.017 A 
ATOM     23  C   UNL     1       8.130  -1.958   6.086  0.00  0.00    +0.021 A 
ATOM     24  C   UNL     1       8.593  -0.660   5.874  0.00  0.00    +0.043 A 
ATOM     25  C   UNL     1       7.905   0.210   5.079  0.00  0.00    +0.048 A 
ATOM     26  C   UNL     1       6.716  -0.206   4.465  0.00  0.00    +0.080 A 
ATOM     27  N   UNL     1       6.006   0.607   3.670  0.00  0.00    -0.234 NA
ATOM     28 CL   UNL     1      10.065  -0.143   6.634  0.00  0.00    -0.083 Cl
ENDBRANCH  16  17
ENDBRANCH   9  16
TORSDOF 3
