REMARK  Name = ZINC16346014
REMARK  4 active torsions:
REMARK  status: ('A' for Active; 'I' for Inactive)
REMARK    1  A    between atoms: C_1  and  O_2
REMARK    2  A    between atoms: O_2  and  C_3
REMARK    3  A    between atoms: C_5  and  C_11
REMARK    4  A    between atoms: C_8  and  O_9
REMARK                            x       y       z     vdW  Elec       q    Type
REMARK                         _______ _______ _______ _____ _____    ______ ____
ROOT
ATOM      1  C   UNL     1       1.281   6.019  -0.074  0.00  0.00    +0.151 C 
ATOM      2  C   UNL     1       0.808   7.448  -0.023  0.00  0.00    +0.072 A 
ATOM      3  C   UNL     1       1.514   8.731  -0.081  0.00  0.00    +0.199 A 
ATOM      4  O   UNL     1       2.726   8.789  -0.198  0.00  0.00    -0.287 OA
ATOM      5  C   UNL     1       0.685   9.949   0.011  0.00  0.00    +0.066 A 
ATOM      6  C   UNL     1       1.255  11.220  -0.033  0.00  0.00    +0.035 A 
ATOM      7  C   UNL     1       0.443  12.331   0.056  0.00  0.00    +0.042 A 
ATOM      8  C   UNL     1      -0.931  12.183   0.188  0.00  0.00    +0.023 A 
ATOM      9  C   UNL     1      -1.505  10.931   0.232  0.00  0.00    +0.048 A 
ATOM     10  C   UNL     1      -0.705   9.795   0.145  0.00  0.00    +0.140 A 
ATOM     11  O   UNL     1      -1.255   8.567   0.187  0.00  0.00    -0.450 OA
ATOM     12  C   UNL     1      -0.542   7.426   0.108  0.00  0.00    +0.199 A 
ATOM     13  C   UNL     1      -0.985   6.011   0.140  0.00  0.00    +0.288 C 
ATOM     14  O   UNL     1      -2.139   5.646   0.249  0.00  0.00    -0.266 OA
ATOM     15  N   UNL     1       0.074   5.190   0.030  0.00  0.00    -0.238 N 
ATOM     16  C   UNL     1       0.033   3.798   0.022  0.00  0.00    +0.129 A 
ATOM     17  C   UNL     1      -1.194   3.144   0.030  0.00  0.00    +0.044 A 
ATOM     18  C   UNL     1      -1.220   1.761   0.017  0.00  0.00    +0.005 A 
ATOM     19  C   UNL     1      -0.013   1.076   0.008  0.00  0.00    +0.020 A 
ATOM     20  C   UNL     1       1.169   1.790   0.001  0.00  0.00    +0.113 A 
ATOM     21  N   UNL     1       1.163   3.109   0.008  0.00  0.00    -0.240 NA
ATOM     22 CL   UNL     1       1.142  13.920   0.003  0.00  0.00    -0.084 Cl
ENDROOT
BRANCH   1  25
ATOM     23  C   UNL     1       4.009   5.473  -2.631  0.00  0.00    +0.163 A 
ATOM     24  C   UNL     1       3.362   5.721  -1.430  0.00  0.00    +0.055 A 
ATOM     25  C   UNL     1       1.981   5.754  -1.382  0.00  0.00    -0.017 A 
ATOM     26  C   UNL     1       1.241   5.549  -2.532  0.00  0.00    +0.025 A 
ATOM     27  C   UNL     1       1.880   5.306  -3.734  0.00  0.00    +0.063 A 
ATOM     28  C   UNL     1       3.265   5.267  -3.788  0.00  0.00    +0.173 A 
ATOM     29 BR   UNL     1       0.864   5.028  -5.305  0.00  0.00    -0.046 Br
BRANCH  23  31
ATOM     30  C   UNL     1       6.066   5.656  -1.451  0.00  0.00    +0.277 C 
ATOM     31  O   UNL     1       5.367   5.436  -2.678  0.00  0.00    -0.491 OA
ENDBRANCH  23  31
BRANCH  28  32
ATOM     32  O   UNL     1       3.894   5.028  -4.970  0.00  0.00    -0.503 OA
ATOM     33  H   UNL     1       4.095   5.826  -5.478  0.00  0.00    +0.292 HD
ENDBRANCH  28  32
ENDBRANCH   1  25
TORSDOF 3
