REMARK  Name = ZINC12538598
REMARK  7 active torsions:
REMARK  status: ('A' for Active; 'I' for Inactive)
REMARK    1  A    between atoms: C_1  and  C_2
REMARK    2  A    between atoms: C_10  and  C_29
REMARK    3  A    between atoms: C_11  and  C_12
REMARK    4  A    between atoms: C_12  and  C_13
REMARK    5  A    between atoms: N_15  and  C_16
REMARK    6  A    between atoms: C_16  and  C_18
REMARK    7  A    between atoms: C_16  and  C_19
REMARK                            x       y       z     vdW  Elec       q    Type
REMARK                         _______ _______ _______ _____ _____    ______ ____
ROOT
ATOM      1  C   UNL     1       2.031  -0.587  -1.215  0.00  0.00    +0.218 C 
ATOM      2  O   UNL     1       2.672  -0.295  -0.228  0.00  0.00    -0.275 OA
ATOM      3  N   UNL     1       0.688  -0.476  -1.203  0.00  0.00    -0.306 N 
ATOM      4  H   UNL     1       0.175  -0.710  -1.993  0.00  0.00    +0.149 HD
ENDROOT
BRANCH   3   5
ATOM      5  C   UNL     1       0.002  -0.004   0.002  0.00  0.00    +0.136 C 
ATOM      6  C   UNL     1      -0.019   1.526   0.010  0.00  0.00    +0.036 C 
BRANCH   5   7
ATOM      7  C   UNL     1      -1.412  -0.526   0.013  0.00  0.00    +0.128 A 
ATOM      8  N   UNL     1      -2.166  -0.710   1.130  0.00  0.00    -0.340 N 
ATOM      9  H   UNL     1      -1.885  -0.527   2.072  0.00  0.00    +0.167 HD
ATOM     10  C   UNL     1      -3.392  -1.197   0.722  0.00  0.00    +0.066 A 
ATOM     11  C   UNL     1      -4.553  -1.570   1.385  0.00  0.00    +0.028 A 
ATOM     12  C   UNL     1      -5.634  -2.029   0.663  0.00  0.00    +0.002 A 
ATOM     13  C   UNL     1      -5.568  -2.121  -0.721  0.00  0.00    +0.002 A 
ATOM     14  C   UNL     1      -4.434  -1.758  -1.389  0.00  0.00    +0.030 A 
ATOM     15  C   UNL     1      -3.325  -1.290  -0.679  0.00  0.00    +0.089 A 
ATOM     16  N   UNL     1      -2.091  -0.860  -1.046  0.00  0.00    -0.231 NA
ENDBRANCH   5   7
ENDBRANCH   3   5
BRANCH   1  17
ATOM     17  C   UNL     1       2.736  -1.073  -2.455  0.00  0.00    +0.133 C 
BRANCH  17  28
ATOM     18  C   UNL     1       3.989  -3.459  -1.399  0.00  0.00    +0.045 C 
ATOM     19  C   UNL     1       4.808  -2.233  -1.709  0.00  0.00    -0.036 A 
ATOM     20  C   UNL     1       6.199  -2.220  -1.493  0.00  0.00    +0.004 A 
ATOM     21  C   UNL     1       6.871  -3.342  -0.983  0.00  0.00    +0.010 A 
ATOM     22  C   UNL     1       8.217  -3.290  -0.788  0.00  0.00    +0.001 A 
ATOM     23  C   UNL     1       8.939  -2.136  -1.088  0.00  0.00    +0.002 A 
ATOM     24  C   UNL     1       8.320  -1.030  -1.584  0.00  0.00    +0.028 A 
ATOM     25  C   UNL     1       6.931  -1.045  -1.799  0.00  0.00    +0.072 A 
ATOM     26  N   UNL     1       6.295   0.026  -2.285  0.00  0.00    -0.252 NA
ATOM     27  C   UNL     1       5.001   0.015  -2.492  0.00  0.00    +0.043 A 
ATOM     28  C   UNL     1       4.223  -1.105  -2.207  0.00  0.00    -0.014 A 
ATOM     29  C   UNL     1       4.337   1.248  -3.048  0.00  0.00    +0.066 C 
ENDBRANCH  17  28
ENDBRANCH   1  17
TORSDOF 4
