REMARK  Name = ZINC19754844
REMARK  9 active torsions:
REMARK  status: ('A' for Active; 'I' for Inactive)
REMARK    1  A    between atoms: C_1  and  C_2
REMARK    2  A    between atoms: C_3  and  C_12
REMARK    3  A    between atoms: C_5  and  N_11
REMARK    4  A    between atoms: C_6  and  C_7
REMARK    5  A    between atoms: C_7  and  O_9
REMARK    6  A    between atoms: O_9  and  C_10
REMARK    7  A    between atoms: C_12  and  C_13
REMARK    8  A    between atoms: C_13  and  N_14
REMARK    9  A    between atoms: C_22  and  C_24
REMARK                            x       y       z     vdW  Elec       q    Type
REMARK                         _______ _______ _______ _____ _____    ______ ____
ROOT
ATOM      1  C   UNL     1       6.511   3.809  -3.215  0.00  0.00    +0.045 C 
ATOM      2  C   UNL     1       5.197   4.449  -3.580  0.00  0.00    -0.024 A 
ATOM      3  C   UNL     1       4.028   3.938  -3.156  0.00  0.00    -0.003 A 
ATOM      4  S   UNL     1       2.818   5.041  -3.858  0.00  0.00    -0.078 S 
ATOM      5  C   UNL     1       3.872   6.144  -4.676  0.00  0.00    +0.078 A 
ATOM      6  C   UNL     1       5.139   5.637  -4.400  0.00  0.00    +0.090 A 
ENDROOT
BRANCH   5   7
ATOM      7  N   UNL     1       3.537   7.255  -5.426  0.00  0.00    -0.352 N 
ATOM      8  H   UNL     1       4.327   7.865  -5.889  0.00  0.00    +0.143 HD
ATOM      9  H   UNL     1       2.480   7.529  -5.560  0.00  0.00    +0.143 HD
ENDBRANCH   5   7
BRANCH   6  10
ATOM     10  C   UNL     1       6.351   6.275  -4.915  0.00  0.00    +0.342 C 
ATOM     11  O   UNL     1       6.803   5.941  -5.993  0.00  0.00    -0.245 OA
BRANCH  10  12
ATOM     12  O   UNL     1       6.966   7.234  -4.193  0.00  0.00    -0.464 OA
ATOM     13  C   UNL     1       8.145   7.814  -4.756  0.00  0.00    +0.280 C 
ENDBRANCH  10  12
ENDBRANCH   6  10
BRANCH   3  14
ATOM     14  C   UNL     1       3.797   2.721  -2.299  0.00  0.00    +0.061 C 
BRANCH  14  15
ATOM     15  C   UNL     1       3.789   3.130  -0.824  0.00  0.00    +0.110 C 
BRANCH  15  16
ATOM     16  N   UNL     1       3.427   1.971   0.003  0.00  0.00    -0.326 N 
ATOM     17  C   UNL     1       3.389   2.316   1.360  0.00  0.00    +0.033 A 
ATOM     18  C   UNL     1       4.235   3.142   2.098  0.00  0.00    +0.023 A 
ATOM     19  C   UNL     1       4.013   3.338   3.445  0.00  0.00    +0.002 A 
ATOM     20  C   UNL     1       2.949   2.716   4.073  0.00  0.00    +0.000 A 
ATOM     21  C   UNL     1       2.103   1.897   3.348  0.00  0.00    +0.005 A 
ATOM     22  C   UNL     1       2.320   1.700   2.000  0.00  0.00    -0.025 A 
ATOM     23  C   UNL     1       1.565   0.884   0.969  0.00  0.00    +0.059 C 
ATOM     24  C   UNL     1       2.094   1.449  -0.370  0.00  0.00    +0.075 C 
ATOM     25  C   UNL     1       1.192   2.576  -0.877  0.00  0.00    +0.028 C 
ENDBRANCH  15  16
ENDBRANCH  14  15
ENDBRANCH   3  14
TORSDOF 6
