REMARK  Name = ZINC34923221
REMARK  14 active torsions:
REMARK  status: ('A' for Active; 'I' for Inactive)
REMARK    1  A    between atoms: C_1  and  C_2
REMARK    2  A    between atoms: C_2  and  C_3
REMARK    3  A    between atoms: C_4  and  C_34
REMARK    4  A    between atoms: C_5  and  C_26
REMARK    5  A    between atoms: C_8  and  C_13
REMARK    6  A    between atoms: C_14  and  N_16
REMARK    7  A    between atoms: N_16  and  C_17
REMARK    8  A    between atoms: C_17  and  C_18
REMARK    9  A    between atoms: C_18  and  C_19
REMARK   10  A    between atoms: N_24  and  C_25
REMARK   11  A    between atoms: C_30  and  O_32
REMARK   12  A    between atoms: O_32  and  C_33
REMARK   13  A    between atoms: C_34  and  O_36
REMARK   14  A    between atoms: O_36  and  C_37
REMARK                            x       y       z     vdW  Elec       q    Type
REMARK                         _______ _______ _______ _____ _____    ______ ____
ROOT
ATOM      1  C   UNL     1      -1.787  -1.439   0.579  0.00  0.00    +0.056 C 
ATOM      2  C   UNL     1      -2.295  -1.540  -0.702  0.00  0.00    +0.083 C 
ATOM      3  C   UNL     1      -3.770  -1.837  -0.855  0.00  0.00    +0.150 C 
ATOM      4  N   UNL     1      -4.560  -1.998   0.395  0.00  0.00    -0.267 N 
ATOM      5  C   UNL     1      -5.910  -2.271   0.495  0.00  0.00    +0.048 C 
ATOM      6  C   UNL     1      -6.437  -2.379   1.734  0.00  0.00    +0.072 C 
ATOM      7  S   UNL     1      -5.014  -2.093   2.767  0.00  0.00    -0.060 S 
ATOM      8  C   UNL     1      -3.867  -1.859   1.564  0.00  0.00    +0.166 C 
ATOM      9  N   UNL     1      -2.576  -1.604   1.628  0.00  0.00    -0.229 NA
ENDROOT
BRANCH   3  10
ATOM     10  C   UNL     1      -3.907  -3.106  -1.656  0.00  0.00    -0.019 A 
ATOM     11  C   UNL     1      -3.682  -4.331  -1.054  0.00  0.00    +0.006 A 
ATOM     12  C   UNL     1      -3.806  -5.497  -1.787  0.00  0.00    +0.004 A 
ATOM     13  C   UNL     1      -4.156  -5.441  -3.122  0.00  0.00    +0.045 A 
ATOM     14  C   UNL     1      -4.383  -4.214  -3.728  0.00  0.00    +0.120 A 
ATOM     15  C   UNL     1      -4.263  -3.045  -2.989  0.00  0.00    +0.051 A 
BRANCH  14  16
ATOM     16  O   UNL     1      -4.727  -4.156  -5.041  0.00  0.00    -0.495 OA
ATOM     17  C   UNL     1      -4.956  -5.400  -5.707  0.00  0.00    +0.277 C 
ENDBRANCH  14  16
ENDBRANCH   3  10
BRANCH   5  18
ATOM     18  C   UNL     1      -6.744  -2.438  -0.704  0.00  0.00    +0.091 C 
ATOM     19  C   UNL     1      -8.017  -2.860  -0.586  0.00  0.00    +0.239 C 
ATOM     20  O   UNL     1      -8.567  -3.018   0.643  0.00  0.00    -0.271 OA
BRANCH  19  21
ATOM     21  N   UNL     1      -8.764  -3.133  -1.719  0.00  0.00    -0.312 N 
ATOM     22  H   UNL     1      -8.350  -3.091  -2.595  0.00  0.00    +0.149 HD
BRANCH  21  23
ATOM     23  C   UNL     1     -10.181  -3.484  -1.595  0.00  0.00    +0.103 C 
BRANCH  23  24
ATOM     24  C   UNL     1     -10.737  -3.854  -2.972  0.00  0.00    +0.003 C 
BRANCH  24  25
ATOM     25  C   UNL     1     -12.244  -4.096  -2.865  0.00  0.00    -0.068 C 
ATOM     26  C   UNL     1     -12.516  -5.332  -1.981  0.00  0.00    -0.017 C 
ATOM     27  C   UNL     1     -13.710  -6.018  -2.696  0.00  0.00    -0.020 C 
ATOM     28  C   UNL     1     -13.382  -5.742  -4.185  0.00  0.00    -0.079 C 
ATOM     29  N   UNL     1     -12.803  -4.379  -4.200  0.00  0.00    +0.380 N 
ATOM     30  C   UNL     1     -11.737  -4.304  -5.208  0.00  0.00    -0.096 C 
ATOM     31  H   UNL     1     -13.522  -3.704  -4.417  0.00  0.00    -0.082 HD
ENDBRANCH  24  25
ENDBRANCH  23  24
ENDBRANCH  21  23
ENDBRANCH  19  21
ENDBRANCH   5  18
BRANCH   1  33
ATOM     32  C   UNL     1      -0.094   0.367   0.720  0.00  0.00    +0.010 C 
ATOM     33  C   UNL     1      -0.323  -1.144   0.782  0.00  0.00    +0.053 C 
ENDBRANCH   1  33
BRANCH   2  34
ATOM     34  C   UNL     1      -1.471  -1.372  -1.822  0.00  0.00    +0.339 C 
ATOM     35  O   UNL     1      -0.272  -1.210  -1.678  0.00  0.00    -0.245 OA
BRANCH  34  36
ATOM     36  O   UNL     1      -2.006  -1.390  -3.063  0.00  0.00    -0.465 OA
ATOM     37  C   UNL     1      -1.108  -1.212  -4.160  0.00  0.00    +0.280 C 
ENDBRANCH  34  36
ENDBRANCH   2  34
TORSDOF 10
