REMARK  Name = ZINC11287615
REMARK  8 active torsions:
REMARK  status: ('A' for Active; 'I' for Inactive)
REMARK    1  A    between atoms: C_1  and  C_2
REMARK    2  A    between atoms: C_2  and  C_3
REMARK    3  A    between atoms: C_2  and  C_4
REMARK    4  A    between atoms: C_4  and  C_6
REMARK    5  A    between atoms: C_4  and  N_13
REMARK    6  A    between atoms: C_14  and  C_16
REMARK    7  A    between atoms: C_16  and  N_62
REMARK    8  A    between atoms: C_20  and  C_22
REMARK                            x       y       z     vdW  Elec       q    Type
REMARK                         _______ _______ _______ _____ _____    ______ ____
ROOT
ATOM      1  C   UNL     1      -0.721   9.145  -3.717  0.00  0.00    -0.077 C 
ATOM      2  C   UNL     1      -1.207   9.799  -5.027  0.00  0.00    -0.020 C 
ATOM      3  C   UNL     1      -2.405  10.668  -4.561  0.00  0.00    -0.013 C 
ATOM      4  C   UNL     1      -3.015   9.784  -3.444  0.00  0.00    -0.037 C 
ATOM      5  N   UNL     1      -1.846   9.187  -2.769  0.00  0.00    +0.390 N 
ATOM      6  H   UNL     1      -1.587   9.766  -1.961  0.00  0.00    -0.080 HD
ENDROOT
BRANCH   4   7
ATOM      7  C   UNL     1      -3.795  10.632  -2.472  0.00  0.00    -0.057 A 
ATOM      8  C   UNL     1      -3.126  11.414  -1.549  0.00  0.00    +0.006 A 
ATOM      9  C   UNL     1      -3.835  12.196  -0.655  0.00  0.00    +0.049 A 
ATOM     10  C   UNL     1      -5.220  12.192  -0.687  0.00  0.00    +0.162 A 
ATOM     11  C   UNL     1      -5.891  11.406  -1.613  0.00  0.00    +0.162 A 
ATOM     12  C   UNL     1      -5.178  10.630  -2.510  0.00  0.00    +0.051 A 
ATOM     13  O   UNL     1      -7.255  11.409  -1.636  0.00  0.00    -0.488 OA
ATOM     14  C   UNL     1      -7.901  10.817  -0.507  0.00  0.00    +0.232 C 
ATOM     15  C   UNL     1      -8.030  11.820   0.628  0.00  0.00    +0.082 C 
ATOM     16  C   UNL     1      -6.678  12.249   1.178  0.00  0.00    +0.232 C 
ATOM     17  O   UNL     1      -5.931  12.960   0.188  0.00  0.00    -0.488 OA
ENDBRANCH   4   7
BRANCH   5  18
ATOM     18  C   UNL     1      -2.172   7.815  -2.299  0.00  0.00    +0.019 C 
BRANCH  18  20
ATOM     19  N   UNL     1      -1.147   6.097  -0.844  0.00  0.00    -0.310 N 
ATOM     20  C   UNL     1      -1.068   7.323  -1.398  0.00  0.00    +0.197 C 
ATOM     21  O   UNL     1      -0.109   8.030  -1.172  0.00  0.00    -0.278 OA
ATOM     22  H   UNL     1      -1.914   5.532  -1.025  0.00  0.00    +0.149 HD
BRANCH  19  23
ATOM     23  C   UNL     1      -0.074   5.619   0.032  0.00  0.00    +0.106 C 
BRANCH  23  24
ATOM     24  C   UNL     1      -0.054   4.112   0.024  0.00  0.00    -0.027 A 
ATOM     25  C   UNL     1       1.153   3.438   0.009  0.00  0.00    +0.008 A 
ATOM     26  C   UNL     1       1.173   2.056   0.002  0.00  0.00    +0.038 A 
ATOM     27  C   UNL     1      -0.016   1.347   0.009  0.00  0.00    +0.123 A 
ATOM     28  C   UNL     1      -1.224   2.023   0.019  0.00  0.00    +0.038 A 
ATOM     29  C   UNL     1      -1.242   3.405   0.032  0.00  0.00    +0.008 A 
ATOM     30  F   UNL     1       0.002  -0.004   0.002  0.00  0.00    -0.205 F 
ENDBRANCH  23  24
BRANCH  23  32
ATOM     31  C   UNL     1       0.802   5.619   2.371  0.00  0.00    +0.009 C 
ATOM     32  C   UNL     1      -0.318   6.118   1.457  0.00  0.00    +0.008 C 
ATOM     33  C   UNL     1      -0.339   7.648   1.465  0.00  0.00    +0.009 C 
ENDBRANCH  23  32
ENDBRANCH  19  23
ENDBRANCH  18  20
ENDBRANCH   5  18
TORSDOF 6
