REMARK  Name = ZINC14360683
REMARK  12 active torsions:
REMARK  status: ('A' for Active; 'I' for Inactive)
REMARK    1  A    between atoms: C_1  and  C_2
REMARK    2  A    between atoms: C_2  and  O_3
REMARK    3  A    between atoms: O_3  and  C_4
REMARK    4  A    between atoms: C_4  and  C_6
REMARK    5  A    between atoms: C_10  and  N_11
REMARK    6  A    between atoms: C_12  and  C_14
REMARK    7  A    between atoms: C_14  and  C_16
REMARK    8  A    between atoms: C_14  and  S_17
REMARK    9  A    between atoms: S_17  and  C_18
REMARK   10  A    between atoms: N_23  and  C_24
REMARK   11  A    between atoms: C_28  and  C_31
REMARK   12  A    between atoms: C_29  and  C_30
REMARK                            x       y       z     vdW  Elec       q    Type
REMARK                         _______ _______ _______ _____ _____    ______ ____
ROOT
ATOM      1  N   UNL     1       2.369  11.090  -1.141  0.00  0.00    -0.278 N 
ATOM      2  C   UNL     1       3.328  10.248  -0.708  0.00  0.00    +0.231 C 
ATOM      3  O   UNL     1       4.453  10.658  -0.515  0.00  0.00    -0.274 OA
ATOM      4  H   UNL     1       1.469  10.762  -1.296  0.00  0.00    +0.155 HD
ENDROOT
BRANCH   1   9
ATOM      5  C   UNL     1       1.826  13.434  -1.814  0.00  0.00    +0.091 A 
ATOM      6  C   UNL     1       2.394  14.764  -1.963  0.00  0.00    -0.021 A 
ATOM      7  C   UNL     1       3.704  14.868  -1.655  0.00  0.00    -0.004 A 
ATOM      8  S   UNL     1       4.186  13.236  -1.165  0.00  0.00    -0.077 S 
ATOM      9  C   UNL     1       2.668  12.424  -1.366  0.00  0.00    +0.086 A 
ATOM     10  C   UNL     1       4.552  16.101  -1.719  0.00  0.00    +0.043 C 
ATOM     11  C   UNL     1       3.807  17.158  -2.546  0.00  0.00    +0.005 C 
ATOM     12  C   UNL     1       2.361  17.244  -2.048  0.00  0.00    +0.005 C 
ATOM     13  C   UNL     1       1.600  15.976  -2.437  0.00  0.00    +0.037 C 
BRANCH   5  14
ATOM     14  C   UNL     1       0.419  13.170  -2.119  0.00  0.00    +0.342 C 
ATOM     15  O   UNL     1      -0.424  13.287  -1.250  0.00  0.00    -0.245 OA
BRANCH  14  16
ATOM     16  O   UNL     1       0.057  12.798  -3.364  0.00  0.00    -0.461 OA
BRANCH  16  18
ATOM     17  C   UNL     1      -1.571  12.144  -5.053  0.00  0.00    +0.048 C 
ATOM     18  C   UNL     1      -1.355  12.553  -3.594  0.00  0.00    +0.229 C 
ENDBRANCH  16  18
ENDBRANCH  14  16
ENDBRANCH   5  14
ENDBRANCH   1   9
BRANCH   2  19
ATOM     19  C   UNL     1       3.002   8.797  -0.464  0.00  0.00    +0.136 C 
ATOM     20  C   UNL     1       2.314   8.650   0.895  0.00  0.00    +0.029 C 
BRANCH  19  21
ATOM     21  S   UNL     1       4.533   7.824  -0.473  0.00  0.00    -0.084 S 
BRANCH  21  22
ATOM     22  C   UNL     1       3.980   6.157  -0.326  0.00  0.00    +0.161 A 
ATOM     23  N   UNL     1       2.749   5.690  -0.230  0.00  0.00    -0.133 NA
ATOM     24  N   UNL     1       2.538   4.334  -0.128  0.00  0.00    -0.125 NA
ATOM     25  C   UNL     1       3.567   3.509  -0.117  0.00  0.00    +0.187 A 
ATOM     26  S   UNL     1       4.934   4.649  -0.268  0.00  0.00    -0.024 S 
ATOM     27  N   UNL     1       3.583   2.122  -0.019  0.00  0.00    -0.292 N 
ATOM     28  H   UNL     1       4.418   1.639  -0.114  0.00  0.00    +0.154 HD
BRANCH  27  29
ATOM     29  C   UNL     1       2.395   1.425   0.214  0.00  0.00    +0.036 A 
ATOM     30  C   UNL     1       1.230   2.117   0.524  0.00  0.00    +0.023 A 
ATOM     31  C   UNL     1       0.058   1.425   0.755  0.00  0.00    +0.002 A 
ATOM     32  C   UNL     1       0.042   0.044   0.678  0.00  0.00    +0.004 A 
ATOM     33  C   UNL     1       1.199  -0.648   0.370  0.00  0.00    -0.046 A 
ATOM     34  C   UNL     1       2.375   0.038   0.138  0.00  0.00    -0.026 A 
ATOM     35  C   UNL     1       3.635  -0.717  -0.197  0.00  0.00    +0.046 C 
ATOM     36  C   UNL     1       1.177  -2.153   0.288  0.00  0.00    +0.044 C 
ENDBRANCH  27  29
ENDBRANCH  21  22
ENDBRANCH  19  21
ENDBRANCH   2  19
TORSDOF 8
