REMARK  Name = ZINC48524209
REMARK  6 active torsions:
REMARK  status: ('A' for Active; 'I' for Inactive)
REMARK    1  A    between atoms: C_4  and  O_23
REMARK    2  A    between atoms: C_5  and  C_7
REMARK    3  A    between atoms: N_8  and  C_9
REMARK    4  A    between atoms: C_9  and  C_10
REMARK    5  A    between atoms: C_10  and  N_11
REMARK    6  A    between atoms: N_11  and  C_12
REMARK                            x       y       z     vdW  Elec       q    Type
REMARK                         _______ _______ _______ _____ _____    ______ ____
ROOT
ATOM      1  C   UNL     1       2.808  -4.640  -1.692  0.00  0.00    +0.122 C 
ENDROOT
BRANCH   1   2
ATOM      2  N   UNL     1       2.958  -6.096  -1.748  0.00  0.00    -0.340 N 
ATOM      3  H   UNL     1       2.673  -6.642  -0.999  0.00  0.00    +0.146 HD
BRANCH   2   4
ATOM      4  C   UNL     1       3.515  -6.698  -2.881  0.00  0.00    +0.067 A 
ATOM      5  C   UNL     1       3.346  -8.060  -3.099  0.00  0.00    +0.083 A 
ATOM      6  C   UNL     1       3.897  -8.653  -4.221  0.00  0.00    +0.081 A 
ATOM      7  C   UNL     1       4.616  -7.891  -5.126  0.00  0.00    +0.080 A 
ATOM      8  C   UNL     1       4.786  -6.534  -4.911  0.00  0.00    +0.081 A 
ATOM      9  C   UNL     1       4.232  -5.935  -3.794  0.00  0.00    +0.083 A 
ATOM     10 CL   UNL     1       4.439  -4.232  -3.529  0.00  0.00    -0.080 Cl
ATOM     11 CL   UNL     1       5.689  -5.582  -6.047  0.00  0.00    -0.080 Cl
ATOM     12 CL   UNL     1       5.306  -8.639  -6.532  0.00  0.00    -0.080 Cl
ATOM     13 CL   UNL     1       3.687 -10.355  -4.494  0.00  0.00    -0.080 Cl
ATOM     14 CL   UNL     1       2.445  -9.016  -1.965  0.00  0.00    -0.080 Cl
ENDBRANCH   2   4
ENDBRANCH   1   2
BRANCH   1  15
ATOM     15  C   UNL     1       1.904  -4.266  -0.515  0.00  0.00    +0.131 C 
BRANCH  15  17
ATOM     16  C   UNL     1       0.594  -2.271  -0.659  0.00  0.00    +0.089 C 
ATOM     17  N   UNL     1       1.753  -2.810  -0.459  0.00  0.00    -0.388 N 
ATOM     18  H   UNL     1       2.523  -2.249  -0.271  0.00  0.00    +0.159 HD
BRANCH  16  23
ATOM     19  C   UNL     1      -0.972   1.138  -0.609  0.00  0.00    +0.001 A 
ATOM     20  C   UNL     1       0.078   1.914  -0.145  0.00  0.00    +0.004 A 
ATOM     21  C   UNL     1       1.296   1.334   0.153  0.00  0.00    +0.046 A 
ATOM     22  C   UNL     1       1.475  -0.031  -0.011  0.00  0.00    +0.125 A 
ATOM     23  C   UNL     1       0.415  -0.819  -0.480  0.00  0.00    +0.032 A 
ATOM     24  C   UNL     1      -0.812  -0.220  -0.778  0.00  0.00    +0.013 A 
BRANCH  22  25
ATOM     25  O   UNL     1       2.671  -0.601   0.281  0.00  0.00    -0.506 OA
ATOM     26  H   UNL     1       2.751  -0.901   1.196  0.00  0.00    +0.292 HD
ENDBRANCH  22  25
ENDBRANCH  16  23
ENDBRANCH  15  17
ENDBRANCH   1  15
TORSDOF 6
