REMARK  Name = ZINC06740563
REMARK  8 active torsions:
REMARK  status: ('A' for Active; 'I' for Inactive)
REMARK    1  A    between atoms: C_1  and  C_2
REMARK    2  A    between atoms: C_2  and  C_3
REMARK    3  A    between atoms: C_12  and  C_13
REMARK    4  A    between atoms: C_13  and  C_15
REMARK    5  A    between atoms: C_13  and  C_25
REMARK    6  A    between atoms: C_15  and  C_16
REMARK    7  A    between atoms: N_18  and  C_19
REMARK    8  A    between atoms: C_29  and  N_31
REMARK                            x       y       z     vdW  Elec       q    Type
REMARK                         _______ _______ _______ _____ _____    ______ ____
ROOT
ATOM      1  C   UNL     1       4.275   3.269  -0.021  0.00  0.00    +0.060 C 
ENDROOT
BRANCH   1  11
ATOM      2  C   UNL     1       1.197  -0.691  -0.013  0.00  0.00    -0.024 A 
ATOM      3  C   UNL     1       0.002  -0.004   0.002  0.00  0.00    +0.005 A 
ATOM      4  C   UNL     1      -0.017   1.384   0.010  0.00  0.00    +0.001 A 
ATOM      5  C   UNL     1       1.151   2.094   0.002  0.00  0.00    +0.010 A 
ATOM      6  C   UNL     1       2.373   1.419  -0.013  0.00  0.00    +0.004 A 
ATOM      7  C   UNL     1       2.397   0.012  -0.020  0.00  0.00    +0.050 A 
ATOM      8  N   UNL     1       3.720  -0.371  -0.034  0.00  0.00    -0.360 N 
ATOM      9  H   UNL     1       4.034  -1.289  -0.041  0.00  0.00    +0.165 HD
ATOM     10  C   UNL     1       4.524   0.735  -0.036  0.00  0.00    +0.088 A 
ATOM     11  C   UNL     1       3.773   1.848  -0.024  0.00  0.00    -0.015 A 
BRANCH   2  13
ATOM     12  C   UNL     1       1.343  -2.715   1.412  0.00  0.00    +0.009 C 
ATOM     13  C   UNL     1       1.202  -2.198  -0.021  0.00  0.00    +0.034 C 
ENDBRANCH   2  13
ENDBRANCH   1  11
BRANCH   1  14
ATOM     14  C   UNL     1       5.123   3.499   1.204  0.00  0.00    -0.037 A 
ATOM     15  C   UNL     1       6.258   2.738   1.412  0.00  0.00    +0.004 A 
ATOM     16  C   UNL     1       7.037   2.953   2.534  0.00  0.00    +0.003 A 
ATOM     17  C   UNL     1       6.677   3.922   3.451  0.00  0.00    +0.033 A 
ATOM     18  C   UNL     1       5.539   4.679   3.245  0.00  0.00    +0.126 A 
ATOM     19  C   UNL     1       4.762   4.468   2.122  0.00  0.00    +0.037 A 
BRANCH  18  20
ATOM     20  N   UNL     1       5.153   5.717   4.228  0.00  0.00    +0.056 N 
ATOM     21  O   UNL     1       4.150   6.384   4.047  0.00  0.00    -0.126 OA
ATOM     22  O   UNL     1       5.838   5.903   5.218  0.00  0.00    -0.126 OA
ENDBRANCH  18  20
ENDBRANCH   1  14
BRANCH   1  23
ATOM     23  C   UNL     1       5.115   3.516  -1.276  0.00  0.00    +0.108 C 
BRANCH  23  24
ATOM     24  C   UNL     1       5.514   4.967  -1.335  0.00  0.00    +0.214 C 
ATOM     25  O   UNL     1       5.162   5.729  -0.460  0.00  0.00    -0.276 OA
ATOM     26  N   UNL     1       6.263   5.419  -2.361  0.00  0.00    -0.312 N 
ATOM     27  H   UNL     1       6.545   4.809  -3.061  0.00  0.00    +0.149 HD
BRANCH  26  28
ATOM     28  C   UNL     1       6.652   6.830  -2.418  0.00  0.00    +0.073 C 
ATOM     29  C   UNL     1       5.531   7.641  -3.071  0.00  0.00    +0.022 C 
ATOM     30  C   UNL     1       5.936   9.115  -3.132  0.00  0.00    +0.002 C 
ATOM     31  C   UNL     1       7.217   9.258  -3.957  0.00  0.00    +0.000 C 
ATOM     32  C   UNL     1       8.338   8.447  -3.304  0.00  0.00    +0.002 C 
ATOM     33  C   UNL     1       7.932   6.973  -3.244  0.00  0.00    +0.022 C 
ENDBRANCH  26  28
ENDBRANCH  23  24
ENDBRANCH   1  23
TORSDOF 7
