REMARK  Name = ZINC03532238
REMARK  8 active torsions:
REMARK  status: ('A' for Active; 'I' for Inactive)
REMARK    1  A    between atoms: C_1  and  C_2
REMARK    2  A    between atoms: C_2  and  C_3
REMARK    3  A    between atoms: C_2  and  C_4
REMARK    4  A    between atoms: C_4  and  N_5
REMARK    5  A    between atoms: C_9  and  C_11
REMARK    6  A    between atoms: C_11  and  N_12
REMARK    7  A    between atoms: C_15  and  C_19
REMARK    8  A    between atoms: C_15  and  C_20
REMARK                            x       y       z     vdW  Elec       q    Type
REMARK                         _______ _______ _______ _____ _____    ______ ____
ROOT
ATOM      1  N   UNL     1       0.532  -0.324  -0.045  0.00  0.00    -0.215 N 
ATOM      2  C   UNL     1       0.153   0.969  -0.036  0.00  0.00    +0.251 C 
ATOM      3  O   UNL     1      -0.980   1.400  -0.057  0.00  0.00    -0.272 OA
ATOM      4  C   UNL     1       1.437   1.773  -0.002  0.00  0.00    +0.136 C 
ATOM      5  N   UNL     1       2.490   0.743   0.005  0.00  0.00    -0.281 N 
ATOM      6  C   UNL     1       1.864  -0.448  -0.021  0.00  0.00    +0.310 C 
ATOM      7  O   UNL     1       2.444  -1.516  -0.024  0.00  0.00    -0.252 OA
ATOM      8  C   UNL     1       1.555   2.654  -1.248  0.00  0.00    +0.047 C 
ATOM      9  H   UNL     1       3.448   0.893   0.025  0.00  0.00    +0.152 HD
ENDROOT
BRANCH   4  10
ATOM     10  C   UNL     1       1.506   2.610   1.249  0.00  0.00    -0.008 A 
ATOM     11  C   UNL     1       2.489   2.392   2.165  0.00  0.00    +0.007 A 
ATOM     12  C   UNL     1       2.568   3.155   3.328  0.00  0.00    +0.001 A 
ATOM     13  C   UNL     1       1.666   4.142   3.582  0.00  0.00    +0.008 A 
ATOM     14  C   UNL     1       0.637   4.397   2.659  0.00  0.00    -0.018 A 
ATOM     15  C   UNL     1       0.559   3.623   1.474  0.00  0.00    -0.012 A 
ATOM     16  C   UNL     1      -0.473   3.874   0.554  0.00  0.00    +0.009 A 
ATOM     17  C   UNL     1      -1.376   4.861   0.807  0.00  0.00    +0.001 A 
ATOM     18  C   UNL     1      -1.296   5.625   1.970  0.00  0.00    +0.001 A 
ATOM     19  C   UNL     1      -0.314   5.407   2.886  0.00  0.00    +0.008 A 
ENDBRANCH   4  10
BRANCH   1  20
ATOM     20  C   UNL     1      -0.399  -1.454  -0.076  0.00  0.00    +0.214 C 
BRANCH  20  25
ATOM     21  N   UNL     1      -2.630  -4.195  -3.335  0.00  0.00    -0.299 N 
ATOM     22  C   UNL     1      -1.792  -3.176  -3.061  0.00  0.00    +0.306 C 
ATOM     23  O   UNL     1      -1.273  -2.555  -3.968  0.00  0.00    -0.252 OA
ATOM     24  N   UNL     1      -1.530  -2.845  -1.781  0.00  0.00    -0.239 N 
ATOM     25  C   UNL     1      -0.692  -1.825  -1.507  0.00  0.00    +0.238 C 
ATOM     26  O   UNL     1      -0.175  -1.206  -2.412  0.00  0.00    -0.274 OA
ATOM     27  H   UNL     1      -3.044  -4.691  -2.611  0.00  0.00    +0.150 HD
ATOM     28  H   UNL     1      -1.944  -3.340  -1.058  0.00  0.00    +0.159 HD
BRANCH  21  29
ATOM     29  C   UNL     1      -2.915  -4.555  -4.726  0.00  0.00    +0.108 C 
BRANCH  29  31
ATOM     30  C   UNL     1      -4.282  -6.032  -6.207  0.00  0.00    +0.009 C 
ATOM     31  C   UNL     1      -3.887  -5.736  -4.759  0.00  0.00    -0.000 C 
ATOM     32  C   UNL     1      -3.213  -6.968  -4.152  0.00  0.00    +0.009 C 
ENDBRANCH  29  31
ENDBRANCH  21  29
ENDBRANCH  20  25
ENDBRANCH   1  20
TORSDOF 5
