REMARK  Name = ZINC63294352
REMARK  6 active torsions:
REMARK  status: ('A' for Active; 'I' for Inactive)
REMARK    1  A    between atoms: C_1  and  C_2
REMARK    2  A    between atoms: C_2  and  C_4
REMARK    3  A    between atoms: C_7  and  N_10
REMARK    4  A    between atoms: C_14  and  N_18
REMARK    5  A    between atoms: C_26  and  O_31
REMARK    6  A    between atoms: O_31  and  C_32
REMARK                            x       y       z     vdW  Elec       q    Type
REMARK                         _______ _______ _______ _____ _____    ______ ____
ROOT
ATOM      1  N   UNL     1       1.308  -5.228  -6.800  0.00  0.00    -0.287 NA
ATOM      2  C   UNL     1       1.391  -5.405  -8.252  0.00  0.00    +0.088 C 
ATOM      3  C   UNL     1       2.783  -5.886  -8.680  0.00  0.00    +0.044 C 
ATOM      4  C   UNL     1       3.013  -7.276  -8.079  0.00  0.00    +0.109 C 
ATOM      5  C   UNL     1       2.724  -7.144  -6.588  0.00  0.00    -0.024 C 
ATOM      6  C   UNL     1       3.799  -7.595  -5.957  0.00  0.00    +0.004 A 
ATOM      7  C   UNL     1       4.090  -7.800  -4.529  0.00  0.00    +0.056 A 
ATOM      8  C   UNL     1       5.327  -8.277  -4.220  0.00  0.00    +0.131 A 
ATOM      9  C   UNL     1       6.313  -8.574  -5.171  0.00  0.00    +0.048 A 
ATOM     10  C   UNL     1       6.150  -8.429  -6.511  0.00  0.00    +0.029 A 
ATOM     11  C   UNL     1       4.849  -7.925  -6.971  0.00  0.00    +0.043 A 
ATOM     12  N   UNL     1       4.403  -7.713  -8.193  0.00  0.00    -0.377 N 
ATOM     13  C   UNL     1       1.455  -6.508  -6.076  0.00  0.00    +0.118 C 
ATOM     14  H   UNL     1       4.899  -7.820  -9.021  0.00  0.00    +0.160 HD
ENDROOT
BRANCH   1  19
ATOM     15  N   UNL     1      -0.008  -2.796  -4.896  0.00  0.00    -0.209 N 
ATOM     16  C   UNL     1      -0.115  -2.182  -6.080  0.00  0.00    +0.228 C 
ATOM     17  O   UNL     1      -0.219  -0.985  -6.243  0.00  0.00    -0.275 OA
ATOM     18  C   UNL     1      -0.085  -3.217  -7.183  0.00  0.00    +0.125 C 
ATOM     19  C   UNL     1       0.060  -4.551  -6.423  0.00  0.00    +0.153 C 
ATOM     20  C   UNL     1       0.102  -4.129  -4.970  0.00  0.00    +0.244 C 
ATOM     21  O   UNL     1       0.214  -4.878  -4.024  0.00  0.00    -0.273 OA
BRANCH  15  25
ATOM     22  C   UNL     1       0.002  -0.731  -1.275  0.00  0.00    +0.017 A 
ATOM     23  C   UNL     1       1.158  -1.388  -1.711  0.00  0.00    +0.013 A 
ATOM     24  C   UNL     1       1.150  -2.069  -2.907  0.00  0.00    +0.024 A 
ATOM     25  C   UNL     1      -0.005  -2.104  -3.682  0.00  0.00    +0.044 A 
ATOM     26  C   UNL     1      -1.157  -1.453  -3.253  0.00  0.00    +0.024 A 
ATOM     27  C   UNL     1      -1.160  -0.774  -2.055  0.00  0.00    +0.013 A 
BRANCH  22  29
ATOM     28  C   UNL     1       1.257   0.043   0.839  0.00  0.00    +0.091 C 
ATOM     29  C   UNL     1       0.005  -0.002   0.001  0.00  0.00    +0.160 C 
ATOM     30  O   UNL     1      -0.999   0.563   0.380  0.00  0.00    -0.292 OA
ENDBRANCH  22  29
ENDBRANCH  15  25
ENDBRANCH   1  19
BRANCH   8  31
ATOM     31  O   UNL     1       5.624  -8.476  -2.908  0.00  0.00    -0.406 OA
BRANCH  31  32
ATOM     32  C   UNL     1       6.928  -8.976  -2.608  0.00  0.00    +0.575 C 
ATOM     33  F   UNL     1       7.892  -8.079  -3.080  0.00  0.00    -0.133 F 
ATOM     34  F   UNL     1       7.064  -9.121  -1.223  0.00  0.00    -0.133 F 
ATOM     35  F   UNL     1       7.105 -10.219  -3.226  0.00  0.00    -0.133 F 
ENDBRANCH  31  32
ENDBRANCH   8  31
TORSDOF 5
