REMARK  Name = ZINC12566028
REMARK  5 active torsions:
REMARK  status: ('A' for Active; 'I' for Inactive)
REMARK    1  A    between atoms: C_5  and  C_7
REMARK    2  A    between atoms: C_7  and  N_8
REMARK    3  A    between atoms: C_16  and  C_18
REMARK    4  A    between atoms: C_18  and  S_19
REMARK    5  A    between atoms: S_19  and  C_20
REMARK                            x       y       z     vdW  Elec       q    Type
REMARK                         _______ _______ _______ _____ _____    ______ ____
ROOT
ATOM      1  N   UNL     1       0.224   5.779   1.405  0.00  0.00    -0.323 N 
ATOM      2  C   UNL     1       0.289   7.137   1.663  0.00  0.00    +0.131 A 
ATOM      3  C   UNL     1       0.319   7.615   3.002  0.00  0.00    +0.051 A 
ATOM      4  C   UNL     1       0.305   6.849   4.250  0.00  0.00    -0.025 A 
ATOM      5  C   UNL     1       0.349   7.552   5.400  0.00  0.00    -0.004 A 
ATOM      6  S   UNL     1       0.419   9.252   4.901  0.00  0.00    -0.073 S 
ATOM      7  C   UNL     1       0.389   9.016   3.143  0.00  0.00    +0.114 A 
ATOM      8  N   UNL     1       0.413   9.814   2.094  0.00  0.00    -0.224 NA
ATOM      9  C   UNL     1       0.378   9.311   0.875  0.00  0.00    +0.142 A 
ATOM     10  N   UNL     1       0.317   8.008   0.667  0.00  0.00    -0.216 NA
ATOM     11  C   UNL     1       0.341   7.008   6.796  0.00  0.00    +0.043 C 
ATOM     12  C   UNL     1      -0.099   5.538   6.742  0.00  0.00    +0.005 C 
ATOM     13  C   UNL     1       0.694   4.828   5.641  0.00  0.00    +0.005 C 
ATOM     14  C   UNL     1       0.237   5.324   4.269  0.00  0.00    +0.037 C 
ATOM     15  H   UNL     1       0.117   5.151   2.136  0.00  0.00    +0.148 HD
ENDROOT
BRANCH   1  16
ATOM     16  C   UNL     1       0.319   5.290   0.027  0.00  0.00    +0.158 C 
BRANCH  16  21
ATOM     17  C   UNL     1      -1.079   1.797  -0.206  0.00  0.00    +0.003 A 
ATOM     18  C   UNL     1       0.082   1.070   0.014  0.00  0.00    +0.020 A 
ATOM     19  C   UNL     1       1.269   1.744   0.224  0.00  0.00    +0.111 A 
ATOM     20  N   UNL     1       1.306   3.063   0.221  0.00  0.00    -0.258 NA
ATOM     21  C   UNL     1       0.223   3.786   0.020  0.00  0.00    +0.058 A 
ATOM     22  C   UNL     1      -1.001   3.182  -0.196  0.00  0.00    +0.025 A 
ENDBRANCH  16  21
ENDBRANCH   1  16
BRANCH   9  23
ATOM     23  C   UNL     1       0.407  10.245  -0.308  0.00  0.00    +0.150 C 
BRANCH  23  24
ATOM     24  S   UNL     1      -1.290  10.696  -0.765  0.00  0.00    -0.117 S 
BRANCH  24  25
ATOM     25  C   UNL     1      -1.088  11.774  -2.143  0.00  0.00    +0.008 A 
ATOM     26  C   UNL     1       0.185  12.081  -2.607  0.00  0.00    +0.016 A 
ATOM     27  C   UNL     1       0.340  12.922  -3.691  0.00  0.00    +0.016 A 
ATOM     28  C   UNL     1      -0.771  13.470  -4.308  0.00  0.00    +0.018 A 
ATOM     29  C   UNL     1      -2.040  13.171  -3.845  0.00  0.00    +0.016 A 
ATOM     30  C   UNL     1      -2.202  12.325  -2.765  0.00  0.00    +0.016 A 
ATOM     31 BR   UNL     1      -0.554  14.628  -5.787  0.00  0.00    -0.050 Br
ENDBRANCH  24  25
ENDBRANCH  23  24
ENDBRANCH   9  23
TORSDOF 5
