REMARK  Name = ZINC39964926
REMARK  13 active torsions:
REMARK  status: ('A' for Active; 'I' for Inactive)
REMARK    1  A    between atoms: C_1  and  C_2
REMARK    2  A    between atoms: C_2  and  O_3
REMARK    3  A    between atoms: O_3  and  C_4
REMARK    4  A    between atoms: C_4  and  C_6
REMARK    5  A    between atoms: C_8  and  N_17
REMARK    6  A    between atoms: C_18  and  C_20
REMARK    7  A    between atoms: C_20  and  S_21
REMARK    8  A    between atoms: S_21  and  C_22
REMARK    9  A    between atoms: C_24  and  C_27
REMARK   10  A    between atoms: C_29  and  O_35
REMARK   11  A    between atoms: C_31  and  O_33
REMARK   12  A    between atoms: O_33  and  C_34
REMARK   13  A    between atoms: O_35  and  C_36
REMARK                            x       y       z     vdW  Elec       q    Type
REMARK                         _______ _______ _______ _____ _____    ______ ____
ROOT
ATOM      1  N   UNL     1      -4.507  -0.794  -0.930  0.00  0.00    -0.301 N 
ATOM      2  C   UNL     1      -4.530   0.270  -1.758  0.00  0.00    +0.224 C 
ATOM      3  O   UNL     1      -3.841   0.278  -2.755  0.00  0.00    -0.275 OA
ATOM      4  H   UNL     1      -5.058  -0.800  -0.132  0.00  0.00    +0.150 HD
ENDROOT
BRANCH   1   6
ATOM      5  C   UNL     1      -2.881  -2.427   0.017  0.00  0.00    +0.155 C 
ATOM      6  C   UNL     1      -3.649  -1.941  -1.236  0.00  0.00    +0.153 C 
ATOM      7  S   UNL     1      -4.638  -3.460  -1.564  0.00  0.00    -0.106 S 
ATOM      8  C   UNL     1      -3.614  -4.627  -0.699  0.00  0.00    -0.013 C 
ATOM      9  C   UNL     1      -2.771  -3.930   0.050  0.00  0.00    -0.044 C 
ATOM     10  C   UNL     1      -1.727  -4.632   0.916  0.00  0.00    +0.032 C 
ATOM     11  C   UNL     1      -2.142  -6.088   1.122  0.00  0.00    +0.005 C 
ATOM     12  C   UNL     1      -2.421  -6.737  -0.238  0.00  0.00    +0.005 C 
ATOM     13  C   UNL     1      -3.701  -6.123  -0.811  0.00  0.00    +0.042 C 
BRANCH   5  14
ATOM     14  C   UNL     1      -1.496  -1.832   0.006  0.00  0.00    +0.317 C 
ATOM     15  O   UNL     1      -0.528  -2.555  -0.007  0.00  0.00    -0.250 OA
BRANCH  14  16
ATOM     16  O   UNL     1      -1.339  -0.499   0.012  0.00  0.00    -0.464 OA
BRANCH  16  18
ATOM     17  C   UNL     1      -0.019   1.526   0.010  0.00  0.00    +0.048 C 
ATOM     18  C   UNL     1       0.002  -0.004   0.002  0.00  0.00    +0.229 C 
ENDBRANCH  16  18
ENDBRANCH  14  16
ENDBRANCH   5  14
ENDBRANCH   1   6
BRANCH   2  19
ATOM     19  C   UNL     1      -5.413   1.450  -1.443  0.00  0.00    +0.173 C 
BRANCH  19  20
ATOM     20  S   UNL     1      -5.223   2.709  -2.735  0.00  0.00    -0.075 S 
BRANCH  20  21
ATOM     21  C   UNL     1      -6.304   4.005  -2.229  0.00  0.00    +0.212 A 
ATOM     22  N   UNL     1      -6.514   5.186  -2.882  0.00  0.00    -0.199 NA
ATOM     23  C   UNL     1      -7.431   5.873  -2.121  0.00  0.00    +0.185 A 
ATOM     24  N   UNL     1      -7.722   5.115  -1.090  0.00  0.00    -0.127 NA
ATOM     25  N   UNL     1      -7.063   4.014  -1.156  0.00  0.00    -0.120 NA
BRANCH  23  26
ATOM     26  C   UNL     1      -7.984   7.214  -2.410  0.00  0.00    +0.028 A 
ATOM     27  C   UNL     1      -7.584   7.904  -3.554  0.00  0.00    +0.057 A 
ATOM     28  C   UNL     1      -8.105   9.160  -3.821  0.00  0.00    +0.124 A 
ATOM     29  C   UNL     1      -9.023   9.731  -2.951  0.00  0.00    +0.091 A 
ATOM     30  C   UNL     1      -9.424   9.047  -1.812  0.00  0.00    +0.124 A 
ATOM     31  C   UNL     1      -8.913   7.789  -1.542  0.00  0.00    +0.057 A 
BRANCH  30  32
ATOM     32  O   UNL     1     -10.324   9.611  -0.964  0.00  0.00    -0.495 OA
ATOM     33  C   UNL     1     -10.815  10.909  -1.308  0.00  0.00    +0.277 C 
ENDBRANCH  30  32
BRANCH  28  34
ATOM     34  O   UNL     1      -7.715   9.833  -4.935  0.00  0.00    -0.495 OA
ATOM     35  C   UNL     1      -8.292  11.123  -5.148  0.00  0.00    +0.277 C 
ENDBRANCH  28  34
ENDBRANCH  23  26
ENDBRANCH  20  21
ENDBRANCH  19  20
ENDBRANCH   2  19
TORSDOF 10
