REMARK  Name = ZINC10433763
REMARK  9 active torsions:
REMARK  status: ('A' for Active; 'I' for Inactive)
REMARK    1  A    between atoms: C_1  and  C_2
REMARK    2  A    between atoms: C_5  and  C_24
REMARK    3  A    between atoms: C_6  and  C_8
REMARK    4  A    between atoms: C_8  and  S_9
REMARK    5  A    between atoms: S_9  and  C_10
REMARK    6  A    between atoms: N_19  and  C_20
REMARK    7  A    between atoms: C_20  and  C_21
REMARK    8  A    between atoms: C_21  and  C_22
REMARK    9  A    between atoms: C_21  and  C_23
REMARK                            x       y       z     vdW  Elec       q    Type
REMARK                         _______ _______ _______ _____ _____    ______ ____
ROOT
ATOM      1  C   UNL     1      -2.018  -0.993   2.354  0.00  0.00    +0.172 A 
ATOM      2  N   UNL     1      -2.573  -0.709   3.502  0.00  0.00    -0.223 NA
ATOM      3  C   UNL     1      -3.273   0.448   3.699  0.00  0.00    +0.086 A 
ATOM      4  C   UNL     1      -3.924   0.885   4.861  0.00  0.00    +0.036 A 
ATOM      5  C   UNL     1      -4.573   2.069   4.872  0.00  0.00    +0.048 A 
ATOM      6  S   UNL     1      -4.315   2.675   3.213  0.00  0.00    -0.090 S 
ATOM      7  C   UNL     1      -3.356   1.317   2.596  0.00  0.00    +0.102 A 
ATOM      8  C   UNL     1      -2.756   1.008   1.377  0.00  0.00    +0.269 A 
ATOM      9  O   UNL     1      -2.836   1.772   0.429  0.00  0.00    -0.266 OA
ATOM     10  N   UNL     1      -2.082  -0.162   1.273  0.00  0.00    -0.287 N 
ENDROOT
BRANCH   1  11
ATOM     11  S   UNL     1      -1.142  -2.514   2.197  0.00  0.00    -0.083 S 
BRANCH  11  12
ATOM     12  C   UNL     1      -1.373  -3.184   3.863  0.00  0.00    +0.112 C 
BRANCH  12  18
ATOM     13  C   UNL     1       2.699  -5.899   4.907  0.00  0.00    +0.044 C 
ATOM     14  C   UNL     1       1.260  -5.821   4.465  0.00  0.00    -0.050 A 
ATOM     15  C   UNL     1       0.569  -6.977   4.155  0.00  0.00    +0.003 A 
ATOM     16  C   UNL     1      -0.751  -6.906   3.750  0.00  0.00    +0.004 A 
ATOM     17  C   UNL     1      -1.381  -5.678   3.660  0.00  0.00    -0.046 A 
ATOM     18  C   UNL     1      -0.688  -4.522   3.966  0.00  0.00    -0.034 A 
ATOM     19  C   UNL     1       0.632  -4.594   4.370  0.00  0.00    +0.008 A 
ATOM     20  C   UNL     1      -2.821  -5.601   3.225  0.00  0.00    +0.044 C 
ENDBRANCH  12  18
ENDBRANCH  11  12
ENDBRANCH   1  11
BRANCH  10  21
ATOM     21  C   UNL     1      -1.433  -0.534   0.013  0.00  0.00    +0.130 C 
BRANCH  21  22
ATOM     22  C   UNL     1       0.002  -0.004   0.002  0.00  0.00    +0.003 C 
ATOM     23  C   UNL     1      -0.019   1.526   0.010  0.00  0.00    +0.009 C 
ATOM     24  C   UNL     1       0.718  -0.497  -1.257  0.00  0.00    +0.009 C 
ENDBRANCH  21  22
ENDBRANCH  10  21
TORSDOF 5
