REMARK  Name = ZINC04250510
REMARK  7 active torsions:
REMARK  status: ('A' for Active; 'I' for Inactive)
REMARK    1  A    between atoms: C_1  and  C_2
REMARK    2  A    between atoms: C_5  and  S_8
REMARK    3  A    between atoms: S_8  and  C_9
REMARK    4  A    between atoms: C_9  and  C_10
REMARK    5  A    between atoms: C_10  and  C_11
REMARK    6  A    between atoms: N_13  and  C_14
REMARK    7  A    between atoms: C_19  and  C_20
REMARK                            x       y       z     vdW  Elec       q    Type
REMARK                         _______ _______ _______ _____ _____    ______ ____
ROOT
ATOM      1  C   UNL     1      -0.023  -0.019  -0.002  0.00  0.00    +0.044 A 
ATOM      2  C   UNL     1       0.011   1.233  -0.599  0.00  0.00    +0.024 A 
ATOM      3  C   UNL     1       1.185   1.960  -0.616  0.00  0.00    +0.002 A 
ATOM      4  C   UNL     1       2.335   1.447  -0.040  0.00  0.00    +0.001 A 
ATOM      5  C   UNL     1       2.319   0.205   0.558  0.00  0.00    +0.013 A 
ATOM      6  C   UNL     1       1.139  -0.541   0.583  0.00  0.00    +0.038 A 
ENDROOT
BRANCH   6   7
ATOM      7  C   UNL     1       1.115  -1.872   1.223  0.00  0.00    +0.141 A 
ATOM      8  N   UNL     1       2.159  -2.437   1.906  0.00  0.00    -0.338 N 
ATOM      9  H   UNL     1       3.059  -2.028   2.058  0.00  0.00    +0.167 HD
ATOM     10  C   UNL     1       1.737  -3.677   2.345  0.00  0.00    +0.066 A 
ATOM     11  C   UNL     1       2.335  -4.695   3.075  0.00  0.00    +0.028 A 
ATOM     12  C   UNL     1       1.624  -5.843   3.356  0.00  0.00    +0.002 A 
ATOM     13  C   UNL     1       0.316  -5.986   2.915  0.00  0.00    +0.002 A 
ATOM     14  C   UNL     1      -0.289  -4.995   2.195  0.00  0.00    +0.030 A 
ATOM     15  C   UNL     1       0.412  -3.822   1.898  0.00  0.00    +0.089 A 
ATOM     16  N   UNL     1       0.090  -2.689   1.227  0.00  0.00    -0.228 NA
ENDBRANCH   6   7
BRANCH   1  19
ATOM     17  C   UNL     1      -2.392  -0.124   0.141  0.00  0.00    +0.218 C 
ATOM     18  O   UNL     1      -2.434   1.088   0.152  0.00  0.00    -0.275 OA
ATOM     19  N   UNL     1      -1.208  -0.756   0.017  0.00  0.00    -0.285 N 
ATOM     20  H   UNL     1      -1.180  -1.722  -0.060  0.00  0.00    +0.155 HD
BRANCH  17  21
ATOM     21  C   UNL     1      -3.663  -0.923   0.266  0.00  0.00    +0.107 C 
BRANCH  21  22
ATOM     22  C   UNL     1      -4.854   0.029   0.393  0.00  0.00    +0.083 C 
BRANCH  22  23
ATOM     23  S   UNL     1      -6.385  -0.934   0.543  0.00  0.00    -0.125 S 
BRANCH  23  28
ATOM     24  C   UNL     1     -10.705   3.256   1.008  0.00  0.00    +0.044 C 
ATOM     25  C   UNL     1      -9.626   2.210   0.891  0.00  0.00    -0.050 A 
ATOM     26  C   UNL     1      -9.961   0.868   0.917  0.00  0.00    +0.004 A 
ATOM     27  C   UNL     1      -8.975  -0.093   0.811  0.00  0.00    +0.015 A 
ATOM     28  C   UNL     1      -7.646   0.289   0.678  0.00  0.00    +0.008 A 
ATOM     29  C   UNL     1      -7.313   1.638   0.658  0.00  0.00    +0.015 A 
ATOM     30  C   UNL     1      -8.305   2.594   0.759  0.00  0.00    +0.004 A 
ENDBRANCH  23  28
ENDBRANCH  22  23
ENDBRANCH  21  22
ENDBRANCH  17  21
ENDBRANCH   1  19
TORSDOF 6
