REMARK  Name = ZINC37937433
REMARK  8 active torsions:
REMARK  status: ('A' for Active; 'I' for Inactive)
REMARK    1  A    between atoms: C_1  and  C_2
REMARK    2  A    between atoms: C_2  and  O_3
REMARK    3  A    between atoms: O_3  and  C_4
REMARK    4  A    between atoms: C_6  and  C_11
REMARK    5  A    between atoms: C_9  and  O_10
REMARK    6  A    between atoms: C_11  and  C_13
REMARK    7  A    between atoms: C_11  and  N_15
REMARK    8  A    between atoms: N_15  and  C_16
REMARK                            x       y       z     vdW  Elec       q    Type
REMARK                         _______ _______ _______ _____ _____    ______ ____
ROOT
ATOM      1  C   UNL     1       0.654  -4.954  -0.018  0.00  0.00    +0.205 C 
ENDROOT
BRANCH   1   4
ATOM      2  C   UNL     1      -1.498  -1.849   0.006  0.00  0.00    +0.162 A 
ATOM      3  C   UNL     1      -0.389  -2.680  -0.003  0.00  0.00    +0.056 A 
ATOM      4  C   UNL     1      -0.553  -4.052  -0.008  0.00  0.00    -0.010 A 
ATOM      5  C   UNL     1      -1.823  -4.600  -0.005  0.00  0.00    +0.010 A 
ATOM      6  C   UNL     1      -2.934  -3.777   0.004  0.00  0.00    +0.049 A 
ATOM      7  C   UNL     1      -2.776  -2.400   0.016  0.00  0.00    +0.158 A 
BRANCH   7   8
ATOM      8  O   UNL     1      -3.868  -1.589   0.030  0.00  0.00    -0.503 OA
ATOM      9  H   UNL     1      -4.192  -1.350  -0.849  0.00  0.00    +0.292 HD
ENDBRANCH   7   8
BRANCH   2  10
ATOM     10  O   UNL     1      -1.339  -0.499   0.012  0.00  0.00    -0.489 OA
BRANCH  10  12
ATOM     11  C   UNL     1      -0.019   1.526   0.010  0.00  0.00    +0.048 C 
ATOM     12  C   UNL     1       0.002  -0.004   0.002  0.00  0.00    +0.226 C 
ENDBRANCH  10  12
ENDBRANCH   2  10
ENDBRANCH   1   4
BRANCH   1  13
ATOM     13  C   UNL     1       0.910  -5.447   1.345  0.00  0.00    +0.090 C 
ATOM     14  N   UNL     1       1.107  -5.827   2.397  0.00  0.00    -0.194 NA
ENDBRANCH   1  13
BRANCH   1  15
ATOM     15  N   UNL     1       0.408  -6.090  -0.910  0.00  0.00    -0.325 N 
ATOM     16  H   UNL     1      -0.501  -6.376  -1.092  0.00  0.00    +0.148 HD
BRANCH  15  17
ATOM     17  C   UNL     1       1.482  -6.762  -1.498  0.00  0.00    +0.029 A 
ATOM     18  C   UNL     1       2.784  -6.357  -1.234  0.00  0.00    +0.023 A 
ATOM     19  C   UNL     1       3.845  -7.023  -1.817  0.00  0.00    +0.003 A 
ATOM     20  C   UNL     1       3.611  -8.091  -2.664  0.00  0.00    +0.015 A 
ATOM     21  C   UNL     1       2.315  -8.497  -2.929  0.00  0.00    +0.020 A 
ATOM     22  C   UNL     1       1.250  -7.839  -2.344  0.00  0.00    +0.038 A 
ATOM     23 BR   UNL     1       2.001  -9.958  -4.087  0.00  0.00    -0.050 Br
ENDBRANCH  15  17
ENDBRANCH   1  15
TORSDOF 7
