REMARK  Name = ZINC44861071
REMARK  9 active torsions:
REMARK  status: ('A' for Active; 'I' for Inactive)
REMARK    1  A    between atoms: C_1  and  C_2
REMARK    2  A    between atoms: C_6  and  C_20
REMARK    3  A    between atoms: C_7  and  N_8
REMARK    4  A    between atoms: C_9  and  C_11
REMARK    5  A    between atoms: C_11  and  C_13
REMARK    6  A    between atoms: C_11  and  C_16
REMARK    7  A    between atoms: C_13  and  C_14
REMARK    8  A    between atoms: C_13  and  C_15
REMARK    9  A    between atoms: N_17  and  O_18
REMARK                            x       y       z     vdW  Elec       q    Type
REMARK                         _______ _______ _______ _____ _____    ______ ____
ROOT
ATOM      1  N   UNL     1       0.057  -0.028   2.238  0.00  0.00    -0.284 N 
ATOM      2  C   UNL     1      -0.364  -0.405   3.462  0.00  0.00    +0.228 C 
ATOM      3  O   UNL     1      -0.937  -1.464   3.606  0.00  0.00    -0.275 OA
ATOM      4  H   UNL     1       0.552   0.799   2.130  0.00  0.00    +0.155 HD
ENDROOT
BRANCH   1  11
ATOM      5  C   UNL     1       2.169  -0.564   0.409  0.00  0.00    +0.046 C 
ATOM      6  C   UNL     1       0.781  -1.115   0.207  0.00  0.00    -0.028 A 
ATOM      7  C   UNL     1       0.505  -1.910  -0.888  0.00  0.00    +0.020 A 
ATOM      8  C   UNL     1      -0.769  -2.417  -1.074  0.00  0.00    +0.018 A 
ATOM      9  C   UNL     1      -1.770  -2.128  -0.164  0.00  0.00    +0.020 A 
ATOM     10  C   UNL     1      -1.501  -1.333   0.932  0.00  0.00    -0.028 A 
ATOM     11  C   UNL     1      -0.221  -0.828   1.125  0.00  0.00    +0.039 A 
ATOM     12  C   UNL     1      -2.592  -1.018   1.923  0.00  0.00    +0.046 C 
ATOM     13 BR   UNL     1      -1.142  -3.505  -2.575  0.00  0.00    -0.050 Br
ENDBRANCH   1  11
BRANCH   2  14
ATOM     14  C   UNL     1      -0.122   0.488   4.651  0.00  0.00    +0.144 C 
BRANCH  14  15
ATOM     15  C   UNL     1      -0.205  -0.326   5.916  0.00  0.00    +0.144 C 
ATOM     16  N   UNL     1      -1.314  -0.385   6.575  0.00  0.00    -0.076 NA
ATOM     17  N   UNL     1       0.902  -1.008   6.370  0.00  0.00    -0.343 N 
ATOM     18  H   UNL     1       1.736  -0.965   5.875  0.00  0.00    +0.144 HD
ATOM     19  H   UNL     1       0.849  -1.533   7.184  0.00  0.00    +0.144 HD
BRANCH  16  20
ATOM     20  O   UNL     1      -1.392  -1.150   7.764  0.00  0.00    -0.408 OA
ATOM     21  H   UNL     1      -2.262  -1.133   8.187  0.00  0.00    +0.328 HD
ENDBRANCH  16  20
ENDBRANCH  14  15
BRANCH  14  22
ATOM     22  C   UNL     1      -1.181   1.591   4.684  0.00  0.00    +0.002 C 
ATOM     23  C   UNL     1      -0.933   2.501   5.889  0.00  0.00    +0.008 C 
ATOM     24  C   UNL     1      -1.100   2.415   3.398  0.00  0.00    +0.008 C 
ENDBRANCH  14  22
ENDBRANCH   2  14
TORSDOF 5
