REMARK  Name = ZINC08404148
REMARK  6 active torsions:
REMARK  status: ('A' for Active; 'I' for Inactive)
REMARK    1  A    between atoms: C_1  and  C_2
REMARK    2  A    between atoms: C_5  and  C_8
REMARK    3  A    between atoms: C_8  and  O_9
REMARK    4  A    between atoms: O_9  and  C_10
REMARK    5  A    between atoms: C_13  and  C_16
REMARK    6  A    between atoms: N_17  and  N_18
REMARK                            x       y       z     vdW  Elec       q    Type
REMARK                         _______ _______ _______ _____ _____    ______ ____
ROOT
ATOM      1  C   UNL     1       1.611  -6.077  -0.029  0.00  0.00    +0.121 A 
ATOM      2  C   UNL     1       0.518  -6.935  -0.024  0.00  0.00    +0.046 A 
ATOM      3  C   UNL     1       0.711  -8.300  -0.034  0.00  0.00    +0.013 A 
ATOM      4  C   UNL     1       2.008  -8.820  -0.047  0.00  0.00    -0.005 A 
ATOM      5  C   UNL     1       3.104  -7.953  -0.051  0.00  0.00    +0.013 A 
ATOM      6  C   UNL     1       2.902  -6.590  -0.048  0.00  0.00    +0.046 A 
ENDROOT
BRANCH   4   7
ATOM      7  C   UNL     1       2.219 -10.279  -0.057  0.00  0.00    +0.139 C 
ATOM      8  N   UNL     1       3.424 -10.760  -0.070  0.00  0.00    -0.176 NA
BRANCH   8   9
ATOM      9  N   UNL     1       3.627 -12.143   0.028  0.00  0.00    -0.109 N 
ATOM     10  C   UNL     1       2.635 -13.057   0.027  0.00  0.00    +0.266 C 
ATOM     11  O   UNL     1       1.444 -12.847  -0.056  0.00  0.00    -0.271 OA
ATOM     12  C   UNL     1       3.322 -14.398   0.149  0.00  0.00    +0.114 C 
ATOM     13  C   UNL     1       3.027 -15.260  -1.073  0.00  0.00    +0.035 C 
ATOM     14  C   UNL     1       3.756 -16.600  -0.943  0.00  0.00    +0.003 C 
ATOM     15  C   UNL     1       3.288 -17.312   0.328  0.00  0.00    +0.000 C 
ATOM     16  C   UNL     1       3.611 -16.446   1.547  0.00  0.00    +0.003 C 
ATOM     17  C   UNL     1       2.882 -15.105   1.427  0.00  0.00    +0.035 C 
ATOM     18  N   UNL     1       4.750 -14.063   0.212  0.00  0.00    -0.283 N 
ATOM     19  C   UNL     1       4.830 -12.721   0.128  0.00  0.00    +0.330 C 
ATOM     20  O   UNL     1       5.878 -12.104   0.146  0.00  0.00    -0.250 OA
ATOM     21  H   UNL     1       5.489 -14.685   0.293  0.00  0.00    +0.151 HD
ENDBRANCH   8   9
ENDBRANCH   4   7
BRANCH   1  22
ATOM     22  O   UNL     1       1.416  -4.733  -0.019  0.00  0.00    -0.487 OA
BRANCH  22  23
ATOM     23  C   UNL     1       0.064  -4.273   0.001  0.00  0.00    +0.264 C 
BRANCH  23  28
ATOM     24  C   UNL     1      -0.011   1.505   0.030  0.00  0.00    +0.044 C 
ATOM     25  C   UNL     1       0.009  -0.002   0.022  0.00  0.00    -0.050 A 
ATOM     26  C   UNL     1       0.003  -0.687  -1.178  0.00  0.00    +0.004 A 
ATOM     27  C   UNL     1       0.021  -2.070  -1.185  0.00  0.00    +0.007 A 
ATOM     28  C   UNL     1       0.045  -2.767   0.008  0.00  0.00    -0.010 A 
ATOM     29  C   UNL     1       0.051  -2.081   1.209  0.00  0.00    +0.007 A 
ATOM     30  C   UNL     1       0.038  -0.699   1.216  0.00  0.00    +0.004 A 
ENDBRANCH  23  28
ENDBRANCH  22  23
ENDBRANCH   1  22
TORSDOF 5
