REMARK  Name = ZINC64338124
REMARK  10 active torsions:
REMARK  status: ('A' for Active; 'I' for Inactive)
REMARK    1  A    between atoms: C_1  and  C_2
REMARK    2  A    between atoms: C_4  and  C_12
REMARK    3  A    between atoms: C_18  and  C_20
REMARK    4  A    between atoms: C_20  and  C_22
REMARK    5  A    between atoms: C_20  and  N_25
REMARK    6  A    between atoms: C_22  and  C_23
REMARK    7  A    between atoms: C_22  and  C_24
REMARK    8  A    between atoms: C_26  and  C_28
REMARK    9  A    between atoms: C_31  and  O_34
REMARK   10  A    between atoms: O_34  and  C_35
REMARK                            x       y       z     vdW  Elec       q    Type
REMARK                         _______ _______ _______ _____ _____    ______ ____
ROOT
ATOM      1  C   UNL     1      -2.499   0.912  -0.479  0.00  0.00    +0.079 A 
ATOM      2  C   UNL     1      -3.355  -0.183  -0.477  0.00  0.00    +0.076 A 
ATOM      3  S   UNL     1      -4.101  -0.063  -1.980  0.00  0.00    -0.060 S 
ATOM      4  C   UNL     1      -3.279   1.407  -2.566  0.00  0.00    +0.165 A 
ATOM      5  N   UNL     1      -2.488   1.706  -1.557  0.00  0.00    -0.225 NA
ATOM      6  N   UNL     1      -3.435   2.070  -3.774  0.00  0.00    -0.263 N 
ATOM      7  C   UNL     1      -4.310   1.605  -4.689  0.00  0.00    +0.239 C 
ATOM      8  O   UNL     1      -5.022   0.661  -4.422  0.00  0.00    -0.273 OA
ATOM      9  H   UNL     1      -2.916   2.867  -3.961  0.00  0.00    +0.157 HD
ENDROOT
BRANCH   1  12
ATOM     10  C   UNL     1      -0.902  -1.041   1.459  0.00  0.00    +0.035 C 
ATOM     11  C   UNL     1      -1.472   0.322   1.857  0.00  0.00    +0.109 C 
ATOM     12  C   UNL     1      -1.668   1.183   0.629  0.00  0.00    +0.009 C 
ATOM     13  C   UNL     1      -0.858   2.300   0.820  0.00  0.00    +0.005 A 
ATOM     14  C   UNL     1      -0.613   3.446   0.032  0.00  0.00    +0.010 A 
ATOM     15  C   UNL     1       0.247   4.397   0.477  0.00  0.00    +0.001 A 
ATOM     16  C   UNL     1       0.903   4.274   1.703  0.00  0.00    +0.002 A 
ATOM     17  C   UNL     1       0.716   3.201   2.511  0.00  0.00    +0.026 A 
ATOM     18  C   UNL     1      -0.169   2.166   2.114  0.00  0.00    +0.043 A 
ATOM     19  N   UNL     1      -0.517   1.040   2.708  0.00  0.00    -0.377 N 
ATOM     20  H   UNL     1      -0.194   0.735   3.570  0.00  0.00    +0.160 HD
ENDBRANCH   1  12
BRANCH   7  21
ATOM     21  C   UNL     1      -4.402   2.260  -6.043  0.00  0.00    +0.162 C 
BRANCH  21  22
ATOM     22  N   UNL     1      -5.766   2.121  -6.560  0.00  0.00    -0.300 N 
ATOM     23  C   UNL     1      -6.239   3.006  -7.460  0.00  0.00    +0.245 C 
ATOM     24  O   UNL     1      -5.535   3.920  -7.841  0.00  0.00    -0.270 OA
ATOM     25  H   UNL     1      -6.328   1.391  -6.256  0.00  0.00    +0.150 HD
BRANCH  23  26
ATOM     26  C   UNL     1      -7.613   2.865  -7.981  0.00  0.00    +0.037 A 
ATOM     27  C   UNL     1      -8.426   1.818  -7.539  0.00  0.00    +0.016 A 
ATOM     28  C   UNL     1      -9.707   1.691  -8.028  0.00  0.00    +0.046 A 
ATOM     29  C   UNL     1     -10.192   2.601  -8.960  0.00  0.00    +0.120 A 
ATOM     30  C   UNL     1      -9.386   3.644  -9.402  0.00  0.00    +0.046 A 
ATOM     31  C   UNL     1      -8.106   3.782  -8.914  0.00  0.00    +0.016 A 
BRANCH  29  32
ATOM     32  O   UNL     1     -11.455   2.471  -9.439  0.00  0.00    -0.495 OA
ATOM     33  C   UNL     1     -11.889   3.442 -10.394  0.00  0.00    +0.277 C 
ENDBRANCH  29  32
ENDBRANCH  23  26
ENDBRANCH  21  22
BRANCH  21  34
ATOM     34  C   UNL     1      -3.421   1.587  -7.004  0.00  0.00    +0.012 C 
ATOM     35  C   UNL     1      -3.499   2.267  -8.372  0.00  0.00    +0.009 C 
ATOM     36  C   UNL     1      -1.999   1.713  -6.452  0.00  0.00    +0.009 C 
ENDBRANCH  21  34
ENDBRANCH   7  21
TORSDOF 6
