REMARK  Name = ZINC08917726
REMARK  8 active torsions:
REMARK  status: ('A' for Active; 'I' for Inactive)
REMARK    1  A    between atoms: C_1  and  C_2
REMARK    2  A    between atoms: C_8  and  C_36
REMARK    3  A    between atoms: C_9  and  O_35
REMARK    4  A    between atoms: C_19  and  C_21
REMARK    5  A    between atoms: C_21  and  N_68
REMARK    6  A    between atoms: N_24  and  C_27
REMARK    7  A    between atoms: C_32  and  O_33
REMARK    8  A    between atoms: O_33  and  C_34
REMARK                            x       y       z     vdW  Elec       q    Type
REMARK                         _______ _______ _______ _____ _____    ______ ____
ROOT
ATOM      1  C   UNL     1       3.325   1.977  -1.690  0.00  0.00    +0.008 C 
ATOM      2  C   UNL     1       1.973   1.325  -1.435  0.00  0.00    -0.001 C 
ATOM      3  C   UNL     1       1.350   1.930  -0.176  0.00  0.00    +0.008 C 
ATOM      4  C   UNL     1      -0.097   1.419  -0.093  0.00  0.00    +0.027 C 
ATOM      5  C   UNL     1      -0.034  -0.081  -0.016  0.00  0.00    -0.027 C 
ATOM      6  C   UNL     1       0.924  -0.767  -0.559  0.00  0.00    -0.061 C 
ATOM      7  C   UNL     1       2.065  -0.189  -1.351  0.00  0.00    +0.018 C 
ATOM      8  C   UNL     1       3.385  -0.678  -0.788  0.00  0.00    +0.132 C 
ATOM      9  C   UNL     1       3.433  -2.080  -0.255  0.00  0.00    +0.071 C 
ATOM     10  C   UNL     1       2.175  -2.638   0.418  0.00  0.00    +0.187 C 
ATOM     11  C   UNL     1       0.914  -2.273  -0.381  0.00  0.00    +0.076 C 
ATOM     12  O   UNL     1       2.321  -4.094   0.304  0.00  0.00    -0.460 OA
ATOM     13  C   UNL     1       3.161  -4.422  -0.686  0.00  0.00    +0.309 C 
ATOM     14  O   UNL     1       3.405  -5.551  -1.056  0.00  0.00    -0.251 OA
ATOM     15  C   UNL     1       3.773  -3.165  -1.288  0.00  0.00    +0.090 C 
ATOM     16  C   UNL     1       1.933  -0.703  -2.796  0.00  0.00    +0.018 C 
ENDROOT
BRANCH   8  17
ATOM     17  O   UNL     1       4.394  -0.580  -1.811  0.00  0.00    -0.391 OA
ATOM     18  H   UNL     1       5.291  -0.759  -1.497  0.00  0.00    +0.210 HD
ENDBRANCH   8  17
BRANCH  15  19
ATOM     19  C   UNL     1       5.293  -3.345  -1.408  0.00  0.00    -0.064 C 
BRANCH  19  25
ATOM     20  C   UNL     1       6.943  -4.882  -2.292  0.00  0.00    -0.060 C 
ATOM     21  C   UNL     1       7.181  -5.965  -3.346  0.00  0.00    +0.086 C 
ATOM     22  N   UNL     1       7.002  -5.388  -4.686  0.00  0.00    -0.331 N 
ATOM     23  C   UNL     1       5.647  -4.843  -4.846  0.00  0.00    +0.086 C 
ATOM     24  C   UNL     1       5.409  -3.760  -3.791  0.00  0.00    -0.060 C 
ATOM     25  N   UNL     1       5.570  -4.358  -2.449  0.00  0.00    +0.382 N 
ATOM     26  H   UNL     1       4.903  -5.132  -2.346  0.00  0.00    -0.082 HD
BRANCH  22  27
ATOM     27  C   UNL     1       7.283  -6.333  -5.680  0.00  0.00    +0.072 A 
ATOM     28  C   UNL     1       7.470  -7.665  -5.341  0.00  0.00    +0.027 A 
ATOM     29  C   UNL     1       7.742  -8.597  -6.325  0.00  0.00    +0.002 A 
ATOM     30  C   UNL     1       7.839  -8.203  -7.647  0.00  0.00    +0.004 A 
ATOM     31  C   UNL     1       7.659  -6.876  -7.992  0.00  0.00    +0.047 A 
ATOM     32  C   UNL     1       7.381  -5.937  -7.013  0.00  0.00    +0.141 A 
BRANCH  32  33
ATOM     33  O   UNL     1       7.203  -4.631  -7.351  0.00  0.00    -0.493 OA
ATOM     34  C   UNL     1       7.318  -4.298  -8.735  0.00  0.00    +0.277 C 
ENDBRANCH  32  33
ENDBRANCH  22  27
ENDBRANCH  19  25
ENDBRANCH  15  19
TORSDOF 5
