REMARK  Name = ZINC13943630
REMARK  13 active torsions:
REMARK  status: ('A' for Active; 'I' for Inactive)
REMARK    1  A    between atoms: C_1  and  C_2
REMARK    2  A    between atoms: C_2  and  C_3
REMARK    3  A    between atoms: C_3  and  C_4
REMARK    4  A    between atoms: C_4  and  C_5
REMARK    5  A    between atoms: C_11  and  C_12
REMARK    6  A    between atoms: C_14  and  O_29
REMARK    7  A    between atoms: C_15  and  O_19
REMARK    8  A    between atoms: O_19  and  C_20
REMARK    9  A    between atoms: C_20  and  C_21
REMARK   10  A    between atoms: C_21  and  O_22
REMARK   11  A    between atoms: O_22  and  C_23
REMARK   12  A    between atoms: O_29  and  C_30
REMARK   13  A    between atoms: C_30  and  C_31
REMARK                            x       y       z     vdW  Elec       q    Type
REMARK                         _______ _______ _______ _____ _____    ______ ____
ROOT
ATOM      1  C   UNL     1      -8.820  -0.767   1.204  0.00  0.00    -0.019 A 
ATOM      2  C   UNL     1      -9.887  -0.244   1.948  0.00  0.00    +0.057 A 
ATOM      3  C   UNL     1     -10.061   1.123   2.031  0.00  0.00    +0.164 A 
ATOM      4  C   UNL     1      -9.176   1.980   1.377  0.00  0.00    +0.180 A 
ATOM      5  C   UNL     1      -8.117   1.464   0.639  0.00  0.00    +0.087 A 
ATOM      6  C   UNL     1      -7.933   0.101   0.554  0.00  0.00    +0.032 A 
ATOM      7 CL   UNL     1      -7.022   2.538  -0.173  0.00  0.00    -0.080 Cl
ENDROOT
BRANCH   1  14
ATOM      8  C   UNL     1      -5.312  -2.124  -3.784  0.00  0.00    +0.100 C 
ATOM      9  N   UNL     1      -6.253  -1.623  -3.036  0.00  0.00    -0.169 NA
ATOM     10  N   UNL     1      -6.906  -2.392  -2.097  0.00  0.00    -0.152 N 
ATOM     11  C   UNL     1      -7.994  -1.975  -1.300  0.00  0.00    +0.152 C 
ATOM     12  N   UNL     1      -8.782  -0.985  -1.624  0.00  0.00    -0.283 NA
ATOM     13  C   UNL     1      -8.155  -2.776  -0.054  0.00  0.00    +0.081 C 
ATOM     14  C   UNL     1      -8.630  -2.217   1.111  0.00  0.00    +0.024 C 
ATOM     15  C   UNL     1      -7.777  -4.209  -0.136  0.00  0.00    +0.273 C 
ATOM     16  O   UNL     1      -8.267  -5.032   0.620  0.00  0.00    -0.268 OA
ATOM     17  N   UNL     1      -6.878  -4.574  -1.071  0.00  0.00    -0.152 NA
ATOM     18  C   UNL     1      -6.470  -3.691  -1.947  0.00  0.00    +0.181 C 
ATOM     19  S   UNL     1      -5.240  -3.818  -3.219  0.00  0.00    -0.038 S 
ATOM     20  H   UNL     1      -8.591  -0.450  -2.411  0.00  0.00    +0.188 HD
BRANCH   8  21
ATOM     21  C   UNL     1      -4.497  -1.450  -4.858  0.00  0.00    +0.064 C 
BRANCH  21  22
ATOM     22  C   UNL     1      -4.926   0.014  -4.979  0.00  0.00    +0.006 C 
BRANCH  22  24
ATOM     23  C   UNL     1      -4.527   2.162  -6.191  0.00  0.00    +0.004 C 
ATOM     24  C   UNL     1      -4.098   0.698  -6.069  0.00  0.00    -0.003 C 
ENDBRANCH  22  24
ENDBRANCH  21  22
ENDBRANCH   8  21
ENDBRANCH   1  14
BRANCH   4  25
ATOM     25  O   UNL     1      -9.349   3.324   1.462  0.00  0.00    -0.483 OA
BRANCH  25  26
ATOM     26  C   UNL     1      -8.694   3.997   2.539  0.00  0.00    +0.270 C 
BRANCH  26  27
ATOM     27  C   UNL     1      -9.004   5.493   2.470  0.00  0.00    +0.270 C 
BRANCH  27  28
ATOM     28  O   UNL     1     -10.401   5.701   2.689  0.00  0.00    -0.489 OA
BRANCH  28  29
ATOM     29  C   UNL     1     -10.846   6.985   2.660  0.00  0.00    +0.121 A 
ATOM     30  C   UNL     1      -9.957   8.023   2.421  0.00  0.00    +0.045 A 
ATOM     31  C   UNL     1     -10.412   9.327   2.391  0.00  0.00    +0.004 A 
ATOM     32  C   UNL     1     -11.752   9.598   2.601  0.00  0.00    +0.000 A 
ATOM     33  C   UNL     1     -12.639   8.565   2.840  0.00  0.00    +0.004 A 
ATOM     34  C   UNL     1     -12.191   7.259   2.864  0.00  0.00    +0.045 A 
ENDBRANCH  28  29
ENDBRANCH  27  28
ENDBRANCH  26  27
ENDBRANCH  25  26
ENDBRANCH   4  25
BRANCH   3  35
ATOM     35  O   UNL     1     -11.095   1.633   2.752  0.00  0.00    -0.489 OA
BRANCH  35  36
ATOM     36  C   UNL     1     -11.962   0.698   3.396  0.00  0.00    +0.226 C 
ATOM     37  C   UNL     1     -13.056   1.453   4.152  0.00  0.00    +0.048 C 
ENDBRANCH  35  36
ENDBRANCH   3  35
TORSDOF 11
