REMARK  Name = ZINC15709458
REMARK  8 active torsions:
REMARK  status: ('A' for Active; 'I' for Inactive)
REMARK    1  A    between atoms: C_1  and  C_2
REMARK    2  A    between atoms: C_8  and  C_10
REMARK    3  A    between atoms: C_10  and  C_11
REMARK    4  A    between atoms: C_13  and  O_33
REMARK    5  A    between atoms: C_19  and  C_32
REMARK    6  A    between atoms: C_24  and  C_31
REMARK    7  A    between atoms: C_27  and  C_30
REMARK    8  A    between atoms: C_30  and  N_69
REMARK                            x       y       z     vdW  Elec       q    Type
REMARK                         _______ _______ _______ _____ _____    ______ ____
ROOT
ATOM      1  C   UNL     1      -4.361   1.074   1.844  0.00  0.00    +0.032 C 
ATOM      2  C   UNL     1      -4.425   1.027   0.327  0.00  0.00    +0.119 C 
ATOM      3  C   UNL     1      -3.164   0.363  -0.220  0.00  0.00    +0.032 C 
ATOM      4  C   UNL     1      -1.945   1.179   0.211  0.00  0.00    +0.007 C 
ATOM      5  C   UNL     1      -1.829   1.238   1.738  0.00  0.00    +0.006 C 
ATOM      6  C   UNL     1      -3.104   1.794   2.351  0.00  0.00    -0.023 C 
ATOM      7  C   UNL     1      -3.259   3.286   2.057  0.00  0.00    +0.010 C 
ATOM      8  C   UNL     1      -2.017   4.070   2.474  0.00  0.00    +0.033 C 
ATOM      9  C   UNL     1      -0.798   3.533   1.724  0.00  0.00    +0.130 C 
ATOM     10  C   UNL     1      -0.592   2.059   2.087  0.00  0.00    +0.021 C 
ATOM     11  C   UNL     1      -0.188   1.974   3.561  0.00  0.00    +0.172 C 
ATOM     12  O   UNL     1       1.049   2.712   3.686  0.00  0.00    -0.353 OA
ATOM     13  C   UNL     1       0.851   4.105   3.409  0.00  0.00    +0.233 C 
ATOM     14  O   UNL     1       0.366   4.277   2.081  0.00  0.00    -0.349 OA
ATOM     15  C   UNL     1       0.614   1.540   1.278  0.00  0.00    +0.016 C 
ATOM     16  C   UNL     1      -3.118   1.574   3.875  0.00  0.00    +0.012 C 
ENDROOT
BRANCH   2  17
ATOM     17  O   UNL     1      -5.573   0.277  -0.086  0.00  0.00    -0.391 OA
ATOM     18  H   UNL     1      -5.673   0.208  -1.045  0.00  0.00    +0.210 HD
ENDBRANCH   2  17
BRANCH   1  19
ATOM     19  C   UNL     1      -4.421  -0.336   2.434  0.00  0.00    +0.102 C 
BRANCH  19  27
ATOM     20  C   UNL     1      -7.216  -5.138   5.370  0.00  0.00    +0.007 C 
ATOM     21  C   UNL     1      -6.768  -4.447   4.081  0.00  0.00    -0.011 C 
ATOM     22  C   UNL     1      -7.827  -3.427   3.655  0.00  0.00    +0.022 C 
ATOM     23  C   UNL     1      -7.393  -2.762   2.345  0.00  0.00    +0.108 C 
ATOM     24  N   UNL     1      -6.049  -2.196   2.526  0.00  0.00    -0.301 N 
ATOM     25  C   UNL     1      -4.974  -3.071   3.014  0.00  0.00    +0.108 C 
ATOM     26  C   UNL     1      -5.437  -3.731   4.321  0.00  0.00    +0.022 C 
ATOM     27  C   UNL     1      -5.805  -0.901   2.244  0.00  0.00    +0.216 C 
ATOM     28  O   UNL     1      -6.700  -0.191   1.837  0.00  0.00    -0.276 OA
ENDBRANCH  19  27
ENDBRANCH   1  19
BRANCH  13  29
ATOM     29  C   UNL     1       2.185   4.840   3.567  0.00  0.00    -0.024 C 
BRANCH  29  32
ATOM     30  H   UNL     1       2.823   4.326   1.678  0.00  0.00    -0.090 HD
ATOM     31  H   UNL     1       4.055   4.751   2.711  0.00  0.00    -0.090 HD
ATOM     32  N   UNL     1       3.167   4.258   2.634  0.00  0.00    +0.381 N 
ATOM     33  H   UNL     1       3.311   3.269   2.869  0.00  0.00    -0.090 HD
ENDBRANCH  29  32
ENDBRANCH  13  29
TORSDOF 5
