REMARK  Name = ZINC01922723
REMARK  5 active torsions:
REMARK  status: ('A' for Active; 'I' for Inactive)
REMARK    1  A    between atoms: C_4  and  C_7
REMARK    2  A    between atoms: C_7  and  S_8
REMARK    3  A    between atoms: S_8  and  C_9
REMARK    4  A    between atoms: N_13  and  C_14
REMARK    5  A    between atoms: C_14  and  C_15
REMARK                            x       y       z     vdW  Elec       q    Type
REMARK                         _______ _______ _______ _____ _____    ______ ____
ROOT
ATOM      1  C   UNL     1      -1.905  -0.303  -0.172  0.00  0.00    +0.193 A 
ATOM      2  N   UNL     1      -2.943   0.283   0.373  0.00  0.00    -0.121 NA
ATOM      3  N   UNL     1      -3.963  -0.669   0.496  0.00  0.00    -0.113 NA
ATOM      4  C   UNL     1      -3.515  -1.806   0.022  0.00  0.00    +0.215 A 
ATOM      5  N   UNL     1      -2.234  -1.608  -0.408  0.00  0.00    -0.286 N 
ATOM      6  N   UNL     1      -4.222  -3.000  -0.038  0.00  0.00    -0.328 N 
ATOM      7  H   UNL     1      -5.190  -2.995   0.024  0.00  0.00    +0.145 HD
ATOM      8  H   UNL     1      -3.747  -3.840  -0.141  0.00  0.00    +0.145 HD
ENDROOT
BRANCH   1   9
ATOM      9  S   UNL     1      -0.361   0.460  -0.543  0.00  0.00    -0.081 S 
BRANCH   9  10
ATOM     10  C   UNL     1      -0.578   2.177   0.002  0.00  0.00    +0.112 C 
BRANCH  10  14
ATOM     11  C   UNL     1       3.010   4.372  -0.744  0.00  0.00    +0.000 A 
ATOM     12  C   UNL     1       2.024   4.310  -1.710  0.00  0.00    +0.000 A 
ATOM     13  C   UNL     1       0.863   3.600  -1.469  0.00  0.00    +0.004 A 
ATOM     14  C   UNL     1       0.688   2.951  -0.261  0.00  0.00    -0.037 A 
ATOM     15  C   UNL     1       1.673   3.017   0.708  0.00  0.00    +0.004 A 
ATOM     16  C   UNL     1       2.836   3.723   0.464  0.00  0.00    +0.000 A 
ENDBRANCH  10  14
ENDBRANCH   9  10
ENDBRANCH   1   9
BRANCH   5  17
ATOM     17  C   UNL     1      -1.364  -2.619  -1.014  0.00  0.00    +0.165 C 
BRANCH  17  18
ATOM     18  C   UNL     1      -1.435  -2.509  -2.515  0.00  0.00    +0.009 A 
ATOM     19  C   UNL     1      -2.469  -3.116  -3.205  0.00  0.00    +0.047 A 
ATOM     20  C   UNL     1      -2.538  -3.011  -4.583  0.00  0.00    +0.020 A 
ATOM     21  C   UNL     1      -1.567  -2.307  -5.271  0.00  0.00    +0.003 A 
ATOM     22  C   UNL     1      -0.531  -1.705  -4.583  0.00  0.00    +0.020 A 
ATOM     23  C   UNL     1      -0.464  -1.805  -3.205  0.00  0.00    +0.047 A 
ATOM     24 CL   UNL     1       0.837  -1.048  -2.341  0.00  0.00    -0.083 Cl
ATOM     25 CL   UNL     1      -3.684  -4.006  -2.342  0.00  0.00    -0.083 Cl
ENDBRANCH  17  18
ENDBRANCH   5  17
TORSDOF 5
