REMARK  Name = ZINC00654455
REMARK  6 active torsions:
REMARK  status: ('A' for Active; 'I' for Inactive)
REMARK    1  A    between atoms: C_1  and  C_2
REMARK    2  A    between atoms: C_5  and  C_7
REMARK    3  A    between atoms: C_9  and  C_17
REMARK    4  A    between atoms: C_20  and  C_27
REMARK    5  A    between atoms: C_20  and  O_30
REMARK    6  A    between atoms: C_22  and  C_24
REMARK                            x       y       z     vdW  Elec       q    Type
REMARK                         _______ _______ _______ _____ _____    ______ ____
ROOT
ATOM      1  C   UNL     1      -2.518   1.412   0.001  0.00  0.00    +0.107 A 
ATOM      2  C   UNL     1      -3.547   2.369   0.008  0.00  0.00    +0.045 A 
ATOM      3  C   UNL     1      -4.868   1.948   0.034  0.00  0.00    +0.050 A 
ATOM      4  C   UNL     1      -5.114   0.505   0.052  0.00  0.00    +0.013 A 
ATOM      5  C   UNL     1      -6.412  -0.014   0.078  0.00  0.00    +0.011 A 
ATOM      6  C   UNL     1      -6.598  -1.365   0.095  0.00  0.00    +0.001 A 
ATOM      7  C   UNL     1      -5.510  -2.235   0.086  0.00  0.00    +0.002 A 
ATOM      8  C   UNL     1      -4.233  -1.763   0.061  0.00  0.00    +0.028 A 
ATOM      9  C   UNL     1      -4.003  -0.375   0.043  0.00  0.00    +0.073 A 
ATOM     10  N   UNL     1      -2.763   0.116   0.013  0.00  0.00    -0.244 NA
ENDROOT
BRANCH   3  11
ATOM     11  C   UNL     1      -5.984   2.918   0.041  0.00  0.00    +0.269 C 
ATOM     12  O   UNL     1      -7.131   2.526  -0.050  0.00  0.00    -0.268 OA
ATOM     13  N   UNL     1      -5.729   4.237   0.149  0.00  0.00    -0.151 N 
ATOM     14  C   UNL     1      -6.742   5.299   0.275  0.00  0.00    +0.222 C 
ATOM     15  C   UNL     1      -5.896   6.585   0.361  0.00  0.00    +0.121 C 
ATOM     16  C   UNL     1      -4.471   6.087   0.271  0.00  0.00    +0.107 C 
ATOM     17  N   UNL     1      -4.465   4.822   0.166  0.00  0.00    -0.178 NA
BRANCH  16  18
ATOM     18  C   UNL     1      -3.243   6.960   0.308  0.00  0.00    +0.387 C 
ATOM     19  F   UNL     1      -2.223   6.362  -0.440  0.00  0.00    -0.203 F 
ATOM     20  F   UNL     1      -3.546   8.214  -0.235  0.00  0.00    -0.203 F 
ENDBRANCH  16  18
BRANCH  14  21
ATOM     21  C   UNL     1      -7.648   5.330  -0.957  0.00  0.00    +0.393 C 
ATOM     22  F   UNL     1      -8.578   6.367  -0.826  0.00  0.00    -0.204 F 
ATOM     23  F   UNL     1      -6.872   5.541  -2.102  0.00  0.00    -0.204 F 
ENDBRANCH  14  21
BRANCH  14  24
ATOM     24  O   UNL     1      -7.515   5.120   1.464  0.00  0.00    -0.365 OA
ATOM     25  H   UNL     1      -8.010   4.289   1.489  0.00  0.00    +0.212 HD
ENDBRANCH  14  24
ENDBRANCH   3  11
BRANCH   1  30
ATOM     26  C   UNL     1       1.478   4.444  -0.106  0.00  0.00    +0.086 C 
ATOM     27  C   UNL     1       0.635   3.194  -0.073  0.00  0.00    +0.103 A 
ATOM     28  C   UNL     1       1.104   1.930  -0.070  0.00  0.00    +0.045 A 
ATOM     29  C   UNL     1      -0.013   1.075  -0.036  0.00  0.00    +0.052 A 
ATOM     30  C   UNL     1      -1.117   1.873  -0.027  0.00  0.00    +0.153 A 
ATOM     31  O   UNL     1      -0.706   3.156  -0.044  0.00  0.00    -0.458 OA
ENDBRANCH   1  30
TORSDOF 5
