REMARK  Name = ZINC42072303
REMARK  2 active torsions:
REMARK  status: ('A' for Active; 'I' for Inactive)
REMARK    1  A    between atoms: C_11  and  N_13
REMARK    2  A    between atoms: N_13  and  C_14
REMARK                            x       y       z     vdW  Elec       q    Type
REMARK                         _______ _______ _______ _____ _____    ______ ____
ROOT
ATOM      1  C   UNL     1      -0.017   1.380   0.010  0.00  0.00    +0.020 A 
ATOM      2  C   UNL     1       1.175   2.084   0.002  0.00  0.00    +0.006 A 
ATOM      3  C   UNL     1       2.373   1.407  -0.013  0.00  0.00    -0.031 A 
ATOM      4  C   UNL     1       2.406   0.018  -0.021  0.00  0.00    +0.037 A 
ATOM      5  C   UNL     1       1.203  -0.685  -0.013  0.00  0.00    +0.043 A 
ATOM      6  C   UNL     1       0.002  -0.004   0.002  0.00  0.00    +0.043 A 
ATOM      7 CL   UNL     1      -1.492  -0.888   0.011  0.00  0.00    -0.083 Cl
ATOM      8  N   UNL     1       3.726  -0.434  -0.035  0.00  0.00    -0.286 N 
ATOM      9  C   UNL     1       4.610   0.579  -0.038  0.00  0.00    +0.208 C 
ATOM     10  O   UNL     1       5.818   0.480  -0.050  0.00  0.00    -0.277 OA
ATOM     11  C   UNL     1       3.813   1.866  -0.024  0.00  0.00    +0.049 C 
ATOM     12  H   UNL     1       3.977  -1.371  -0.042  0.00  0.00    +0.155 HD
ENDROOT
BRANCH  11  13
ATOM     13  N   UNL     1       4.092   2.657  -1.230  0.00  0.00    +0.392 N 
ATOM     14  H   UNL     1       4.001   2.070  -2.046  0.00  0.00    -0.084 HD
ATOM     15  H   UNL     1       3.435   3.421  -1.290  0.00  0.00    -0.084 HD
BRANCH  13  16
ATOM     16  C   UNL     1       5.459   3.191  -1.160  0.00  0.00    -0.052 C 
ATOM     17  C   UNL     1       5.569   4.255  -0.038  0.00  0.00    +0.001 C 
ATOM     18  C   UNL     1       5.906   5.579  -0.775  0.00  0.00    +0.083 C 
ATOM     19  N   UNL     1       5.393   5.356  -2.135  0.00  0.00    -0.301 NA
ATOM     20  C   UNL     1       5.802   3.956  -2.443  0.00  0.00    +0.043 C 
ATOM     21  C   UNL     1       5.012   3.502  -3.662  0.00  0.00    +0.017 C 
ATOM     22  C   UNL     1       5.416   4.403  -4.839  0.00  0.00    +0.003 C 
ATOM     23  C   UNL     1       5.189   5.874  -4.494  0.00  0.00    +0.015 C 
ATOM     24  C   UNL     1       5.896   6.244  -3.174  0.00  0.00    +0.084 C 
ENDBRANCH  13  16
ENDBRANCH  11  13
TORSDOF 2
