REMARK  Name = ZINC39926785
REMARK  4 active torsions:
REMARK  status: ('A' for Active; 'I' for Inactive)
REMARK    1  A    between atoms: C_1  and  N_2
REMARK    2  A    between atoms: C_3  and  S_19
REMARK    3  A    between atoms: S_19  and  C_20
REMARK    4  A    between atoms: C_20  and  C_21
REMARK                            x       y       z     vdW  Elec       q    Type
REMARK                         _______ _______ _______ _____ _____    ______ ____
ROOT
ATOM      1  C   UNL     1      -0.524   1.947  -0.390  0.00  0.00    +0.134 C 
ATOM      2  N   UNL     1      -0.142   0.533  -0.350  0.00  0.00    -0.279 N 
ATOM      3  C   UNL     1      -1.149  -0.463  -0.022  0.00  0.00    +0.205 C 
ATOM      4  N   UNL     1      -0.684  -1.623   0.744  0.00  0.00    -0.277 NA
ATOM      5  C   UNL     1       0.738  -1.536   1.036  0.00  0.00    +0.135 C 
ATOM      6  C   UNL     1       1.427  -1.252  -0.332  0.00  0.00    +0.129 C 
ATOM      7  C   UNL     1       1.154   0.185  -0.629  0.00  0.00    +0.227 C 
ATOM      8  O   UNL     1       1.983   0.956  -1.063  0.00  0.00    -0.275 OA
ATOM      9  C   UNL     1       2.808  -1.780  -0.376  0.00  0.00    -0.046 C 
ATOM     10  C   UNL     1       3.054  -2.824   0.428  0.00  0.00    -0.013 C 
ATOM     11  S   UNL     1       1.532  -3.156   1.360  0.00  0.00    -0.110 S 
ATOM     12  C   UNL     1       4.340  -3.584   0.549  0.00  0.00    +0.042 C 
ATOM     13  C   UNL     1       5.252  -3.211  -0.626  0.00  0.00    +0.005 C 
ATOM     14  C   UNL     1       5.267  -1.685  -0.761  0.00  0.00    +0.005 C 
ATOM     15  C   UNL     1       3.906  -1.205  -1.266  0.00  0.00    +0.032 C 
ATOM     16  H   UNL     1      -1.222  -1.737   1.590  0.00  0.00    +0.126 HD
ENDROOT
BRANCH   3  17
ATOM     17  S   UNL     1      -2.458   0.351   0.935  0.00  0.00    -0.115 S 
BRANCH  17  18
ATOM     18  C   UNL     1      -1.639   0.825   2.483  0.00  0.00    +0.146 C 
BRANCH  18  19
ATOM     19  C   UNL     1      -2.590   1.635   3.327  0.00  0.00    +0.118 A 
ATOM     20  N   UNL     1      -3.413   1.140   4.205  0.00  0.00    -0.232 NA
ATOM     21  C   UNL     1      -4.121   2.144   4.783  0.00  0.00    +0.089 A 
ATOM     22  C   UNL     1      -5.114   2.182   5.765  0.00  0.00    +0.030 A 
ATOM     23  C   UNL     1      -5.649   3.380   6.148  0.00  0.00    +0.002 A 
ATOM     24  C   UNL     1      -5.215   4.564   5.571  0.00  0.00    +0.002 A 
ATOM     25  C   UNL     1      -4.237   4.552   4.599  0.00  0.00    +0.028 A 
ATOM     26  C   UNL     1      -3.682   3.344   4.198  0.00  0.00    +0.066 A 
ATOM     27  N   UNL     1      -2.709   2.989   3.285  0.00  0.00    -0.341 N 
ATOM     28  H   UNL     1      -2.206   3.593   2.717  0.00  0.00    +0.167 HD
ENDBRANCH  18  19
ENDBRANCH  17  18
ENDBRANCH   3  17
TORSDOF 3
