REMARK  Name = ZINC39359620
REMARK  3 active torsions:
REMARK  status: ('A' for Active; 'I' for Inactive)
REMARK    1  A    between atoms: C_9  and  C_12
REMARK    2  A    between atoms: N_14  and  C_15
REMARK    3  A    between atoms: C_20  and  C_21
REMARK                            x       y       z     vdW  Elec       q    Type
REMARK                         _______ _______ _______ _____ _____    ______ ____
ROOT
ATOM      1  C   UNL     1       4.671  -5.796   0.336  0.00  0.00    +0.044 A 
ATOM      2  C   UNL     1       4.322  -6.051   1.655  0.00  0.00    +0.024 A 
ATOM      3  C   UNL     1       4.894  -7.112   2.329  0.00  0.00    +0.002 A 
ATOM      4  C   UNL     1       5.816  -7.929   1.697  0.00  0.00    +0.001 A 
ATOM      5  C   UNL     1       6.173  -7.690   0.387  0.00  0.00    +0.013 A 
ATOM      6  C   UNL     1       5.599  -6.625  -0.309  0.00  0.00    +0.038 A 
ENDROOT
BRANCH   6   7
ATOM      7  C   UNL     1       5.973  -6.368  -1.715  0.00  0.00    +0.141 A 
ATOM      8  N   UNL     1       5.575  -5.341  -2.425  0.00  0.00    -0.228 NA
ATOM      9  C   UNL     1       6.105  -5.416  -3.671  0.00  0.00    +0.089 A 
ATOM     10  C   UNL     1       6.011  -4.603  -4.805  0.00  0.00    +0.030 A 
ATOM     11  C   UNL     1       6.683  -4.952  -5.954  0.00  0.00    +0.002 A 
ATOM     12  C   UNL     1       7.453  -6.105  -5.997  0.00  0.00    +0.002 A 
ATOM     13  C   UNL     1       7.557  -6.918  -4.888  0.00  0.00    +0.028 A 
ATOM     14  C   UNL     1       6.887  -6.583  -3.720  0.00  0.00    +0.066 A 
ATOM     15  N   UNL     1       6.793  -7.164  -2.470  0.00  0.00    -0.338 N 
ATOM     16  H   UNL     1       7.224  -7.983  -2.181  0.00  0.00    +0.167 HD
ENDBRANCH   6   7
BRANCH   1  19
ATOM     17  C   UNL     1       3.805  -3.584   0.310  0.00  0.00    +0.232 C 
ATOM     18  O   UNL     1       3.969  -3.517   1.510  0.00  0.00    -0.274 OA
ATOM     19  N   UNL     1       4.095  -4.725  -0.347  0.00  0.00    -0.284 N 
ATOM     20  H   UNL     1       3.902  -4.801  -1.295  0.00  0.00    +0.155 HD
BRANCH  17  28
ATOM     21  C   UNL     1       1.860   2.272   0.149  0.00  0.00    +0.000 A 
ATOM     22  C   UNL     1       3.046   2.632  -0.464  0.00  0.00    +0.001 A 
ATOM     23  C   UNL     1       3.961   1.648  -0.787  0.00  0.00    +0.015 A 
ATOM     24  C   UNL     1       3.686   0.326  -0.492  0.00  0.00    +0.013 A 
ATOM     25  C   UNL     1       2.504  -0.057   0.138  0.00  0.00    -0.015 A 
ATOM     26  C   UNL     1       1.590   0.955   0.445  0.00  0.00    +0.006 A 
ATOM     27  C   UNL     1       2.352  -1.528   0.438  0.00  0.00    +0.133 C 
ATOM     28  C   UNL     1       3.280  -2.391  -0.447  0.00  0.00    +0.159 C 
ATOM     29  S   UNL     1       4.612  -1.166  -0.781  0.00  0.00    -0.110 S 
ATOM     30 CL   UNL     1       0.641  -2.014   0.141  0.00  0.00    -0.115 Cl
ENDBRANCH  17  28
ENDBRANCH   1  19
TORSDOF 3
