REMARK  Name = ZINC33028641
REMARK  4 active torsions:
REMARK  status: ('A' for Active; 'I' for Inactive)
REMARK    1  A    between atoms: C_1  and  C_2
REMARK    2  A    between atoms: C_7  and  N_12
REMARK    3  A    between atoms: C_9  and  C_11
REMARK    4  A    between atoms: C_13  and  C_15
REMARK                            x       y       z     vdW  Elec       q    Type
REMARK                         _______ _______ _______ _____ _____    ______ ____
ROOT
ATOM      1  N   UNL     1       3.517   1.620  -1.258  0.00  0.00    -0.308 N 
ATOM      2  C   UNL     1       4.470   0.969  -1.954  0.00  0.00    +0.245 C 
ATOM      3  O   UNL     1       4.189  -0.039  -2.573  0.00  0.00    -0.270 OA
ATOM      4  H   UNL     1       3.771   2.531  -0.698  0.00  0.00    +0.149 HD
ENDROOT
BRANCH   2   5
ATOM      5  C   UNL     1       5.858   1.481  -1.965  0.00  0.00    +0.051 A 
ATOM      6  C   UNL     1       6.178   2.690  -1.368  0.00  0.00    +0.083 A 
ATOM      7  C   UNL     1       7.504   3.142  -1.391  0.00  0.00    +0.250 A 
ATOM      8  N   UNL     1       8.458   2.453  -1.977  0.00  0.00    -0.322 N 
ATOM      9  C   UNL     1       8.215   1.283  -2.576  0.00  0.00    +0.050 A 
ATOM     10  C   UNL     1       6.902   0.753  -2.592  0.00  0.00    +0.011 A 
ATOM     11  C   UNL     1       6.657  -0.474  -3.222  0.00  0.00    +0.011 A 
ATOM     12  C   UNL     1       7.684  -1.145  -3.815  0.00  0.00    +0.001 A 
ATOM     13  C   UNL     1       8.977  -0.626  -3.802  0.00  0.00    +0.002 A 
ATOM     14  C   UNL     1       9.250   0.562  -3.198  0.00  0.00    +0.026 A 
ATOM     15  O   UNL     1       7.809   4.323  -0.800  0.00  0.00    -0.268 OA
ATOM     16  H   UNL     1       9.489   2.837  -1.983  0.00  0.00    +0.169 HD
ENDBRANCH   2   5
BRANCH   1  22
ATOM     17  C   UNL     1      -0.712   1.535   1.302  0.00  0.00    +0.008 C 
ATOM     18  C   UNL     1      -0.003   1.059   0.032  0.00  0.00    -0.009 C 
ATOM     19  C   UNL     1      -0.749   1.583  -1.196  0.00  0.00    +0.003 C 
ATOM     20  C   UNL     1      -0.039   1.107  -2.465  0.00  0.00    +0.002 C 
ATOM     21  C   UNL     1       1.396   1.637  -2.476  0.00  0.00    +0.022 C 
ATOM     22  C   UNL     1       2.142   1.113  -1.248  0.00  0.00    +0.076 C 
ATOM     23  C   UNL     1       1.433   1.589   0.021  0.00  0.00    +0.009 C 
ATOM     24  C   UNL     1       2.179   1.065   1.250  0.00  0.00    +0.009 C 
ENDBRANCH   1  22
TORSDOF 2
