REMARK  Name = ZINC14544738
REMARK  2 active torsions:
REMARK  status: ('A' for Active; 'I' for Inactive)
REMARK    1  A    between atoms: C_7  and  C_11
REMARK    2  A    between atoms: C_24  and  O_27
REMARK                            x       y       z     vdW  Elec       q    Type
REMARK                         _______ _______ _______ _____ _____    ______ ____
ROOT
ATOM      1  C   UNL     1       2.075  -1.563  -0.300  0.00  0.00    +0.107 C 
ATOM      2  C   UNL     1       1.349  -0.287  -0.674  0.00  0.00    +0.029 C 
ATOM      3  C   UNL     1       0.002  -0.004   0.002  0.00  0.00    +0.033 C 
ATOM      4  C   UNL     1      -0.019   1.527   0.010  0.00  0.00    -0.030 C 
ATOM      5  C   UNL     1       1.224   1.996   0.001  0.00  0.00    -0.023 C 
ATOM      6  C   UNL     1       2.162   0.848   0.023  0.00  0.00    +0.049 C 
ATOM      7  C   UNL     1       3.488   0.886  -0.631  0.00  0.00    -0.016 A 
ATOM      8  C   UNL     1       4.194   2.064  -0.772  0.00  0.00    +0.006 A 
ATOM      9  C   UNL     1       5.449   2.067  -1.350  0.00  0.00    +0.004 A 
ATOM     10  C   UNL     1       6.003   0.879  -1.790  0.00  0.00    +0.047 A 
ATOM     11  C   UNL     1       5.301  -0.304  -1.662  0.00  0.00    +0.138 A 
ATOM     12  C   UNL     1       4.024  -0.319  -1.086  0.00  0.00    +0.073 A 
ATOM     13  N   UNL     1       3.367  -1.548  -1.006  0.00  0.00    -0.334 N 
ATOM     14  H   UNL     1       3.981  -2.265  -0.651  0.00  0.00    +0.147 HD
ENDROOT
BRANCH   1  21
ATOM     15  C   UNL     1      -1.625  -3.765   1.551  0.00  0.00    +0.001 A 
ATOM     16  C   UNL     1      -2.047  -4.847   0.791  0.00  0.00    +0.002 A 
ATOM     17  C   UNL     1      -1.396  -5.182  -0.377  0.00  0.00    +0.026 A 
ATOM     18  C   UNL     1      -0.306  -4.428  -0.800  0.00  0.00    +0.047 A 
ATOM     19  C   UNL     1       0.117  -3.333  -0.026  0.00  0.00    +0.005 A 
ATOM     20  C   UNL     1      -0.557  -3.012   1.154  0.00  0.00    +0.010 A 
ATOM     21  C   UNL     1       1.267  -2.759  -0.730  0.00  0.00    -0.002 A 
ATOM     22  C   UNL     1       1.459  -3.499  -1.834  0.00  0.00    +0.089 A 
ATOM     23  N   UNL     1       0.532  -4.504  -1.890  0.00  0.00    -0.360 N 
ATOM     24  H   UNL     1       0.473  -5.168  -2.594  0.00  0.00    +0.165 HD
ENDBRANCH   1  21
BRANCH  11  25
ATOM     25  O   UNL     1       5.856  -1.466  -2.100  0.00  0.00    -0.505 OA
ATOM     26  H   UNL     1       5.655  -1.674  -3.023  0.00  0.00    +0.292 HD
ENDBRANCH  11  25
TORSDOF 2
