REMARK  Name = ZINC13551807
REMARK  5 active torsions:
REMARK  status: ('A' for Active; 'I' for Inactive)
REMARK    1  A    between atoms: C_1  and  C_2
REMARK    2  A    between atoms: C_10  and  C_12
REMARK    3  A    between atoms: C_15  and  O_19
REMARK    4  A    between atoms: C_16  and  O_18
REMARK    5  A    between atoms: C_23  and  C_26
REMARK                            x       y       z     vdW  Elec       q    Type
REMARK                         _______ _______ _______ _____ _____    ______ ____
ROOT
ATOM      1  C   UNL     1      -0.018   1.503   0.010  0.00  0.00    +0.069 C 
ATOM      2  C   UNL     1       0.002  -0.004   0.002  0.00  0.00    +0.087 A 
ATOM      3  C   UNL     1       0.008  -0.816  -1.130  0.00  0.00    +0.049 A 
ATOM      4  C   UNL     1       0.029  -2.118  -0.716  0.00  0.00    +0.226 A 
ATOM      5  O   UNL     1       0.032  -2.127   0.616  0.00  0.00    -0.339 OA
ATOM      6  N   UNL     1       0.023  -0.778   1.057  0.00  0.00    -0.081 NA
ATOM      7  N   UNL     1       0.047  -3.163  -1.623  0.00  0.00    -0.286 N 
ATOM      8  C   UNL     1       0.351  -2.890  -2.934  0.00  0.00    +0.019 C 
ATOM      9  C   UNL     1       0.341  -1.635  -3.431  0.00  0.00    +0.024 C 
ATOM     10  C   UNL     1      -0.007  -0.431  -2.583  0.00  0.00    +0.091 C 
ATOM     11  C   UNL     1       0.654  -1.389  -4.781  0.00  0.00    +0.162 C 
ATOM     12  O   UNL     1       0.661  -0.245  -5.190  0.00  0.00    -0.292 OA
ATOM     13  C   UNL     1       0.982  -2.510  -5.728  0.00  0.00    +0.088 C 
ATOM     14  C   UNL     1       0.274  -3.783  -5.254  0.00  0.00    +0.032 C 
ATOM     15  C   UNL     1       0.707  -4.066  -3.814  0.00  0.00    +0.059 C 
ATOM     16  H   UNL     1      -0.150  -4.069  -1.339  0.00  0.00    +0.155 HD
ENDROOT
BRANCH  10  17
ATOM     17  C   UNL     1      -1.380   0.066  -2.955  0.00  0.00    -0.032 A 
ATOM     18  C   UNL     1      -2.477  -0.764  -2.812  0.00  0.00    +0.008 A 
ATOM     19  C   UNL     1      -3.738  -0.314  -3.153  0.00  0.00    +0.049 A 
ATOM     20  C   UNL     1      -3.906   0.973  -3.639  0.00  0.00    +0.158 A 
ATOM     21  C   UNL     1      -2.803   1.809  -3.783  0.00  0.00    +0.159 A 
ATOM     22  C   UNL     1      -1.542   1.352  -3.435  0.00  0.00    +0.053 A 
BRANCH  21  23
ATOM     23  O   UNL     1      -2.963   3.072  -4.259  0.00  0.00    -0.503 OA
ATOM     24  H   UNL     1      -3.126   3.734  -3.573  0.00  0.00    +0.292 HD
ENDBRANCH  21  23
BRANCH  20  25
ATOM     25  O   UNL     1      -5.147   1.418  -3.975  0.00  0.00    -0.503 OA
ATOM     26  H   UNL     1      -5.622   1.843  -3.248  0.00  0.00    +0.292 HD
ENDBRANCH  20  25
ENDBRANCH  10  17
BRANCH  14  27
ATOM     27  C   UNL     1       0.661  -4.939  -6.139  0.00  0.00    -0.044 A 
ATOM     28  C   UNL     1       1.986  -5.321  -6.237  0.00  0.00    +0.004 A 
ATOM     29  C   UNL     1       2.342  -6.382  -7.049  0.00  0.00    +0.000 A 
ATOM     30  C   UNL     1       1.372  -7.061  -7.762  0.00  0.00    +0.000 A 
ATOM     31  C   UNL     1       0.047  -6.681  -7.663  0.00  0.00    +0.000 A 
ATOM     32  C   UNL     1      -0.309  -5.622  -6.848  0.00  0.00    +0.004 A 
ENDBRANCH  14  27
TORSDOF 4
