REMARK  Name = ZINC64538908
REMARK  11 active torsions:
REMARK  status: ('A' for Active; 'I' for Inactive)
REMARK    1  A    between atoms: C_1  and  C_2
REMARK    2  A    between atoms: C_8  and  C_11
REMARK    3  A    between atoms: C_11  and  C_12
REMARK    4  A    between atoms: C_12  and  N_13
REMARK    5  A    between atoms: C_14  and  C_16
REMARK    6  A    between atoms: C_16  and  C_17
REMARK    7  A    between atoms: C_17  and  C_18
REMARK    8  A    between atoms: C_18  and  C_19
REMARK    9  A    between atoms: C_23  and  C_26
REMARK   10  A    between atoms: N_28  and  C_29
REMARK   11  A    between atoms: C_34  and  C_35
REMARK                            x       y       z     vdW  Elec       q    Type
REMARK                         _______ _______ _______ _____ _____    ______ ____
ROOT
ATOM      1  C   UNL     1      -2.564  -2.330   7.767  0.00  0.00    +0.096 C 
ENDROOT
BRANCH   1   3
ATOM      2  N   UNL     1      -1.407  -2.591   5.596  0.00  0.00    -0.315 N 
ATOM      3  C   UNL     1      -2.567  -2.596   6.283  0.00  0.00    +0.213 C 
ATOM      4  O   UNL     1      -3.612  -2.814   5.708  0.00  0.00    -0.276 OA
ATOM      5  H   UNL     1      -0.571  -2.417   6.056  0.00  0.00    +0.149 HD
BRANCH   2   6
ATOM      6  C   UNL     1      -1.410  -2.850   4.154  0.00  0.00    +0.108 C 
BRANCH   6   7
ATOM      7  C   UNL     1       0.023  -2.788   3.622  0.00  0.00    +0.052 C 
BRANCH   7  15
ATOM      8  C   UNL     1      -0.086   1.500  -0.024  0.00  0.00    +0.044 C 
ATOM      9  C   UNL     1      -0.054  -0.006  -0.027  0.00  0.00    -0.050 A 
ATOM     10  C   UNL     1      -0.048  -0.686  -1.252  0.00  0.00    +0.005 A 
ATOM     11  C   UNL     1      -0.021  -2.033  -1.339  0.00  0.00    +0.026 A 
ATOM     12  C   UNL     1       0.003  -2.829  -0.160  0.00  0.00    +0.043 A 
ATOM     13  N   UNL     1       0.029  -4.128   0.016  0.00  0.00    -0.380 N 
ATOM     14  C   UNL     1       0.043  -4.404   1.457  0.00  0.00    +0.144 C 
ATOM     15  C   UNL     1       0.021  -3.054   2.139  0.00  0.00    -0.040 C 
ATOM     16  C   UNL     1      -0.004  -2.134   1.147  0.00  0.00    -0.001 A 
ATOM     17  C   UNL     1      -0.028  -0.666   1.153  0.00  0.00    +0.013 A 
ATOM     18  H   UNL     1       0.038  -4.794  -0.688  0.00  0.00    +0.160 HD
ENDBRANCH   7  15
ENDBRANCH   6   7
ENDBRANCH   2   6
ENDBRANCH   1   3
BRANCH   1  19
ATOM     19  C   UNL     1      -3.997  -2.392   8.299  0.00  0.00    +0.012 C 
BRANCH  19  20
ATOM     20  C   UNL     1      -3.994  -2.122   9.805  0.00  0.00    +0.040 C 
BRANCH  20  21
ATOM     21  C   UNL     1      -5.427  -2.184  10.336  0.00  0.00    +0.187 C 
ATOM     22  N   UNL     1      -5.472  -1.940  11.796  0.00  0.00    -0.177 NA
ATOM     23  N   UNL     1      -6.095  -2.682  12.530  0.00  0.00    -0.167 NA
ATOM     24  C   UNL     1      -6.826  -3.848  11.984  0.00  0.00    +0.272 C 
ATOM     25  S   UNL     1      -6.089  -3.910  10.288  0.00  0.00    -0.095 S 
BRANCH  24  26
ATOM     26  C   UNL     1      -6.520  -5.102  12.763  0.00  0.00    +0.254 C 
ATOM     27  O   UNL     1      -5.837  -5.973  12.267  0.00  0.00    -0.272 OA
ATOM     28  N   UNL     1      -7.006  -5.255  14.010  0.00  0.00    -0.283 N 
ATOM     29  H   UNL     1      -7.484  -4.527  14.437  0.00  0.00    +0.155 HD
BRANCH  28  30
ATOM     30  C   UNL     1      -6.821  -6.464  14.690  0.00  0.00    +0.036 A 
ATOM     31  C   UNL     1      -6.626  -7.640  13.977  0.00  0.00    +0.023 A 
ATOM     32  C   UNL     1      -6.443  -8.832  14.650  0.00  0.00    +0.002 A 
ATOM     33  C   UNL     1      -6.455  -8.855  16.033  0.00  0.00    +0.000 A 
ATOM     34  C   UNL     1      -6.650  -7.687  16.745  0.00  0.00    +0.005 A 
ATOM     35  C   UNL     1      -6.826  -6.490  16.078  0.00  0.00    -0.029 A 
ATOM     36  C   UNL     1      -7.031  -5.216  16.855  0.00  0.00    +0.045 C 
ENDBRANCH  28  30
ENDBRANCH  24  26
ENDBRANCH  20  21
ENDBRANCH  19  20
ENDBRANCH   1  19
TORSDOF 9
