REMARK  Name = ZINC03337807
REMARK  5 active torsions:
REMARK  status: ('A' for Active; 'I' for Inactive)
REMARK    1  A    between atoms: C_1  and  C_2
REMARK    2  A    between atoms: C_4  and  N_9
REMARK    3  A    between atoms: C_17  and  C_19
REMARK    4  A    between atoms: C_19  and  N_57
REMARK    5  A    between atoms: C_26  and  C_30
REMARK                            x       y       z     vdW  Elec       q    Type
REMARK                         _______ _______ _______ _____ _____    ______ ____
ROOT
ATOM      1  N   UNL     1      -2.721   1.018  -0.876  0.00  0.00    -0.299 N 
ATOM      2  C   UNL     1      -2.429  -0.332  -0.790  0.00  0.00    +0.135 A 
ATOM      3  C   UNL     1      -1.147  -0.806  -0.387  0.00  0.00    +0.051 A 
ATOM      4  C   UNL     1       0.008  -0.005  -0.018  0.00  0.00    -0.025 A 
ATOM      5  C   UNL     1       1.127  -0.679   0.334  0.00  0.00    -0.004 A 
ATOM      6  S   UNL     1       0.702  -2.397   0.191  0.00  0.00    -0.073 S 
ATOM      7  C   UNL     1      -0.970  -2.212  -0.338  0.00  0.00    +0.114 A 
ATOM      8  N   UNL     1      -1.921  -3.072  -0.643  0.00  0.00    -0.227 NA
ATOM      9  C   UNL     1      -3.092  -2.565  -1.011  0.00  0.00    +0.116 A 
ATOM     10  N   UNL     1      -3.329  -1.270  -1.079  0.00  0.00    -0.219 NA
ATOM     11  C   UNL     1       2.441  -0.098   0.755  0.00  0.00    +0.046 C 
ATOM     12  C   UNL     1       2.233   1.387   1.088  0.00  0.00    -0.009 C 
ATOM     13  C   UNL     1       1.430   2.035  -0.043  0.00  0.00    +0.008 C 
ATOM     14  C   UNL     1      -0.010   1.522  -0.017  0.00  0.00    +0.037 C 
ATOM     15  C   UNL     1       3.591   2.079   1.216  0.00  0.00    +0.008 C 
ATOM     16  H   UNL     1      -2.069   1.674  -0.583  0.00  0.00    +0.154 HD
ENDROOT
BRANCH   1  20
ATOM     17  C   UNL     1      -5.351   4.279  -3.447  0.00  0.00    +0.045 C 
ATOM     18  C   UNL     1      -5.258   3.013  -2.635  0.00  0.00    -0.035 A 
ATOM     19  C   UNL     1      -4.039   2.603  -2.134  0.00  0.00    +0.027 A 
ATOM     20  C   UNL     1      -3.954   1.436  -1.385  0.00  0.00    +0.033 A 
ATOM     21  C   UNL     1      -5.096   0.682  -1.148  0.00  0.00    +0.024 A 
ATOM     22  C   UNL     1      -6.314   1.100  -1.647  0.00  0.00    +0.017 A 
ATOM     23  C   UNL     1      -6.395   2.263  -2.392  0.00  0.00    +0.021 A 
ATOM     24 BR   UNL     1      -8.063   2.828  -3.081  0.00  0.00    -0.050 Br
ENDBRANCH   1  20
BRANCH   9  25
ATOM     25  C   UNL     1      -4.204  -3.517  -1.367  0.00  0.00    -0.001 C 
BRANCH  25  31
ATOM     26  C   UNL     1      -4.449  -2.625  -3.606  0.00  0.00    -0.050 C 
ATOM     27  C   UNL     1      -4.322  -2.969  -5.092  0.00  0.00    +0.141 C 
ATOM     28  O   UNL     1      -5.194  -4.061  -5.399  0.00  0.00    -0.383 OA
ATOM     29  C   UNL     1      -4.928  -5.241  -4.636  0.00  0.00    +0.141 C 
ATOM     30  C   UNL     1      -5.062  -4.920  -3.146  0.00  0.00    -0.050 C 
ATOM     31  N   UNL     1      -4.124  -3.828  -2.811  0.00  0.00    +0.387 N 
ATOM     32  H   UNL     1      -3.168  -4.128  -3.035  0.00  0.00    -0.081 HD
ENDBRANCH  25  31
ENDBRANCH   9  25
TORSDOF 3
