REMARK  Name = ZINC09168704
REMARK  8 active torsions:
REMARK  status: ('A' for Active; 'I' for Inactive)
REMARK    1  A    between atoms: C_1  and  C_2
REMARK    2  A    between atoms: C_2  and  C_3
REMARK    3  A    between atoms: C_3  and  C_4
REMARK    4  A    between atoms: C_7  and  S_10
REMARK    5  A    between atoms: S_10  and  N_13
REMARK    6  A    between atoms: N_13  and  C_14
REMARK    7  A    between atoms: C_22  and  C_26
REMARK    8  A    between atoms: C_22  and  C_27
REMARK                            x       y       z     vdW  Elec       q    Type
REMARK                         _______ _______ _______ _____ _____    ______ ____
ROOT
ATOM      1  C   UNL     1      -1.450   2.934  -3.432  0.00  0.00    +0.052 A 
ATOM      2  C   UNL     1      -2.491   3.149  -2.539  0.00  0.00    +0.026 A 
ATOM      3  C   UNL     1      -2.808   2.186  -1.599  0.00  0.00    +0.029 A 
ATOM      4  C   UNL     1      -2.084   1.006  -1.548  0.00  0.00    +0.076 A 
ATOM      5  C   UNL     1      -1.036   0.788  -2.440  0.00  0.00    +0.143 A 
ATOM      6  C   UNL     1      -0.722   1.752  -3.383  0.00  0.00    +0.072 A 
ATOM      7  O   UNL     1      -0.323  -0.367  -2.374  0.00  0.00    -0.489 OA
ATOM      8  C   UNL     1       0.611  -0.495  -1.310  0.00  0.00    +0.244 C 
ATOM      9  C   UNL     1       0.002  -0.004   0.002  0.00  0.00    +0.076 C 
ATOM     10  C   UNL     1      -1.405  -0.524   0.143  0.00  0.00    +0.226 C 
ATOM     11  O   UNL     1      -1.648  -1.423   0.919  0.00  0.00    -0.275 OA
ATOM     12  N   UNL     1      -2.396   0.018  -0.601  0.00  0.00    -0.282 N 
ATOM     13  C   UNL     1      -0.019   1.526   0.010  0.00  0.00    +0.024 C 
ATOM     14  C   UNL     1       0.848  -0.506   1.174  0.00  0.00    +0.024 C 
ATOM     15  H   UNL     1      -3.314  -0.274  -0.481  0.00  0.00    +0.155 HD
ENDROOT
BRANCH   1  16
ATOM     16  N   UNL     1      -1.133   3.909  -4.383  0.00  0.00    -0.216 N 
ATOM     17  H   UNL     1      -0.967   3.653  -5.304  0.00  0.00    +0.174 HD
BRANCH  16  18
ATOM     18  S   UNL     1      -1.044   5.502  -3.938  0.00  0.00    +0.072 S 
ATOM     19  O   UNL     1      -0.682   6.230  -5.104  0.00  0.00    -0.150 OA
ATOM     20  O   UNL     1      -2.224   5.784  -3.199  0.00  0.00    -0.150 OA
BRANCH  18  24
ATOM     21  C   UNL     1       2.417   5.891  -1.046  0.00  0.00    -0.047 A 
ATOM     22  C   UNL     1       2.630   6.045  -2.403  0.00  0.00    +0.005 A 
ATOM     23  C   UNL     1       1.573   5.927  -3.286  0.00  0.00    +0.029 A 
ATOM     24  C   UNL     1       0.303   5.653  -2.812  0.00  0.00    +0.109 A 
ATOM     25  C   UNL     1       0.090   5.504  -1.455  0.00  0.00    +0.029 A 
ATOM     26  C   UNL     1       1.147   5.618  -0.572  0.00  0.00    +0.005 A 
BRANCH  21  27
ATOM     27  C   UNL     1       3.569   6.019  -0.083  0.00  0.00    +0.035 C 
BRANCH  27  29
ATOM     28  C   UNL     1       4.871   7.606   1.341  0.00  0.00    +0.004 C 
ATOM     29  C   UNL     1       3.701   7.476   0.363  0.00  0.00    +0.001 C 
ENDBRANCH  27  29
ENDBRANCH  21  27
ENDBRANCH  18  24
ENDBRANCH  16  18
ENDBRANCH   1  16
TORSDOF 5
