REMARK  Name = ZINC07724754
REMARK  12 active torsions:
REMARK  status: ('A' for Active; 'I' for Inactive)
REMARK    1  A    between atoms: C_1  and  C_2
REMARK    2  A    between atoms: C_2  and  C_3
REMARK    3  A    between atoms: C_2  and  C_4
REMARK    4  A    between atoms: C_4  and  N_5
REMARK    5  A    between atoms: C_6  and  N_29
REMARK    6  A    between atoms: C_7  and  N_14
REMARK    7  A    between atoms: N_14  and  C_15
REMARK    8  A    between atoms: C_15  and  C_16
REMARK    9  A    between atoms: C_16  and  O_17
REMARK   10  A    between atoms: O_17  and  C_18
REMARK   11  A    between atoms: C_19  and  C_21
REMARK   12  A    between atoms: C_21  and  C_22
REMARK                            x       y       z     vdW  Elec       q    Type
REMARK                         _______ _______ _______ _____ _____    ______ ____
ROOT
ATOM      1  N   UNL     1      -2.807   1.883  -4.968  0.00  0.00    -0.280 N 
ATOM      2  C   UNL     1      -2.266   1.484  -3.768  0.00  0.00    +0.127 A 
ATOM      3  C   UNL     1      -0.939   1.754  -3.504  0.00  0.00    +0.140 A 
ATOM      4  C   UNL     1      -0.175   2.422  -4.479  0.00  0.00    +0.277 A 
ATOM      5  O   UNL     1       1.002   2.669  -4.273  0.00  0.00    -0.266 OA
ATOM      6  N   UNL     1      -0.751   2.787  -5.640  0.00  0.00    -0.273 N 
ATOM      7  H   UNL     1      -0.209   3.262  -6.333  0.00  0.00    +0.173 HD
ATOM      8  C   UNL     1      -2.048   2.520  -5.878  0.00  0.00    +0.331 A 
ATOM      9  O   UNL     1      -2.543   2.860  -6.936  0.00  0.00    -0.246 OA
ENDROOT
BRANCH   3  10
ATOM     10  N   UNL     1      -0.357   1.362  -2.280  0.00  0.00    -0.262 N 
ATOM     11  C   UNL     1      -0.827   1.863  -1.118  0.00  0.00    +0.224 C 
ATOM     12  O   UNL     1      -1.691   2.714  -1.130  0.00  0.00    -0.275 OA
BRANCH  10  13
ATOM     13  C   UNL     1       0.757   0.410  -2.270  0.00  0.00    +0.142 C 
BRANCH  13  14
ATOM     14  C   UNL     1       0.210  -1.014  -2.151  0.00  0.00    +0.178 C 
BRANCH  14  15
ATOM     15  O   UNL     1      -0.548  -1.332  -3.319  0.00  0.00    -0.381 OA
ATOM     16  C   UNL     1      -1.106  -2.648  -3.309  0.00  0.00    +0.194 C 
ENDBRANCH  14  15
ENDBRANCH  13  14
ENDBRANCH  10  13
BRANCH  11  17
ATOM     17  C   UNL     1      -0.277   1.366   0.194  0.00  0.00    +0.131 C 
BRANCH  17  18
ATOM     18  C   UNL     1      -0.964   2.080   1.329  0.00  0.00    -0.039 A 
ATOM     19  C   UNL     1      -0.436   3.258   1.825  0.00  0.00    +0.005 A 
ATOM     20  C   UNL     1      -1.068   3.916   2.862  0.00  0.00    +0.020 A 
ATOM     21  C   UNL     1      -2.224   3.391   3.412  0.00  0.00    +0.041 A 
ATOM     22  C   UNL     1      -2.749   2.209   2.920  0.00  0.00    +0.020 A 
ATOM     23  C   UNL     1      -2.119   1.555   1.878  0.00  0.00    +0.005 A 
ATOM     24 CL   UNL     1      -3.015   4.214   4.720  0.00  0.00    -0.084 Cl
ENDBRANCH  17  18
ENDBRANCH  11  17
ENDBRANCH   3  10
BRANCH   2  25
ATOM     25  N   UNL     1      -3.040   0.827  -2.841  0.00  0.00    -0.343 N 
ATOM     26  H   UNL     1      -2.629   0.441  -2.053  0.00  0.00    +0.144 HD
ATOM     27  H   UNL     1      -3.998   0.751  -2.976  0.00  0.00    +0.144 HD
ENDBRANCH   2  25
BRANCH   1  28
ATOM     28  C   UNL     1      -4.216   1.608  -5.260  0.00  0.00    +0.131 C 
BRANCH  28  30
ATOM     29  C   UNL     1      -3.905  -0.854  -4.968  0.00  0.00    +0.009 C 
ATOM     30  C   UNL     1      -4.339   0.244  -5.942  0.00  0.00    +0.003 C 
ATOM     31  C   UNL     1      -5.793   0.012  -6.358  0.00  0.00    +0.009 C 
ENDBRANCH  28  30
ENDBRANCH   1  28
TORSDOF 9
