REMARK  Name = ZINC04672015
REMARK  6 active torsions:
REMARK  status: ('A' for Active; 'I' for Inactive)
REMARK    1  A    between atoms: C_1  and  C_2
REMARK    2  A    between atoms: C_5  and  C_8
REMARK    3  A    between atoms: C_8  and  N_9
REMARK    4  A    between atoms: C_10  and  C_27
REMARK    5  A    between atoms: N_14  and  C_18
REMARK    6  A    between atoms: C_24  and  C_26
REMARK                            x       y       z     vdW  Elec       q    Type
REMARK                         _______ _______ _______ _____ _____    ______ ____
ROOT
ATOM      1  N   UNL     1      -2.140   5.344   1.730  0.00  0.00    -0.280 N 
ATOM      2  C   UNL     1      -2.267   4.786   0.390  0.00  0.00    +0.193 C 
ATOM      3  C   UNL     1      -1.908   3.331   0.370  0.00  0.00    +0.241 C 
ATOM      4  O   UNL     1      -2.298   2.649  -0.553  0.00  0.00    -0.273 OA
ATOM      5  N   UNL     1      -1.176   2.754   1.328  0.00  0.00    -0.288 N 
ATOM      6  C   UNL     1      -0.664   3.485   2.480  0.00  0.00    +0.204 C 
ATOM      7  C   UNL     1      -1.412   4.765   2.690  0.00  0.00    +0.234 C 
ATOM      8  O   UNL     1      -1.358   5.297   3.779  0.00  0.00    -0.274 OA
ENDROOT
BRANCH   5   9
ATOM      9  C   UNL     1      -0.880   1.323   1.219  0.00  0.00    +0.079 C 
ATOM     10  C   UNL     1      -0.399   0.797   2.572  0.00  0.00    +0.023 C 
ATOM     11  C   UNL     1       0.867   1.549   2.991  0.00  0.00    +0.002 C 
ATOM     12  C   UNL     1       1.959   1.332   1.941  0.00  0.00    +0.000 C 
ATOM     13  C   UNL     1       1.477   1.859   0.588  0.00  0.00    +0.005 C 
ATOM     14  C   UNL     1       0.212   1.107   0.170  0.00  0.00    +0.006 C 
ATOM     15  C   UNL     1      -0.270   1.633  -1.184  0.00  0.00    +0.009 C 
ENDBRANCH   5   9
BRANCH   2  16
ATOM     16  C   UNL     1      -1.351   5.534  -0.544  0.00  0.00    -0.018 A 
ATOM     17  C   UNL     1      -0.076   5.878  -0.134  0.00  0.00    +0.007 A 
ATOM     18  C   UNL     1       0.766   6.559  -0.992  0.00  0.00    +0.020 A 
ATOM     19  C   UNL     1       0.330   6.904  -2.259  0.00  0.00    +0.041 A 
ATOM     20  C   UNL     1      -0.947   6.564  -2.667  0.00  0.00    +0.020 A 
ATOM     21  C   UNL     1      -1.787   5.879  -1.810  0.00  0.00    +0.007 A 
ATOM     22 CL   UNL     1       1.386   7.766  -3.335  0.00  0.00    -0.084 Cl
ENDBRANCH   2  16
BRANCH   1  23
ATOM     23  C   UNL     1      -2.840   6.594   2.038  0.00  0.00    +0.144 C 
BRANCH  23  28
ATOM     24  C   UNL     1      -8.127   5.396   4.040  0.00  0.00    +0.044 C 
ATOM     25  C   UNL     1      -6.748   5.709   3.518  0.00  0.00    -0.050 A 
ATOM     26  C   UNL     1      -5.685   5.818   4.395  0.00  0.00    +0.003 A 
ATOM     27  C   UNL     1      -4.420   6.104   3.916  0.00  0.00    +0.005 A 
ATOM     28  C   UNL     1      -4.218   6.282   2.560  0.00  0.00    -0.030 A 
ATOM     29  C   UNL     1      -5.282   6.178   1.683  0.00  0.00    +0.005 A 
ATOM     30  C   UNL     1      -6.546   5.888   2.162  0.00  0.00    +0.003 A 
ENDBRANCH  23  28
ENDBRANCH   1  23
TORSDOF 4
