REMARK  Name = ZINC32525396
REMARK  11 active torsions:
REMARK  status: ('A' for Active; 'I' for Inactive)
REMARK    1  A    between atoms: C_1  and  C_2
REMARK    2  A    between atoms: C_2  and  O_3
REMARK    3  A    between atoms: O_3  and  C_4
REMARK    4  A    between atoms: C_7  and  N_23
REMARK    5  A    between atoms: C_9  and  S_10
REMARK    6  A    between atoms: S_10  and  N_13
REMARK    7  A    between atoms: N_13  and  C_14
REMARK    8  A    between atoms: C_17  and  C_20
REMARK    9  A    between atoms: C_20  and  C_21
REMARK   10  A    between atoms: C_20  and  C_22
REMARK   11  A    between atoms: C_26  and  C_32
REMARK                            x       y       z     vdW  Elec       q    Type
REMARK                         _______ _______ _______ _____ _____    ______ ____
ROOT
ATOM      1  C   UNL     1       1.415  -4.460  -0.774  0.00  0.00    +0.147 A 
ATOM      2  C   UNL     1       2.399  -3.499  -0.588  0.00  0.00    +0.049 A 
ATOM      3  C   UNL     1       2.050  -2.171  -0.451  0.00  0.00    +0.029 A 
ATOM      4  C   UNL     1       0.713  -1.797  -0.489  0.00  0.00    +0.061 A 
ATOM      5  C   UNL     1      -0.271  -2.758  -0.676  0.00  0.00    +0.057 A 
ATOM      6  C   UNL     1       0.080  -4.086  -0.818  0.00  0.00    +0.152 A 
ENDROOT
BRANCH   4   7
ATOM      7  N   UNL     1       0.358  -0.449  -0.344  0.00  0.00    -0.143 N 
ATOM      8  C   UNL     1      -0.822   0.013   0.096  0.00  0.00    +0.243 C 
ATOM      9  O   UNL     1      -1.696  -0.751   0.446  0.00  0.00    -0.273 OA
ATOM     10  C   UNL     1      -1.035   1.496   0.147  0.00  0.00    +0.097 C 
ATOM     11  C   UNL     1       0.349   2.197   0.119  0.00  0.00    +0.201 C 
ATOM     12  S   UNL     1       1.331   0.869  -0.691  0.00  0.00    +0.053 S 
ATOM     13  O   UNL     1       2.548   0.641   0.005  0.00  0.00    -0.155 OA
ATOM     14  O   UNL     1       1.302   1.006  -2.105  0.00  0.00    -0.155 OA
ATOM     15  C   UNL     1      -1.774   1.867   1.435  0.00  0.00    +0.019 C 
ENDBRANCH   4   7
BRANCH   6  16
ATOM     16  S   UNL     1      -1.169  -5.307  -1.054  0.00  0.00    +0.076 S 
ATOM     17  O   UNL     1      -2.416  -4.627  -1.004  0.00  0.00    -0.150 OA
ATOM     18  O   UNL     1      -0.770  -6.084  -2.175  0.00  0.00    -0.150 OA
BRANCH  16  19
ATOM     19  N   UNL     1      -1.125  -6.314   0.259  0.00  0.00    -0.216 N 
ATOM     20  H   UNL     1      -0.811  -7.361   0.139  0.00  0.00    +0.174 HD
BRANCH  19  21
ATOM     21  C   UNL     1      -1.486  -5.833   1.520  0.00  0.00    +0.048 A 
ATOM     22  C   UNL     1      -0.990  -4.615   1.969  0.00  0.00    +0.025 A 
ATOM     23  C   UNL     1      -1.352  -4.141   3.214  0.00  0.00    +0.006 A 
ATOM     24  C   UNL     1      -2.200  -4.881   4.018  0.00  0.00    -0.045 A 
ATOM     25  C   UNL     1      -2.691  -6.096   3.576  0.00  0.00    +0.006 A 
ATOM     26  C   UNL     1      -2.337  -6.574   2.330  0.00  0.00    +0.025 A 
BRANCH  24  27
ATOM     27  C   UNL     1      -2.589  -4.363   5.379  0.00  0.00    +0.013 C 
ATOM     28  C   UNL     1      -1.327  -4.066   6.191  0.00  0.00    +0.012 C 
ATOM     29  C   UNL     1      -3.407  -3.080   5.221  0.00  0.00    +0.012 C 
ENDBRANCH  24  27
ENDBRANCH  19  21
ENDBRANCH  16  19
ENDBRANCH   6  16
BRANCH   1  30
ATOM     30  O   UNL     1       1.760  -5.768  -0.915  0.00  0.00    -0.490 OA
BRANCH  30  32
ATOM     31  C   UNL     1       3.353  -7.579  -1.059  0.00  0.00    +0.048 C 
ATOM     32  C   UNL     1       3.141  -6.096  -0.750  0.00  0.00    +0.226 C 
ENDBRANCH  30  32
ENDBRANCH   1  30
TORSDOF 7
