REMARK  Name = ZINC40813654
REMARK  5 active torsions:
REMARK  status: ('A' for Active; 'I' for Inactive)
REMARK    1  A    between atoms: C_1  and  C_2
REMARK    2  A    between atoms: C_6  and  C_7
REMARK    3  A    between atoms: C_14  and  C_16
REMARK    4  A    between atoms: N_21  and  N_22
REMARK    5  A    between atoms: C_23  and  C_25
REMARK                            x       y       z     vdW  Elec       q    Type
REMARK                         _______ _______ _______ _____ _____    ______ ____
ROOT
ATOM      1  C   UNL     1       0.128   1.486  -0.005  0.00  0.00    +0.048 C 
ATOM      2  C   UNL     1      -0.211   0.017  -0.000  0.00  0.00    +0.009 A 
ATOM      3  C   UNL     1      -0.457  -0.792  -1.116  0.00  0.00    +0.042 A 
ATOM      4  C   UNL     1      -0.727  -2.059  -0.655  0.00  0.00    +0.115 A 
ATOM      5  O   UNL     1      -0.649  -2.039   0.674  0.00  0.00    -0.454 OA
ATOM      6  C   UNL     1      -0.335  -0.792   1.094  0.00  0.00    +0.193 A 
ATOM      7  C   UNL     1      -1.048  -3.214  -1.570  0.00  0.00    +0.075 C 
ATOM      8  C   UNL     1      -1.522  -2.675  -2.922  0.00  0.00    +0.014 C 
ATOM      9  C   UNL     1      -0.509  -1.675  -3.490  0.00  0.00    +0.058 C 
ATOM     10  C   UNL     1      -0.456  -0.471  -2.560  0.00  0.00    +0.070 C 
ATOM     11  N   UNL     1      -0.413   0.749  -3.002  0.00  0.00    -0.184 NA
ENDROOT
BRANCH   6  12
ATOM     12  C   UNL     1      -0.158  -0.378   2.491  0.00  0.00    +0.282 C 
ATOM     13  O   UNL     1      -0.014   0.799   2.763  0.00  0.00    -0.267 OA
ATOM     14  N   UNL     1      -0.156  -1.302   3.472  0.00  0.00    -0.292 N 
ATOM     15  C   UNL     1      -0.152  -2.736   3.151  0.00  0.00    +0.108 C 
ATOM     16  C   UNL     1       1.017  -3.402   3.884  0.00  0.00    +0.019 C 
ATOM     17  C   UNL     1       0.919  -3.093   5.380  0.00  0.00    +0.003 C 
ATOM     18  C   UNL     1       1.011  -1.581   5.597  0.00  0.00    +0.022 C 
ATOM     19  C   UNL     1      -0.152  -0.894   4.884  0.00  0.00    +0.073 C 
ATOM     20  C   UNL     1       0.015   0.624   4.979  0.00  0.00    +0.028 C 
ENDBRANCH   6  12
BRANCH  11  21
ATOM     21  N   UNL     1      -0.415   0.994  -4.381  0.00  0.00    -0.203 N 
ATOM     22  C   UNL     1      -0.370   2.261  -4.840  0.00  0.00    +0.265 C 
ATOM     23  O   UNL     1      -0.328   3.190  -4.057  0.00  0.00    -0.268 OA
ATOM     24  H   UNL     1      -0.448   0.253  -5.006  0.00  0.00    +0.178 HD
BRANCH  22  25
ATOM     25  C   UNL     1      -0.372   2.520  -6.294  0.00  0.00    +0.057 A 
ATOM     26  C   UNL     1      -0.425   1.455  -7.196  0.00  0.00    +0.016 A 
ATOM     27  C   UNL     1      -0.427   1.703  -8.552  0.00  0.00    +0.021 A 
ATOM     28  C   UNL     1      -0.374   3.006  -9.022  0.00  0.00    +0.042 A 
ATOM     29  C   UNL     1      -0.320   4.066  -8.134  0.00  0.00    +0.040 A 
ATOM     30  C   UNL     1      -0.325   3.832  -6.773  0.00  0.00    +0.054 A 
ATOM     31 CL   UNL     1      -0.266   5.163  -5.660  0.00  0.00    -0.083 Cl
ATOM     32 CL   UNL     1      -0.376   3.309 -10.731  0.00  0.00    -0.083 Cl
ENDBRANCH  22  25
ENDBRANCH  11  21
TORSDOF 3
