REMARK  Name = ZINC21897002
REMARK  8 active torsions:
REMARK  status: ('A' for Active; 'I' for Inactive)
REMARK    1  A    between atoms: C_7  and  C_11
REMARK    2  A    between atoms: C_11  and  C_12
REMARK    3  A    between atoms: C_12  and  C_14
REMARK    4  A    between atoms: C_12  and  N_26
REMARK    5  A    between atoms: N_16  and  C_17
REMARK    6  A    between atoms: C_17  and  C_18
REMARK    7  A    between atoms: C_18  and  C_19
REMARK    8  A    between atoms: C_27  and  C_29
REMARK                            x       y       z     vdW  Elec       q    Type
REMARK                         _______ _______ _______ _____ _____    ______ ____
ROOT
ATOM      1  C   UNL     1      -0.997   1.758  -3.630  0.00  0.00    +0.163 C 
ENDROOT
BRANCH   1   2
ATOM      2  C   UNL     1      -0.268   1.258  -2.409  0.00  0.00    +0.234 C 
ATOM      3  O   UNL     1       0.726   0.575  -2.534  0.00  0.00    -0.274 OA
ATOM      4  N   UNL     1      -0.721   1.571  -1.179  0.00  0.00    -0.313 N 
ATOM      5  H   UNL     1      -1.623   2.191  -1.066  0.00  0.00    +0.149 HD
BRANCH   4   6
ATOM      6  C   UNL     1      -0.013   1.086   0.008  0.00  0.00    +0.109 C 
BRANCH   6   7
ATOM      7  C   UNL     1      -0.729   1.579   1.267  0.00  0.00    +0.054 C 
BRANCH   7   8
ATOM      8  C   UNL     1       0.000   1.080   2.488  0.00  0.00    -0.046 A 
ATOM      9  C   UNL     1      -0.348  -0.133   3.052  0.00  0.00    +0.005 A 
ATOM     10  C   UNL     1       0.324  -0.594   4.168  0.00  0.00    +0.020 A 
ATOM     11  C   UNL     1       1.337   0.164   4.728  0.00  0.00    +0.041 A 
ATOM     12  C   UNL     1       1.681   1.381   4.166  0.00  0.00    +0.020 A 
ATOM     13  C   UNL     1       1.012   1.838   3.046  0.00  0.00    +0.005 A 
ATOM     14 CL   UNL     1       2.177  -0.411   6.134  0.00  0.00    -0.084 Cl
ENDBRANCH   7   8
ENDBRANCH   6   7
ENDBRANCH   4   6
ENDBRANCH   1   2
BRANCH   1  15
ATOM     15  N   UNL     1      -0.099   1.713  -4.787  0.00  0.00    -0.300 N 
ATOM     16  C   UNL     1       0.432   0.539  -5.182  0.00  0.00    +0.246 C 
ATOM     17  O   UNL     1       0.167  -0.482  -4.579  0.00  0.00    -0.270 OA
ATOM     18  H   UNL     1       0.141   2.637  -5.333  0.00  0.00    +0.150 HD
BRANCH  16  19
ATOM     19  C   UNL     1       1.338   0.494  -6.349  0.00  0.00    +0.055 A 
ATOM     20  C   UNL     1       1.640   1.664  -7.048  0.00  0.00    +0.014 A 
ATOM     21  C   UNL     1       2.490   1.616  -8.133  0.00  0.00    +0.001 A 
ATOM     22  C   UNL     1       3.035   0.409  -8.537  0.00  0.00    +0.001 A 
ATOM     23  C   UNL     1       2.736  -0.755  -7.854  0.00  0.00    +0.021 A 
ATOM     24  C   UNL     1       1.890  -0.721  -6.762  0.00  0.00    +0.053 A 
ATOM     25 CL   UNL     1       1.515  -2.183  -5.905  0.00  0.00    -0.083 Cl
ENDBRANCH  16  19
ENDBRANCH   1  15
BRANCH   1  26
ATOM     26  C   UNL     1      -2.215   0.871  -3.895  0.00  0.00    +0.069 C 
BRANCH  26  33
ATOM     27  C   UNL     1      -1.887   0.452  -8.552  0.00  0.00    +0.001 A 
ATOM     28  C   UNL     1      -2.860   1.173  -9.230  0.00  0.00    +0.002 A 
ATOM     29  C   UNL     1      -3.794   1.914  -8.540  0.00  0.00    +0.026 A 
ATOM     30  C   UNL     1      -3.764   1.941  -7.149  0.00  0.00    +0.047 A 
ATOM     31  C   UNL     1      -2.776   1.208  -6.467  0.00  0.00    +0.003 A 
ATOM     32  C   UNL     1      -1.839   0.465  -7.187  0.00  0.00    +0.010 A 
ATOM     33  C   UNL     1      -3.012   1.441  -5.040  0.00  0.00    -0.020 A 
ATOM     34  C   UNL     1      -4.077   2.253  -4.946  0.00  0.00    +0.087 A 
ATOM     35  N   UNL     1      -4.536   2.567  -6.196  0.00  0.00    -0.360 N 
ATOM     36  H   UNL     1      -5.377   3.205  -6.502  0.00  0.00    +0.165 HD
ENDBRANCH  26  33
ENDBRANCH   1  26
TORSDOF 8
