REMARK  Name = ZINC17072915
REMARK  6 active torsions:
REMARK  status: ('A' for Active; 'I' for Inactive)
REMARK    1  A    between atoms: C_1  and  C_2
REMARK    2  A    between atoms: C_6  and  O_9
REMARK    3  A    between atoms: C_7  and  C_8
REMARK    4  A    between atoms: O_9  and  C_10
REMARK    5  A    between atoms: C_10  and  C_12
REMARK    6  A    between atoms: C_10  and  C_13
REMARK                            x       y       z     vdW  Elec       q    Type
REMARK                         _______ _______ _______ _____ _____    ______ ____
ROOT
ATOM      1  C   UNL     1      -0.481  -2.630   0.078  0.00  0.00    +0.142 A 
ATOM      2  N   UNL     1       0.611  -1.931   0.058  0.00  0.00    -0.155 NA
ATOM      3  N   UNL     1       0.594  -0.542   0.158  0.00  0.00    -0.170 N 
ATOM      4  C   UNL     1       1.683   0.287   0.149  0.00  0.00    +0.283 A 
ATOM      5  O   UNL     1       2.808  -0.168   0.044  0.00  0.00    -0.265 OA
ATOM      6  C   UNL     1       1.471   1.728   0.265  0.00  0.00    +0.067 A 
ATOM      7  C   UNL     1       2.537   2.632   0.263  0.00  0.00    +0.015 A 
ATOM      8  C   UNL     1       2.287   3.970   0.376  0.00  0.00    +0.001 A 
ATOM      9  C   UNL     1       0.985   4.445   0.492  0.00  0.00    +0.002 A 
ATOM     10  C   UNL     1      -0.077   3.587   0.497  0.00  0.00    +0.028 A 
ATOM     11  C   UNL     1       0.146   2.212   0.383  0.00  0.00    +0.079 A 
ATOM     12  N   UNL     1      -0.863   1.322   0.384  0.00  0.00    -0.221 NA
ATOM     13  C   UNL     1      -0.642   0.041   0.279  0.00  0.00    +0.199 A 
ATOM     14  S   UNL     1      -1.732  -1.368   0.247  0.00  0.00    -0.029 S 
ENDROOT
BRANCH   1  15
ATOM     15  C   UNL     1      -0.650  -4.124  -0.019  0.00  0.00    +0.227 C 
ATOM     16  C   UNL     1      -1.557  -4.609   1.114  0.00  0.00    +0.059 C 
BRANCH  15  17
ATOM     17  O   UNL     1      -1.241  -4.456  -1.277  0.00  0.00    -0.482 OA
BRANCH  17  23
ATOM     18  C   UNL     1      -1.683  -7.705  -4.893  0.00  0.00    +0.044 C 
ATOM     19  C   UNL     1      -1.203  -7.323  -3.516  0.00  0.00    -0.044 A 
ATOM     20  C   UNL     1      -0.520  -8.244  -2.743  0.00  0.00    +0.004 A 
ATOM     21  C   UNL     1      -0.079  -7.898  -1.480  0.00  0.00    +0.004 A 
ATOM     22  C   UNL     1      -0.313  -6.628  -0.989  0.00  0.00    +0.046 A 
ATOM     23  C   UNL     1      -1.004  -5.704  -1.760  0.00  0.00    +0.125 A 
ATOM     24  C   UNL     1      -1.446  -6.055  -3.027  0.00  0.00    -0.006 A 
ATOM     25  C   UNL     1      -2.191  -5.052  -3.870  0.00  0.00    +0.048 C 
ENDBRANCH  17  23
ENDBRANCH  15  17
ENDBRANCH   1  15
TORSDOF 3
