REMARK  Name = ZINC59645064
REMARK  7 active torsions:
REMARK  status: ('A' for Active; 'I' for Inactive)
REMARK    1  A    between atoms: C_6  and  C_11
REMARK    2  A    between atoms: C_11  and  O_12
REMARK    3  A    between atoms: O_12  and  C_13
REMARK    4  A    between atoms: C_16  and  C_20
REMARK    5  A    between atoms: N_21  and  N_22
REMARK    6  A    between atoms: C_23  and  C_25
REMARK    7  A    between atoms: C_25  and  C_26
REMARK                            x       y       z     vdW  Elec       q    Type
REMARK                         _______ _______ _______ _____ _____    ______ ____
ROOT
ATOM      1  C   UNL     1       6.622  -3.585   1.445  0.00  0.00    +0.157 A 
ATOM      2  C   UNL     1       6.647  -4.972   1.522  0.00  0.00    +0.085 A 
ATOM      3  C   UNL     1       7.846  -5.634   1.687  0.00  0.00    +0.033 A 
ATOM      4  C   UNL     1       9.036  -4.908   1.776  0.00  0.00    -0.002 A 
ATOM      5  C   UNL     1       9.007  -3.513   1.698  0.00  0.00    +0.033 A 
ATOM      6  C   UNL     1       7.804  -2.859   1.527  0.00  0.00    +0.085 A 
ATOM      7 CL   UNL     1       7.767  -1.127   1.423  0.00  0.00    -0.080 Cl
ATOM      8 CL   UNL     1       5.167  -5.873   1.413  0.00  0.00    -0.080 Cl
ENDROOT
BRANCH   4   9
ATOM      9  C   UNL     1      10.319  -5.611   1.953  0.00  0.00    +0.138 C 
ATOM     10  N   UNL     1      11.424  -4.935   2.035  0.00  0.00    -0.188 NA
BRANCH  10  11
ATOM     11  N   UNL     1      12.644  -5.603   2.204  0.00  0.00    -0.207 N 
ATOM     12  C   UNL     1      13.791  -4.901   2.289  0.00  0.00    +0.238 C 
ATOM     13  O   UNL     1      13.767  -3.690   2.220  0.00  0.00    -0.274 OA
ATOM     14  H   UNL     1      12.663  -6.572   2.258  0.00  0.00    +0.177 HD
BRANCH  12  15
ATOM     15  C   UNL     1      15.103  -5.620   2.470  0.00  0.00    +0.153 C 
BRANCH  15  16
ATOM     16  C   UNL     1      16.223  -4.614   2.536  0.00  0.00    +0.059 A 
ATOM     17  C   UNL     1      17.088  -4.585   3.578  0.00  0.00    +0.072 A 
ATOM     18  S   UNL     1      18.143  -3.228   3.098  0.00  0.00    -0.061 S 
ATOM     19  C   UNL     1      17.385  -2.845   1.645  0.00  0.00    +0.156 A 
ATOM     20  N   UNL     1      16.407  -3.723   1.577  0.00  0.00    -0.230 NA
ATOM     21  N   UNL     1      17.714  -1.850   0.738  0.00  0.00    -0.338 N 
ATOM     22  H   UNL     1      18.470  -1.267   0.910  0.00  0.00    +0.144 HD
ATOM     23  H   UNL     1      17.187  -1.736  -0.069  0.00  0.00    +0.144 HD
ENDBRANCH  15  16
ENDBRANCH  12  15
ENDBRANCH  10  11
ENDBRANCH   4   9
BRANCH   1  24
ATOM     24  O   UNL     1       5.439  -2.936   1.282  0.00  0.00    -0.484 OA
BRANCH  24  25
ATOM     25  C   UNL     1       5.008  -2.700  -0.060  0.00  0.00    +0.264 C 
BRANCH  25  31
ATOM     26  C   UNL     1      -0.016   1.357   0.009  0.00  0.00    +0.001 A 
ATOM     27  C   UNL     1       1.169   2.091   0.002  0.00  0.00    +0.001 A 
ATOM     28  C   UNL     1       2.378   1.468  -0.013  0.00  0.00    +0.008 A 
ATOM     29  C   UNL     1       2.438   0.063  -0.021  0.00  0.00    -0.018 A 
ATOM     30  C   UNL     1       3.668  -0.615  -0.036  0.00  0.00    +0.015 A 
ATOM     31  C   UNL     1       3.687  -1.976  -0.043  0.00  0.00    -0.010 A 
ATOM     32  C   UNL     1       2.502  -2.710  -0.036  0.00  0.00    +0.007 A 
ATOM     33  C   UNL     1       1.292  -2.087  -0.021  0.00  0.00    +0.009 A 
ATOM     34  C   UNL     1       1.233  -0.683  -0.013  0.00  0.00    -0.018 A 
ATOM     35  C   UNL     1       0.002  -0.004   0.002  0.00  0.00    +0.008 A 
ENDBRANCH  25  31
ENDBRANCH  24  25
ENDBRANCH   1  24
TORSDOF 7
