REMARK  Name = ZINC62186479
REMARK  9 active torsions:
REMARK  status: ('A' for Active; 'I' for Inactive)
REMARK    1  A    between atoms: C_1  and  C_2
REMARK    2  A    between atoms: C_2  and  C_3
REMARK    3  A    between atoms: C_2  and  C_4
REMARK    4  A    between atoms: N_12  and  S_15
REMARK    5  A    between atoms: S_15  and  C_18
REMARK    6  A    between atoms: C_21  and  C_24
REMARK    7  A    between atoms: C_24  and  C_25
REMARK    8  A    between atoms: C_24  and  C_26
REMARK    9  A    between atoms: C_24  and  C_27
REMARK                            x       y       z     vdW  Elec       q    Type
REMARK                         _______ _______ _______ _____ _____    ______ ____
ROOT
ATOM      1  C   UNL     1      -1.412  -0.526   0.013  0.00  0.00    +0.222 A 
ATOM      2  N   UNL     1      -2.307  -0.300   0.928  0.00  0.00    -0.111 NA
ATOM      3  N   UNL     1      -3.402  -0.899   0.617  0.00  0.00    -0.092 NA
ATOM      4  C   UNL     1      -3.241  -1.534  -0.519  0.00  0.00    +0.311 A 
ATOM      5  O   UNL     1      -1.980  -1.306  -0.928  0.00  0.00    -0.409 OA
ATOM      6  N   UNL     1      -4.193  -2.291  -1.177  0.00  0.00    -0.281 N 
ATOM      7  C   UNL     1      -3.871  -2.956  -2.447  0.00  0.00    +0.126 C 
ATOM      8  C   UNL     1      -4.175  -4.453  -2.307  0.00  0.00    +0.128 C 
ATOM      9  N   UNL     1      -5.526  -4.608  -1.748  0.00  0.00    -0.174 NA
ATOM     10  C   UNL     1      -5.847  -3.942  -0.478  0.00  0.00    +0.128 C 
ATOM     11  C   UNL     1      -5.541  -2.450  -0.615  0.00  0.00    +0.126 C 
ENDROOT
BRANCH   1  13
ATOM     12  C   UNL     1      -0.019   1.526   0.010  0.00  0.00    +0.017 C 
ATOM     13  C   UNL     1       0.002  -0.004   0.002  0.00  0.00    +0.071 C 
ATOM     14  C   UNL     1       0.742  -0.511   1.242  0.00  0.00    +0.017 C 
ENDBRANCH   1  13
BRANCH   9  15
ATOM     15  S   UNL     1      -6.665  -5.515  -2.536  0.00  0.00    +0.061 S 
ATOM     16  O   UNL     1      -7.933  -5.039  -2.105  0.00  0.00    -0.153 OA
ATOM     17  O   UNL     1      -6.287  -5.542  -3.905  0.00  0.00    -0.153 OA
BRANCH  15  18
ATOM     18  C   UNL     1      -6.519  -7.167  -1.941  0.00  0.00    +0.105 A 
ATOM     19  C   UNL     1      -5.666  -8.055  -2.570  0.00  0.00    +0.029 A 
ATOM     20  C   UNL     1      -5.551  -9.351  -2.103  0.00  0.00    +0.006 A 
ATOM     21  C   UNL     1      -6.288  -9.759  -1.007  0.00  0.00    -0.042 A 
ATOM     22  C   UNL     1      -7.140  -8.871  -0.378  0.00  0.00    +0.006 A 
ATOM     23  C   UNL     1      -7.252  -7.573  -0.842  0.00  0.00    +0.029 A 
BRANCH  21  24
ATOM     24  C   UNL     1      -6.163 -11.172  -0.498  0.00  0.00    -0.013 C 
ATOM     25  C   UNL     1      -4.714 -11.441  -0.089  0.00  0.00    +0.015 C 
ATOM     26  C   UNL     1      -7.079 -11.361   0.713  0.00  0.00    +0.015 C 
ATOM     27  C   UNL     1      -6.571 -12.149  -1.603  0.00  0.00    +0.015 C 
ENDBRANCH  21  24
ENDBRANCH  15  18
ENDBRANCH   9  15
TORSDOF 4
