REMARK  Name = ZINC30961549
REMARK  10 active torsions:
REMARK  status: ('A' for Active; 'I' for Inactive)
REMARK    1  A    between atoms: C_1  and  C_2
REMARK    2  A    between atoms: C_2  and  C_3
REMARK    3  A    between atoms: C_2  and  C_4
REMARK    4  A    between atoms: C_4  and  C_6
REMARK    5  A    between atoms: C_4  and  N_26
REMARK    6  A    between atoms: N_8  and  N_9
REMARK    7  A    between atoms: C_10  and  C_11
REMARK    8  A    between atoms: C_14  and  N_20
REMARK    9  A    between atoms: C_15  and  N_17
REMARK   10  A    between atoms: C_27  and  C_29
REMARK                            x       y       z     vdW  Elec       q    Type
REMARK                         _______ _______ _______ _____ _____    ______ ____
ROOT
ATOM      1  C   UNL     1      -3.632  -2.105   1.129  0.00  0.00    +0.253 C 
ATOM      2  O   UNL     1      -2.477  -2.306   1.442  0.00  0.00    -0.272 OA
ATOM      3  N   UNL     1      -4.515  -3.123   1.119  0.00  0.00    -0.205 N 
ATOM      4  H   UNL     1      -5.583  -2.924   0.947  0.00  0.00    +0.177 HD
ENDROOT
BRANCH   3   5
ATOM      5  N   UNL     1      -4.072  -4.436   1.327  0.00  0.00    -0.188 NA
ATOM      6  C   UNL     1      -4.915  -5.421   1.276  0.00  0.00    +0.138 C 
BRANCH   6   7
ATOM      7  C   UNL     1      -6.219  -5.241   0.613  0.00  0.00    -0.003 A 
ATOM      8  C   UNL     1      -6.489  -4.066  -0.095  0.00  0.00    +0.011 A 
ATOM      9  C   UNL     1      -7.707  -3.903  -0.717  0.00  0.00    +0.026 A 
ATOM     10  C   UNL     1      -8.672  -4.901  -0.633  0.00  0.00    +0.060 A 
ATOM     11  C   UNL     1      -8.409  -6.070   0.075  0.00  0.00    +0.148 A 
ATOM     12  C   UNL     1      -7.191  -6.242   0.695  0.00  0.00    +0.044 A 
BRANCH  10  13
ATOM     13  N   UNL     1      -9.906  -4.730  -1.259  0.00  0.00    -0.328 N 
ATOM     14  C   UNL     1      -9.751  -4.650  -2.717  0.00  0.00    +0.105 C 
ATOM     15  C   UNL     1     -11.130  -4.609  -3.377  0.00  0.00    +0.019 C 
ATOM     16  C   UNL     1     -11.902  -3.392  -2.860  0.00  0.00    +0.003 C 
ATOM     17  C   UNL     1     -12.009  -3.475  -1.335  0.00  0.00    +0.019 C 
ATOM     18  C   UNL     1     -10.604  -3.549  -0.734  0.00  0.00    +0.105 C 
ENDBRANCH  10  13
BRANCH  11  19
ATOM     19  N   UNL     1      -9.439  -7.129   0.161  0.00  0.00    +0.058 N 
ATOM     20  O   UNL     1      -9.210  -8.152   0.781  0.00  0.00    -0.126 OA
ATOM     21  O   UNL     1     -10.516  -6.977  -0.387  0.00  0.00    -0.126 OA
ENDBRANCH  11  19
ENDBRANCH   6   7
ENDBRANCH   3   5
BRANCH   1  22
ATOM     22  C   UNL     1      -4.079  -0.717   0.751  0.00  0.00    +0.163 C 
BRANCH  22  23
ATOM     23  N   UNL     1      -3.240   0.270   1.436  0.00  0.00    -0.300 N 
ATOM     24  C   UNL     1      -3.715   1.508   1.675  0.00  0.00    +0.246 C 
ATOM     25  O   UNL     1      -4.840   1.807   1.323  0.00  0.00    -0.270 OA
ATOM     26  H   UNL     1      -2.223   0.000   1.755  0.00  0.00    +0.150 HD
BRANCH  24  27
ATOM     27  C   UNL     1      -2.870   2.503   2.366  0.00  0.00    +0.055 A 
ATOM     28  C   UNL     1      -1.577   2.164   2.772  0.00  0.00    +0.016 A 
ATOM     29  C   UNL     1      -0.791   3.098   3.412  0.00  0.00    +0.021 A 
ATOM     30  C   UNL     1      -1.281   4.370   3.657  0.00  0.00    +0.042 A 
ATOM     31  C   UNL     1      -2.563   4.713   3.262  0.00  0.00    +0.040 A 
ATOM     32  C   UNL     1      -3.361   3.786   2.620  0.00  0.00    +0.054 A 
ATOM     33 CL   UNL     1      -4.968   4.217   2.125  0.00  0.00    -0.083 Cl
ATOM     34 CL   UNL     1      -0.284   5.540   4.463  0.00  0.00    -0.083 Cl
ENDBRANCH  24  27
ENDBRANCH  22  23
BRANCH  22  36
ATOM     35  C   UNL     1      -4.853  -1.540  -1.477  0.00  0.00    +0.009 C 
ATOM     36  C   UNL     1      -3.949  -0.533  -0.762  0.00  0.00    +0.012 C 
ATOM     37  C   UNL     1      -4.369   0.888  -1.142  0.00  0.00    +0.009 C 
ENDBRANCH  22  36
ENDBRANCH   1  22
TORSDOF 8
