REMARK  Name = ZINC01058885
REMARK  7 active torsions:
REMARK  status: ('A' for Active; 'I' for Inactive)
REMARK    1  A    between atoms: C_1  and  O_2
REMARK    2  A    between atoms: O_2  and  C_3
REMARK    3  A    between atoms: C_5  and  C_21
REMARK    4  A    between atoms: C_8  and  O_9
REMARK    5  A    between atoms: O_9  and  C_10
REMARK    6  A    between atoms: C_10  and  C_12
REMARK    7  A    between atoms: N_22  and  C_23
REMARK                            x       y       z     vdW  Elec       q    Type
REMARK                         _______ _______ _______ _____ _____    ______ ____
ROOT
ATOM      1  C   UNL     1       0.627  -0.601  -1.029  0.00  0.00    +0.163 A 
ATOM      2  C   UNL     1       1.191   0.172  -2.026  0.00  0.00    +0.058 A 
ATOM      3  C   UNL     1       1.788  -0.444  -3.131  0.00  0.00    -0.003 A 
ATOM      4  C   UNL     1       1.811  -1.840  -3.220  0.00  0.00    +0.013 A 
ATOM      5  C   UNL     1       1.247  -2.604  -2.221  0.00  0.00    +0.051 A 
ATOM      6  C   UNL     1       0.660  -1.991  -1.123  0.00  0.00    +0.173 A 
ENDROOT
BRANCH   1   8
ATOM      7  C   UNL     1       0.049   1.423   0.077  0.00  0.00    +0.277 C 
ATOM      8  O   UNL     1       0.046  -0.005   0.046  0.00  0.00    -0.491 OA
ENDBRANCH   1   8
BRANCH   3   9
ATOM      9  C   UNL     1       2.389   0.373  -4.196  0.00  0.00    +0.119 C 
ATOM     10  N   UNL     1       2.945  -0.203  -5.224  0.00  0.00    -0.255 NA
BRANCH  10  11
ATOM     11  C   UNL     1       3.504   0.558  -6.215  0.00  0.00    +0.066 A 
ATOM     12  C   UNL     1       2.823   1.675  -6.708  0.00  0.00    +0.030 A 
ATOM     13  C   UNL     1       3.384   2.442  -7.706  0.00  0.00    +0.030 A 
ATOM     14  C   UNL     1       4.628   2.107  -8.224  0.00  0.00    +0.067 A 
ATOM     15  C   UNL     1       5.314   0.992  -7.736  0.00  0.00    +0.069 A 
ATOM     16  C   UNL     1       4.757   0.222  -6.730  0.00  0.00    +0.055 A 
ATOM     17  N   UNL     1       6.513   0.916  -8.442  0.00  0.00    -0.306 N 
ATOM     18  H   UNL     1       7.201   0.242  -8.322  0.00  0.00    +0.170 HD
ATOM     19  C   UNL     1       6.554   1.937  -9.318  0.00  0.00    +0.325 A 
ATOM     20  O   UNL     1       7.468   2.162 -10.090  0.00  0.00    -0.247 OA
ATOM     21  N   UNL     1       5.432   2.673  -9.211  0.00  0.00    -0.306 N 
ATOM     22  H   UNL     1       5.219   3.463  -9.732  0.00  0.00    +0.170 HD
ENDBRANCH  10  11
ENDBRANCH   3   9
BRANCH   6  23
ATOM     23  O   UNL     1       0.110  -2.750  -0.138  0.00  0.00    -0.419 OA
BRANCH  23  24
ATOM     24  C   UNL     1      -1.224  -2.933  -0.151  0.00  0.00    +0.346 C 
ATOM     25  O   UNL     1      -1.887  -2.511  -1.079  0.00  0.00    -0.244 OA
BRANCH  24  26
ATOM     26  C   UNL     1      -1.882  -3.647   0.960  0.00  0.00    +0.081 A 
ATOM     27  C   UNL     1      -1.124  -4.128   2.030  0.00  0.00    +0.057 A 
ATOM     28  C   UNL     1      -1.744  -4.795   3.067  0.00  0.00    +0.159 A 
ATOM     29  C   UNL     1      -3.120  -4.987   3.047  0.00  0.00    +0.160 A 
ATOM     30  C   UNL     1      -3.876  -4.512   1.988  0.00  0.00    +0.062 A 
ATOM     31  C   UNL     1      -3.267  -3.839   0.948  0.00  0.00    +0.058 A 
ATOM     32 CL   UNL     1      -4.217  -3.239  -0.375  0.00  0.00    -0.083 Cl
ATOM     33  F   UNL     1      -3.723  -5.641   4.064  0.00  0.00    -0.202 F 
ATOM     34  F   UNL     1      -1.013  -5.261   4.103  0.00  0.00    -0.202 F 
ENDBRANCH  24  26
ENDBRANCH  23  24
ENDBRANCH   6  23
TORSDOF 6
