REMARK  Name = ZINC13064432
REMARK  11 active torsions:
REMARK  status: ('A' for Active; 'I' for Inactive)
REMARK    1  A    between atoms: C_1  and  C_2
REMARK    2  A    between atoms: C_2  and  C_3
REMARK    3  A    between atoms: C_3  and  C_5
REMARK    4  A    between atoms: C_3  and  N_73
REMARK    5  A    between atoms: N_9  and  C_10
REMARK    6  A    between atoms: C_10  and  C_11
REMARK    7  A    between atoms: C_14  and  O_17
REMARK    8  A    between atoms: O_17  and  C_18
REMARK    9  A    between atoms: C_19  and  C_20
REMARK   10  A    between atoms: C_19  and  N_73
REMARK   11  A    between atoms: C_36  and  N_73
REMARK                            x       y       z     vdW  Elec       q    Type
REMARK                         _______ _______ _______ _____ _____    ______ ____
ROOT
ATOM      1  N   UNL     1       2.016   4.484   0.954  0.00  0.00    +0.391 N 
ATOM      2  H   UNL     1       1.127   3.979   1.052  0.00  0.00    -0.080 HD
ENDROOT
BRANCH   1   3
ATOM      3  C   UNL     1       2.990   3.934   1.920  0.00  0.00    -0.067 C 
ATOM      4  C   UNL     1       2.791   2.409   2.029  0.00  0.00    -0.015 C 
ATOM      5  C   UNL     1       3.018   2.102   3.531  0.00  0.00    -0.002 C 
ATOM      6  C   UNL     1       2.368   3.321   4.231  0.00  0.00    -0.002 C 
ATOM      7  C   UNL     1       2.722   4.514   3.320  0.00  0.00    -0.015 C 
ENDBRANCH   1   3
BRANCH   1   8
ATOM      8  C   UNL     1       1.787   5.918   1.229  0.00  0.00    +0.003 C 
BRANCH   8   9
ATOM      9  C   UNL     1       3.084   6.682   1.170  0.00  0.00    +0.138 A 
ATOM     10  N   UNL     1       4.133   6.387   0.442  0.00  0.00    -0.115 NA
ATOM     11  N   UNL     1       5.037   7.278   0.665  0.00  0.00    -0.023 NA
ATOM     12  N   UNL     1       4.593   8.130   1.523  0.00  0.00    -0.044 NA
ATOM     13  N   UNL     1       3.393   7.797   1.858  0.00  0.00    -0.226 N 
BRANCH  13  14
ATOM     14  C   UNL     1       2.529   8.499   2.810  0.00  0.00    +0.182 C 
BRANCH  14  15
ATOM     15  C   UNL     1       2.846   8.041   4.210  0.00  0.00    -0.026 A 
ATOM     16  C   UNL     1       2.083   7.052   4.802  0.00  0.00    +0.009 A 
ATOM     17  C   UNL     1       2.376   6.626   6.084  0.00  0.00    +0.046 A 
ATOM     18  C   UNL     1       3.429   7.200   6.780  0.00  0.00    +0.120 A 
ATOM     19  C   UNL     1       4.190   8.196   6.186  0.00  0.00    +0.046 A 
ATOM     20  C   UNL     1       3.897   8.614   4.902  0.00  0.00    +0.009 A 
BRANCH  18  21
ATOM     21  O   UNL     1       3.716   6.787   8.043  0.00  0.00    -0.495 OA
ATOM     22  C   UNL     1       2.891   5.757   8.591  0.00  0.00    +0.277 C 
ENDBRANCH  18  21
ENDBRANCH  14  15
ENDBRANCH  13  14
ENDBRANCH   8   9
BRANCH   8  24
ATOM     23  C   UNL     1      -0.502   5.706   0.250  0.00  0.00    +0.002 C 
ATOM     24  C   UNL     1       0.818   6.476   0.185  0.00  0.00    -0.011 C 
ENDBRANCH   8  24
ENDBRANCH   1   8
BRANCH   1  25
ATOM     25  C   UNL     1       2.518   4.308  -0.425  0.00  0.00    -0.036 C 
BRANCH  25  26
ATOM     26  C   UNL     1       2.580   2.835  -0.736  0.00  0.00    +0.001 A 
ATOM     27  C   UNL     1       1.510   2.217  -1.298  0.00  0.00    +0.017 A 
ATOM     28  C   UNL     1       1.600   0.787  -1.588  0.00  0.00    +0.002 A 
ATOM     29  C   UNL     1       0.528   0.097  -2.167  0.00  0.00    +0.059 A 
ATOM     30  C   UNL     1       0.642  -1.252  -2.426  0.00  0.00    +0.163 A 
ATOM     31  C   UNL     1       1.823  -1.931  -2.116  0.00  0.00    +0.164 A 
ATOM     32  C   UNL     1       2.889  -1.257  -1.545  0.00  0.00    +0.075 A 
ATOM     33  C   UNL     1       2.791   0.102  -1.276  0.00  0.00    +0.053 A 
ATOM     34  N   UNL     1       3.843   0.789  -0.706  0.00  0.00    -0.322 N 
ATOM     35  H   UNL     1       4.662   0.316  -0.492  0.00  0.00    +0.169 HD
ATOM     36  C   UNL     1       3.748   2.104  -0.443  0.00  0.00    +0.251 A 
ATOM     37  O   UNL     1       4.698   2.678   0.062  0.00  0.00    -0.268 OA
ATOM     38  O   UNL     1       1.945  -3.262  -2.372  0.00  0.00    -0.485 OA
ATOM     39  C   UNL     1       0.732  -3.988  -2.596  0.00  0.00    +0.270 C 
ATOM     40  C   UNL     1      -0.136  -3.185  -3.574  0.00  0.00    +0.270 C 
ATOM     41  O   UNL     1      -0.412  -1.910  -2.984  0.00  0.00    -0.485 OA
ENDBRANCH  25  26
ENDBRANCH   1  25
TORSDOF 9
