REMARK  Name = ZINC39735110
REMARK  10 active torsions:
REMARK  status: ('A' for Active; 'I' for Inactive)
REMARK    1  A    between atoms: C_1  and  C_2
REMARK    2  A    between atoms: C_2  and  C_3
REMARK    3  A    between atoms: C_3  and  C_4
REMARK    4  A    between atoms: C_4  and  N_5
REMARK    5  A    between atoms: C_6  and  C_8
REMARK    6  A    between atoms: C_8  and  N_9
REMARK    7  A    between atoms: N_12  and  C_15
REMARK    8  A    between atoms: C_15  and  C_17
REMARK    9  A    between atoms: C_15  and  C_23
REMARK   10  A    between atoms: C_23  and  C_25
REMARK                            x       y       z     vdW  Elec       q    Type
REMARK                         _______ _______ _______ _____ _____    ______ ____
ROOT
ATOM      1  C   UNL     1       1.838  -9.822   5.087  0.00  0.00    +0.158 C 
ENDROOT
BRANCH   1   5
ATOM      2  N   UNL     1       1.824  -6.150   2.994  0.00  0.00    +0.387 N 
ATOM      3  C   UNL     1       0.535  -6.696   3.438  0.00  0.00    -0.063 C 
ATOM      4  C   UNL     1       0.684  -8.194   3.716  0.00  0.00    +0.067 C 
ATOM      5  N   UNL     1       1.706  -8.398   4.752  0.00  0.00    -0.293 NA
ATOM      6  C   UNL     1       2.996  -7.834   4.331  0.00  0.00    +0.067 C 
ATOM      7  C   UNL     1       2.829  -6.340   4.048  0.00  0.00    -0.063 C 
ATOM      8  H   UNL     1       2.121  -6.630   2.157  0.00  0.00    -0.081 HD
BRANCH   2   9
ATOM      9  C   UNL     1       1.677  -4.716   2.710  0.00  0.00    +0.019 C 
BRANCH   9  11
ATOM     10  N   UNL     1       0.452  -3.288   1.105  0.00  0.00    -0.317 N 
ATOM     11  C   UNL     1       0.739  -4.529   1.546  0.00  0.00    +0.196 C 
ATOM     12  O   UNL     1       0.242  -5.494   1.005  0.00  0.00    -0.278 OA
ATOM     13  H   UNL     1       0.849  -2.515   1.537  0.00  0.00    +0.149 HD
BRANCH  10  14
ATOM     14  C   UNL     1      -0.460  -3.105  -0.027  0.00  0.00    +0.104 C 
BRANCH  14  15
ATOM     15  C   UNL     1      -0.614  -1.611  -0.322  0.00  0.00    +0.018 C 
BRANCH  15  17
ATOM     16  C   UNL     1      -1.719   0.073  -1.800  0.00  0.00    +0.004 C 
ATOM     17  C   UNL     1      -1.566  -1.421  -1.505  0.00  0.00    -0.002 C 
ENDBRANCH  15  17
ENDBRANCH  14  15
ENDBRANCH  10  14
ENDBRANCH   9  11
ENDBRANCH   2   9
ENDBRANCH   1   5
BRANCH   1  18
ATOM     18  C   UNL     1       0.488 -10.378   5.462  0.00  0.00    -0.023 A 
ATOM     19  C   UNL     1      -0.323  -9.687   6.343  0.00  0.00    +0.005 A 
ATOM     20  C   UNL     1      -1.561 -10.197   6.687  0.00  0.00    +0.000 A 
ATOM     21  C   UNL     1      -1.988 -11.396   6.149  0.00  0.00    +0.000 A 
ATOM     22  C   UNL     1      -1.178 -12.086   5.267  0.00  0.00    +0.000 A 
ATOM     23  C   UNL     1       0.058 -11.574   4.920  0.00  0.00    +0.005 A 
ENDBRANCH   1  18
BRANCH   1  24
ATOM     24  C   UNL     1       2.786  -9.979   6.249  0.00  0.00    +0.183 C 
ATOM     25  O   UNL     1       2.982  -9.047   7.002  0.00  0.00    -0.290 OA
BRANCH  24  26
ATOM     26  C   UNL     1       3.445 -11.209   6.460  0.00  0.00    +0.025 C 
ATOM     27  C   UNL     1       4.334 -11.517   7.474  0.00  0.00    +0.006 A 
ATOM     28  C   UNL     1       4.851 -10.773   8.560  0.00  0.00    +0.010 A 
ATOM     29  C   UNL     1       5.729 -11.340   9.418  0.00  0.00    +0.001 A 
ATOM     30  C   UNL     1       6.165 -12.667   9.283  0.00  0.00    +0.002 A 
ATOM     31  C   UNL     1       5.732 -13.463   8.281  0.00  0.00    +0.026 A 
ATOM     32  C   UNL     1       4.774 -12.924   7.302  0.00  0.00    +0.043 A 
ATOM     33  N   UNL     1       4.204 -13.456   6.259  0.00  0.00    -0.380 N 
ATOM     34  C   UNL     1       3.322 -12.468   5.631  0.00  0.00    +0.152 C 
ATOM     35  H   UNL     1       4.339 -14.365   5.949  0.00  0.00    +0.160 HD
ENDBRANCH  24  26
ENDBRANCH   1  24
TORSDOF 9
