REMARK  Name = ZINC05635585
REMARK  4 active torsions:
REMARK  status: ('A' for Active; 'I' for Inactive)
REMARK    1  A    between atoms: C_13  and  C_14
REMARK    2  A    between atoms: C_17  and  O_20
REMARK    3  A    between atoms: O_20  and  C_21
REMARK    4  A    between atoms: C_21  and  C_23
REMARK                            x       y       z     vdW  Elec       q    Type
REMARK                         _______ _______ _______ _____ _____    ______ ____
ROOT
ATOM      1  C   UNL     1       1.704   1.442  -5.295  0.00  0.00    +0.002 A 
ATOM      2  C   UNL     1       0.518   2.145  -5.151  0.00  0.00    +0.002 A 
ATOM      3  C   UNL     1       0.412   3.151  -4.209  0.00  0.00    +0.028 A 
ATOM      4  C   UNL     1       1.498   3.456  -3.407  0.00  0.00    +0.077 A 
ATOM      5  C   UNL     1       2.700   2.751  -3.547  0.00  0.00    +0.091 A 
ATOM      6  C   UNL     1       2.793   1.735  -4.503  0.00  0.00    +0.030 A 
ATOM      7  N   UNL     1       3.573   3.262  -2.641  0.00  0.00    -0.221 NA
ATOM      8  C   UNL     1       2.991   4.214  -1.970  0.00  0.00    +0.182 A 
ATOM      9  N   UNL     1       1.694   4.402  -2.384  0.00  0.00    -0.253 N 
ATOM     10  C   UNL     1       0.959   5.353  -1.787  0.00  0.00    +0.272 A 
ATOM     11  O   UNL     1      -0.194   5.557  -2.119  0.00  0.00    -0.266 OA
ATOM     12  C   UNL     1       1.592   6.141  -0.720  0.00  0.00    +0.081 A 
ATOM     13  C   UNL     1       1.075   7.147   0.032  0.00  0.00    +0.028 C 
ATOM     14  S   UNL     1       3.224   5.417  -0.678  0.00  0.00    -0.046 S 
ENDROOT
BRANCH  13  15
ATOM     15  C   UNL     1      -0.357   7.462  -0.049  0.00  0.00    -0.024 A 
ATOM     16  C   UNL     1      -1.303   6.430  -0.089  0.00  0.00    +0.011 A 
ATOM     17  C   UNL     1      -2.644   6.732  -0.159  0.00  0.00    +0.047 A 
ATOM     18  C   UNL     1      -3.060   8.058  -0.201  0.00  0.00    +0.132 A 
ATOM     19  C   UNL     1      -2.125   9.086  -0.167  0.00  0.00    +0.047 A 
ATOM     20  C   UNL     1      -0.781   8.796  -0.092  0.00  0.00    +0.011 A 
BRANCH  18  21
ATOM     21  O   UNL     1      -4.384   8.350  -0.276  0.00  0.00    -0.420 OA
BRANCH  21  22
ATOM     22  C   UNL     1      -4.882   8.730  -1.471  0.00  0.00    +0.380 C 
ATOM     23  O   UNL     1      -4.136   8.889  -2.418  0.00  0.00    -0.241 OA
BRANCH  22  24
ATOM     24  C   UNL     1      -6.321   8.951  -1.627  0.00  0.00    +0.212 A 
ATOM     25  C   UNL     1      -6.954   9.341  -2.774  0.00  0.00    +0.056 A 
ATOM     26  C   UNL     1      -8.322   9.424  -2.472  0.00  0.00    +0.042 A 
ATOM     27  C   UNL     1      -8.462   9.095  -1.168  0.00  0.00    +0.196 A 
ATOM     28  O   UNL     1      -7.255   8.811  -0.663  0.00  0.00    -0.456 OA
ENDBRANCH  22  24
ENDBRANCH  21  22
ENDBRANCH  18  21
ENDBRANCH  13  15
TORSDOF 4
