REMARK  Name = ZINC00499170
REMARK  11 active torsions:
REMARK  status: ('A' for Active; 'I' for Inactive)
REMARK    1  A    between atoms: C_1  and  C_2
REMARK    2  A    between atoms: C_2  and  N_3
REMARK    3  A    between atoms: N_3  and  C_4
REMARK    4  A    between atoms: N_3  and  C_6
REMARK    5  A    between atoms: C_4  and  C_5
REMARK    6  A    between atoms: C_9  and  C_12
REMARK    7  A    between atoms: N_13  and  N_14
REMARK    8  A    between atoms: N_14  and  C_15
REMARK    9  A    between atoms: C_15  and  N_17
REMARK   10  A    between atoms: N_17  and  C_18
REMARK   11  A    between atoms: C_21  and  C_24
REMARK                            x       y       z     vdW  Elec       q    Type
REMARK                         _______ _______ _______ _____ _____    ______ ____
ROOT
ATOM      1  C   UNL     1       1.233  -6.087  -0.341  0.00  0.00    +0.138 C 
ATOM      2  N   UNL     1       1.220  -4.793  -0.237  0.00  0.00    -0.188 NA
ENDROOT
BRANCH   1   6
ATOM      3  C   UNL     1      -2.416  -8.257  -0.315  0.00  0.00    +0.030 A 
ATOM      4  C   UNL     1      -1.207  -8.934  -0.436  0.00  0.00    +0.024 A 
ATOM      5  C   UNL     1      -0.021  -8.233  -0.445  0.00  0.00    +0.011 A 
ATOM      6  C   UNL     1      -0.034  -6.840  -0.333  0.00  0.00    -0.005 A 
ATOM      7  C   UNL     1      -1.250  -6.163  -0.206  0.00  0.00    +0.011 A 
ATOM      8  C   UNL     1      -2.433  -6.870  -0.203  0.00  0.00    +0.024 A 
BRANCH   3   9
ATOM      9  N   UNL     1      -3.615  -8.970  -0.305  0.00  0.00    -0.330 N 
BRANCH   9  11
ATOM     10  C   UNL     1      -5.413  -7.896  -1.569  0.00  0.00    +0.024 C 
ATOM     11  C   UNL     1      -4.889  -8.258  -0.178  0.00  0.00    +0.102 C 
ENDBRANCH   9  11
BRANCH   9  12
ATOM     12  C   UNL     1      -3.600 -10.430  -0.423  0.00  0.00    +0.102 C 
ATOM     13  C   UNL     1      -3.515 -11.053   0.972  0.00  0.00    +0.024 C 
ENDBRANCH   9  12
ENDBRANCH   3   9
ENDBRANCH   1   6
BRANCH   2  14
ATOM     14  N   UNL     1       2.424  -4.077  -0.245  0.00  0.00    -0.218 N 
ATOM     15  H   UNL     1       3.268  -4.548  -0.329  0.00  0.00    +0.176 HD
BRANCH  14  16
ATOM     16  C   UNL     1       2.410  -2.733  -0.137  0.00  0.00    +0.154 C 
ATOM     17  S   UNL     1       3.881  -1.859  -0.147  0.00  0.00    -0.017 S 
BRANCH  16  18
ATOM     18  N   UNL     1       1.238  -2.079  -0.020  0.00  0.00    -0.296 N 
ATOM     19  H   UNL     1       0.410  -2.578   0.066  0.00  0.00    +0.154 HD
BRANCH  18  20
ATOM     20  C   UNL     1       1.214  -0.680  -0.025  0.00  0.00    +0.033 A 
ATOM     21  C   UNL     1       2.011   0.026  -0.916  0.00  0.00    +0.023 A 
ATOM     22  C   UNL     1       1.985   1.407  -0.917  0.00  0.00    +0.005 A 
ATOM     23  C   UNL     1       1.167   2.086  -0.033  0.00  0.00    -0.050 A 
ATOM     24  C   UNL     1       0.372   1.385   0.855  0.00  0.00    +0.005 A 
ATOM     25  C   UNL     1       0.393   0.004   0.862  0.00  0.00    +0.023 A 
ATOM     26  C   UNL     1       1.141   3.593  -0.038  0.00  0.00    +0.044 C 
ENDBRANCH  18  20
ENDBRANCH  16  18
ENDBRANCH  14  16
ENDBRANCH   2  14
TORSDOF 8
