REMARK  Name = ZINC39531114
REMARK  10 active torsions:
REMARK  status: ('A' for Active; 'I' for Inactive)
REMARK    1  A    between atoms: C_1  and  O_2
REMARK    2  A    between atoms: O_2  and  N_3
REMARK    3  A    between atoms: N_3  and  C_4
REMARK    4  A    between atoms: C_4  and  C_5
REMARK    5  A    between atoms: C_5  and  C_7
REMARK    6  A    between atoms: C_5  and  N_20
REMARK    7  A    between atoms: C_10  and  C_13
REMARK    8  A    between atoms: C_13  and  C_14
REMARK    9  A    between atoms: C_24  and  S_27
REMARK   10  A    between atoms: S_27  and  C_28
REMARK                            x       y       z     vdW  Elec       q    Type
REMARK                         _______ _______ _______ _____ _____    ______ ____
ROOT
ATOM      1  C   UNL     1      -2.674  -2.584  -0.048  0.00  0.00    -0.021 C 
ENDROOT
BRANCH   1   2
ATOM      2  N   UNL     1      -3.449  -1.954   1.030  0.00  0.00    +0.387 N 
ATOM      3  C   UNL     1      -4.802  -2.525   1.059  0.00  0.00    -0.062 C 
ATOM      4  C   UNL     1      -5.603  -1.882   2.193  0.00  0.00    +0.063 C 
ATOM      5  N   UNL     1      -5.669  -0.430   1.981  0.00  0.00    -0.308 NA
ATOM      6  C   UNL     1      -4.321   0.152   1.926  0.00  0.00    +0.095 C 
ATOM      7  C   UNL     1      -3.530  -0.507   0.793  0.00  0.00    -0.048 C 
ATOM      8  H   UNL     1      -6.192  -0.210   1.147  0.00  0.00    +0.123 HD
ATOM      9  H   UNL     1      -2.994  -2.125   1.915  0.00  0.00    -0.081 HD
BRANCH   6  10
ATOM     10  S   UNL     1      -4.443   1.936   1.621  0.00  0.00    -0.147 S 
ATOM     11  C   UNL     1      -6.182   2.321   1.963  0.00  0.00    +0.086 C 
ENDBRANCH   6  10
ENDBRANCH   1   2
BRANCH   1  12
ATOM     12  C   UNL     1      -2.620  -4.073   0.177  0.00  0.00    -0.060 A 
ATOM     13  C   UNL     1      -2.458  -4.574   1.455  0.00  0.00    +0.002 A 
ATOM     14  C   UNL     1      -2.408  -5.940   1.661  0.00  0.00    +0.004 A 
ATOM     15  C   UNL     1      -2.521  -6.805   0.588  0.00  0.00    -0.043 A 
ATOM     16  C   UNL     1      -2.684  -6.304  -0.690  0.00  0.00    +0.004 A 
ATOM     17  C   UNL     1      -2.738  -4.938  -0.895  0.00  0.00    +0.002 A 
BRANCH  15  18
ATOM     18  C   UNL     1      -2.466  -8.294   0.813  0.00  0.00    +0.070 C 
BRANCH  18  19
ATOM     19  C   UNL     1      -3.858  -8.817   1.058  0.00  0.00    -0.043 A 
ATOM     20  C   UNL     1      -4.360  -8.870   2.344  0.00  0.00    +0.004 A 
ATOM     21  C   UNL     1      -5.636  -9.350   2.569  0.00  0.00    +0.000 A 
ATOM     22  C   UNL     1      -6.411  -9.777   1.507  0.00  0.00    +0.000 A 
ATOM     23  C   UNL     1      -5.909  -9.723   0.220  0.00  0.00    +0.000 A 
ATOM     24  C   UNL     1      -4.634  -9.239  -0.005  0.00  0.00    +0.004 A 
ENDBRANCH  18  19
ENDBRANCH  15  18
ENDBRANCH   1  12
BRANCH   1  25
ATOM     25  C   UNL     1      -1.253  -2.017  -0.053  0.00  0.00    +0.100 C 
BRANCH  25  26
ATOM     26  N   UNL     1      -0.504  -2.583  -1.183  0.00  0.00    -0.203 NA
ATOM     27  H   UNL     1      -1.016  -2.476  -2.046  0.00  0.00    +0.154 HD
BRANCH  26  29
ATOM     28  C   UNL     1       1.612  -2.490  -2.365  0.00  0.00    +0.221 C 
ATOM     29  O   UNL     1       0.826  -1.983  -1.284  0.00  0.00    -0.303 OA
ENDBRANCH  26  29
ENDBRANCH  25  26
ENDBRANCH   1  25
TORSDOF 8
