REMARK  Name = ZINC04942610
REMARK  10 active torsions:
REMARK  status: ('A' for Active; 'I' for Inactive)
REMARK    1  A    between atoms: C_1  and  C_2
REMARK    2  A    between atoms: C_2  and  C_3
REMARK    3  A    between atoms: C_2  and  C_4
REMARK    4  A    between atoms: C_14  and  C_30
REMARK    5  A    between atoms: C_18  and  C_19
REMARK    6  A    between atoms: C_18  and  C_20
REMARK    7  A    between atoms: C_20  and  N_65
REMARK    8  A    between atoms: C_21  and  C_22
REMARK    9  A    between atoms: C_21  and  N_65
REMARK   10  A    between atoms: C_25  and  C_28
REMARK                            x       y       z     vdW  Elec       q    Type
REMARK                         _______ _______ _______ _____ _____    ______ ____
ROOT
ATOM      1  C   UNL     1      -1.603  -1.826  -0.118  0.00  0.00    -0.045 A 
ATOM      2  C   UNL     1      -0.433  -2.558  -0.034  0.00  0.00    +0.004 A 
ATOM      3  C   UNL     1       0.775  -1.901   0.097  0.00  0.00    +0.005 A 
ATOM      4  C   UNL     1       0.819  -0.517   0.142  0.00  0.00    -0.038 A 
ATOM      5  C   UNL     1      -0.343   0.218   0.063  0.00  0.00    -0.043 A 
ATOM      6  C   UNL     1      -1.558  -0.449  -0.069  0.00  0.00    +0.007 A 
ATOM      7  C   UNL     1      -0.386   1.721   0.111  0.00  0.00    +0.036 C 
ATOM      8  C   UNL     1       1.008   2.345   0.033  0.00  0.00    +0.009 C 
ATOM      9  C   UNL     1       1.949   1.521   0.910  0.00  0.00    +0.004 C 
ATOM     10  C   UNL     1       2.167   0.161   0.274  0.00  0.00    -0.004 C 
ATOM     11  C   UNL     1       3.101  -0.693   1.126  0.00  0.00    +0.011 C 
ATOM     12  C   UNL     1       4.421   0.048   1.342  0.00  0.00    +0.001 C 
ATOM     13  C   UNL     1       4.173   1.361   2.074  0.00  0.00    +0.005 C 
ATOM     14  C   UNL     1       3.200   2.266   1.315  0.00  0.00    -0.044 C 
ATOM     15  C   UNL     1       2.797   3.400   2.289  0.00  0.00    +0.009 C 
ATOM     16  C   UNL     1       2.744   0.264  -1.138  0.00  0.00    +0.016 C 
ENDROOT
BRANCH   1  18
ATOM     17  C   UNL     1      -2.921  -3.369  -1.544  0.00  0.00    +0.012 C 
ATOM     18  C   UNL     1      -2.926  -2.533  -0.263  0.00  0.00    +0.013 C 
ATOM     19  C   UNL     1      -3.150  -3.449   0.943  0.00  0.00    +0.012 C 
ENDBRANCH   1  18
BRANCH  14  20
ATOM     20  C   UNL     1       3.908   2.918   0.127  0.00  0.00    -0.075 C 
BRANCH  20  21
ATOM     21  N   UNL     1       4.958   3.824   0.628  0.00  0.00    +0.382 N 
ATOM     22  H   UNL     1       5.633   3.286   1.184  0.00  0.00    -0.085 HD
ATOM     23  H   UNL     1       4.529   4.547   1.218  0.00  0.00    -0.085 HD
BRANCH  21  24
ATOM     24  C   UNL     1       5.659   4.468  -0.498  0.00  0.00    -0.047 C 
BRANCH  24  25
ATOM     25  C   UNL     1       6.724   5.386   0.043  0.00  0.00    -0.064 A 
ATOM     26  C   UNL     1       6.422   6.710   0.309  0.00  0.00    +0.002 A 
ATOM     27  C   UNL     1       7.391   7.555   0.810  0.00  0.00    +0.015 A 
ATOM     28  C   UNL     1       8.682   7.074   1.037  0.00  0.00    +0.063 A 
ATOM     29  C   UNL     1       8.982   5.738   0.761  0.00  0.00    +0.015 A 
ATOM     30  C   UNL     1       8.002   4.903   0.266  0.00  0.00    +0.002 A 
BRANCH  28  31
ATOM     31  C   UNL     1       9.727   7.974   1.567  0.00  0.00    +0.387 C 
ATOM     32  O   UNL     1      10.849   7.553   1.764  0.00  0.00    -0.241 OA
ATOM     33  O   UNL     1       9.435   9.262   1.833  0.00  0.00    -0.241 OA
ENDBRANCH  28  31
ENDBRANCH  24  25
ENDBRANCH  21  24
ENDBRANCH  20  21
ENDBRANCH  14  20
TORSDOF 6
