REMARK  Name = ZINC49522772
REMARK  8 active torsions:
REMARK  status: ('A' for Active; 'I' for Inactive)
REMARK    1  A    between atoms: C_1  and  C_2
REMARK    2  A    between atoms: C_2  and  C_3
REMARK    3  A    between atoms: C_2  and  C_4
REMARK    4  A    between atoms: C_2  and  N_5
REMARK    5  A    between atoms: C_11  and  C_14
REMARK    6  A    between atoms: C_14  and  N_15
REMARK    7  A    between atoms: C_16  and  C_18
REMARK    8  A    between atoms: N_20  and  C_21
REMARK                            x       y       z     vdW  Elec       q    Type
REMARK                         _______ _______ _______ _____ _____    ______ ____
ROOT
ATOM      1  N   UNL     1       6.210  -3.555  -4.902  0.00  0.00    -0.307 N 
ATOM      2  C   UNL     1       7.105  -4.560  -4.965  0.00  0.00    +0.299 C 
ATOM      3  O   UNL     1       6.779  -5.685  -4.647  0.00  0.00    -0.265 OA
ATOM      4  H   UNL     1       6.471  -2.656  -5.156  0.00  0.00    +0.149 HD
ENDROOT
BRANCH   2   5
ATOM      5  C   UNL     1       8.499  -4.290  -5.428  0.00  0.00    +0.303 C 
ATOM      6  O   UNL     1       8.826  -3.165  -5.746  0.00  0.00    -0.265 OA
ATOM      7  N   UNL     1       9.395  -5.295  -5.492  0.00  0.00    -0.278 N 
ATOM      8  H   UNL     1       9.116  -6.206  -5.309  0.00  0.00    +0.155 HD
BRANCH   7   9
ATOM      9  C   UNL     1      10.727  -5.025  -5.821  0.00  0.00    +0.034 A 
ATOM     10  C   UNL     1      11.312  -3.831  -5.426  0.00  0.00    +0.028 A 
ATOM     11  C   UNL     1      12.632  -3.563  -5.742  0.00  0.00    -0.024 A 
ATOM     12  C   UNL     1      13.375  -4.496  -6.452  0.00  0.00    +0.043 A 
ATOM     13  C   UNL     1      12.783  -5.685  -6.863  0.00  0.00    -0.023 A 
ATOM     14  C   UNL     1      11.468  -5.955  -6.538  0.00  0.00    +0.028 A 
ATOM     15  C   UNL     1      13.564  -6.681  -7.680  0.00  0.00    +0.046 C 
ATOM     16  C   UNL     1      15.036  -6.652  -7.273  0.00  0.00    +0.101 C 
ATOM     17  C   UNL     1      15.519  -5.228  -7.214  0.00  0.00    +0.220 C 
ATOM     18  O   UNL     1      16.647  -4.963  -7.572  0.00  0.00    -0.275 OA
ATOM     19  N   UNL     1      14.716  -4.247  -6.770  0.00  0.00    -0.271 N 
ATOM     20  C   UNL     1      15.247  -2.885  -6.613  0.00  0.00    +0.114 C 
ATOM     21  C   UNL     1      14.754  -2.343  -5.265  0.00  0.00    +0.024 C 
ATOM     22  C   UNL     1      13.229  -2.252  -5.301  0.00  0.00    +0.038 C 
ENDBRANCH   7   9
ENDBRANCH   2   5
BRANCH   1  23
ATOM     23  C   UNL     1       4.842  -3.820  -4.448  0.00  0.00    +0.108 C 
BRANCH  23  30
ATOM     24  N   UNL     1       0.424  -0.250  -2.103  0.00  0.00    -0.294 N 
ATOM     25  C   UNL     1       1.702   0.106  -2.342  0.00  0.00    +0.303 C 
ATOM     26  O   UNL     1       2.216   0.995  -1.692  0.00  0.00    -0.253 OA
ATOM     27  N   UNL     1       2.408  -0.524  -3.301  0.00  0.00    -0.286 N 
ATOM     28  C   UNL     1       1.768  -1.518  -4.172  0.00  0.00    +0.109 C 
ATOM     29  C   UNL     1       2.578  -2.817  -4.116  0.00  0.00    +0.024 C 
ATOM     30  C   UNL     1       4.037  -2.520  -4.469  0.00  0.00    +0.009 C 
ATOM     31  C   UNL     1       4.621  -1.541  -3.448  0.00  0.00    +0.024 C 
ATOM     32  C   UNL     1       3.833  -0.224  -3.500  0.00  0.00    +0.109 C 
ATOM     33  H   UNL     1      -0.010  -0.909  -2.668  0.00  0.00    +0.151 HD
BRANCH  24  35
ATOM     34  C   UNL     1      -0.380   1.871  -1.190  0.00  0.00    +0.031 C 
ATOM     35  C   UNL     1      -0.310   0.356  -0.989  0.00  0.00    +0.028 C 
ATOM     36  C   UNL     1       0.412   0.049   0.325  0.00  0.00    +0.031 C 
ATOM     37  C   UNL     1      -1.727  -0.218  -0.939  0.00  0.00    +0.031 C 
ENDBRANCH  24  35
ENDBRANCH  23  30
ENDBRANCH   1  23
TORSDOF 5
