REMARK  Name = ZINC04811251
REMARK  8 active torsions:
REMARK  status: ('A' for Active; 'I' for Inactive)
REMARK    1  A    between atoms: C_1  and  C_2
REMARK    2  A    between atoms: C_6  and  C_10
REMARK    3  A    between atoms: C_7  and  O_8
REMARK    4  A    between atoms: O_8  and  C_9
REMARK    5  A    between atoms: N_12  and  C_13
REMARK    6  A    between atoms: C_13  and  N_15
REMARK    7  A    between atoms: C_18  and  C_23
REMARK    8  A    between atoms: C_20  and  C_22
REMARK                            x       y       z     vdW  Elec       q    Type
REMARK                         _______ _______ _______ _____ _____    ______ ____
ROOT
ATOM      1  C   UNL     1       2.410   4.744   0.005  0.00  0.00    +0.253 C 
ATOM      2  O   UNL     1       2.390   5.960   0.012  0.00  0.00    -0.270 OA
ATOM      3  N   UNL     1       3.588   4.090  -0.009  0.00  0.00    -0.263 N 
ATOM      4  H   UNL     1       3.603   3.120  -0.015  0.00  0.00    +0.157 HD
ENDROOT
BRANCH   1  10
ATOM      5  C   UNL     1      -2.589   4.663   0.052  0.00  0.00    +0.047 C 
ATOM      6  C   UNL     1      -1.266   3.941   0.035  0.00  0.00    -0.007 A 
ATOM      7  C   UNL     1      -1.235   2.560   0.022  0.00  0.00    +0.022 A 
ATOM      8  C   UNL     1      -0.024   1.887   0.012  0.00  0.00    +0.019 A 
ATOM      9  C   UNL     1       1.163   2.589   0.005  0.00  0.00    +0.032 A 
ATOM     10  C   UNL     1       1.145   3.986   0.013  0.00  0.00    +0.080 A 
ATOM     11  C   UNL     1      -0.083   4.663   0.028  0.00  0.00    +0.135 A 
ATOM     12 BR   UNL     1       0.002  -0.004   0.002  0.00  0.00    -0.050 Br
BRANCH  11  13
ATOM     13  O   UNL     1      -0.113   6.020   0.036  0.00  0.00    -0.494 OA
ATOM     14  C   UNL     1      -0.139   6.676  -1.233  0.00  0.00    +0.277 C 
ENDBRANCH  11  13
ENDBRANCH   1  10
BRANCH   3  15
ATOM     15  C   UNL     1       4.744   4.782  -0.016  0.00  0.00    +0.143 C 
ATOM     16  S   UNL     1       4.716   6.494  -0.007  0.00  0.00    -0.018 S 
BRANCH  15  17
ATOM     17  N   UNL     1       5.922   4.128  -0.030  0.00  0.00    -0.266 N 
ATOM     18  C   UNL     1       7.112   4.841  -0.038  0.00  0.00    +0.221 A 
ATOM     19  N   UNL     1       7.072   6.165  -0.036  0.00  0.00    -0.219 NA
ATOM     20  C   UNL     1       8.188   6.875  -0.037  0.00  0.00    +0.044 A 
ATOM     21  C   UNL     1       9.408   6.217  -0.052  0.00  0.00    +0.046 A 
ATOM     22  C   UNL     1       9.413   4.831  -0.059  0.00  0.00    +0.044 A 
ATOM     23  N   UNL     1       8.261   4.182  -0.052  0.00  0.00    -0.219 NA
ATOM     24  C   UNL     1      10.716   4.073  -0.075  0.00  0.00    +0.066 C 
ATOM     25  C   UNL     1       8.134   8.381  -0.029  0.00  0.00    +0.066 C 
ATOM     26  H   UNL     1       5.937   3.158  -0.036  0.00  0.00    +0.157 HD
ENDBRANCH  15  17
ENDBRANCH   3  15
TORSDOF 4
