REMARK  Name = ZINC36629264
REMARK  6 active torsions:
REMARK  status: ('A' for Active; 'I' for Inactive)
REMARK    1  A    between atoms: C_1  and  C_2
REMARK    2  A    between atoms: C_2  and  C_3
REMARK    3  A    between atoms: C_3  and  N_4
REMARK    4  A    between atoms: C_10  and  N_15
REMARK    5  A    between atoms: C_11  and  C_12
REMARK    6  A    between atoms: C_16  and  C_18
REMARK                            x       y       z     vdW  Elec       q    Type
REMARK                         _______ _______ _______ _____ _____    ______ ____
ROOT
ATOM      1  N   UNL     1       0.738  -1.966  -1.265  0.00  0.00    +0.383 N 
ATOM      2  C   UNL     1       1.532  -2.438  -2.407  0.00  0.00    -0.074 C 
ATOM      3  C   UNL     1       1.828  -3.935  -2.263  0.00  0.00    +0.018 C 
ATOM      4  C   UNL     1       0.507  -4.650  -2.013  0.00  0.00    -0.027 A 
ATOM      5  C   UNL     1      -0.580  -3.951  -1.616  0.00  0.00    -0.021 A 
ATOM      6  S   UNL     1      -1.856  -5.163  -1.454  0.00  0.00    -0.079 S 
ATOM      7  C   UNL     1      -0.999  -6.541  -1.888  0.00  0.00    +0.085 A 
ATOM      8  C   UNL     1       0.279  -6.074  -2.162  0.00  0.00    +0.068 A 
ATOM      9  C   UNL     1      -0.641  -2.475  -1.376  0.00  0.00    -0.035 C 
ATOM     10  H   UNL     1       1.152  -2.301  -0.408  0.00  0.00    -0.081 HD
ENDROOT
BRANCH   8  11
ATOM     11  C   UNL     1       1.351  -6.981  -2.583  0.00  0.00    +0.244 C 
ATOM     12  O   UNL     1       2.067  -7.506  -1.751  0.00  0.00    -0.270 OA
ATOM     13  N   UNL     1       1.544  -7.232  -3.893  0.00  0.00    -0.325 N 
ATOM     14  H   UNL     1       0.974  -6.814  -4.557  0.00  0.00    +0.145 HD
ATOM     15  H   UNL     1       2.253  -7.832  -4.172  0.00  0.00    +0.145 HD
ENDBRANCH   8  11
BRANCH   7  16
ATOM     16  N   UNL     1      -1.461  -7.845  -1.956  0.00  0.00    -0.275 N 
ATOM     17  C   UNL     1      -2.745  -8.121  -1.653  0.00  0.00    +0.250 C 
ATOM     18  O   UNL     1      -3.497  -7.226  -1.319  0.00  0.00    -0.270 OA
ATOM     19  H   UNL     1      -0.861  -8.559  -2.223  0.00  0.00    +0.156 HD
BRANCH  17  20
ATOM     20  C   UNL     1      -3.238  -9.512  -1.726  0.00  0.00    +0.056 A 
ATOM     21  C   UNL     1      -2.376 -10.543  -2.103  0.00  0.00    +0.029 A 
ATOM     22  C   UNL     1      -2.843 -11.840  -2.169  0.00  0.00    +0.019 A 
ATOM     23  C   UNL     1      -4.165 -12.120  -1.863  0.00  0.00    +0.017 A 
ATOM     24  C   UNL     1      -5.024 -11.104  -1.488  0.00  0.00    +0.022 A 
ATOM     25  C   UNL     1      -4.569  -9.802  -1.412  0.00  0.00    +0.053 A 
ATOM     26 CL   UNL     1      -5.648  -8.529  -0.935  0.00  0.00    -0.083 Cl
ATOM     27 BR   UNL     1      -1.677 -13.238  -2.680  0.00  0.00    -0.050 Br
ENDBRANCH  17  20
ENDBRANCH   7  16
BRANCH   1  28
ATOM     28  C   UNL     1       0.718  -0.497  -1.257  0.00  0.00    -0.079 C 
BRANCH  28  30
ATOM     29  C   UNL     1      -0.019   1.526   0.010  0.00  0.00    +0.002 C 
ATOM     30  C   UNL     1       0.002  -0.004   0.002  0.00  0.00    -0.022 C 
ENDBRANCH  28  30
ENDBRANCH   1  28
TORSDOF 5
