REMARK  Name = ZINC15017787
REMARK  8 active torsions:
REMARK  status: ('A' for Active; 'I' for Inactive)
REMARK    1  A    between atoms: C_1  and  C_2
REMARK    2  A    between atoms: C_5  and  C_8
REMARK    3  A    between atoms: C_8  and  C_10
REMARK    4  A    between atoms: C_8  and  N_25
REMARK    5  A    between atoms: C_10  and  C_12
REMARK    6  A    between atoms: C_10  and  O_24
REMARK    7  A    between atoms: C_12  and  C_14
REMARK    8  A    between atoms: C_28  and  N_31
REMARK                            x       y       z     vdW  Elec       q    Type
REMARK                         _______ _______ _______ _____ _____    ______ ____
ROOT
ATOM      1  C   UNL     1       4.174  -1.446   1.348  0.00  0.00    +0.123 C 
ENDROOT
BRANCH   1   6
ATOM      2  C   UNL     1       8.095  -5.651   0.766  0.00  0.00    +0.044 C 
ATOM      3  C   UNL     1       7.072  -4.554   0.918  0.00  0.00    -0.050 A 
ATOM      4  C   UNL     1       5.735  -4.872   1.065  0.00  0.00    +0.003 A 
ATOM      5  C   UNL     1       4.797  -3.866   1.205  0.00  0.00    +0.005 A 
ATOM      6  C   UNL     1       5.196  -2.543   1.196  0.00  0.00    -0.027 A 
ATOM      7  C   UNL     1       6.533  -2.225   1.043  0.00  0.00    +0.005 A 
ATOM      8  C   UNL     1       7.471  -3.231   0.909  0.00  0.00    +0.003 A 
ENDBRANCH   1   6
BRANCH   1   9
ATOM      9  N   UNL     1       4.564  -0.562   2.454  0.00  0.00    -0.293 NA
ATOM     10  C   UNL     1       5.189  -1.325   3.542  0.00  0.00    +0.083 C 
ATOM     11  C   UNL     1       5.713  -0.359   4.608  0.00  0.00    +0.000 C 
ATOM     12  C   UNL     1       4.550   0.477   5.148  0.00  0.00    -0.066 C 
ATOM     13  C   UNL     1       3.886   1.223   3.988  0.00  0.00    +0.000 C 
ATOM     14  C   UNL     1       3.415   0.212   2.940  0.00  0.00    +0.083 C 
BRANCH  12  15
ATOM     15  N   UNL     1       5.055   1.446   6.130  0.00  0.00    +0.382 N 
ATOM     16  C   UNL     1       6.059   2.332   5.526  0.00  0.00    -0.078 C 
ATOM     17  C   UNL     1       6.455   3.416   6.531  0.00  0.00    -0.019 C 
ATOM     18  C   UNL     1       7.023   2.754   7.790  0.00  0.00    -0.004 C 
ATOM     19  C   UNL     1       5.976   1.800   8.372  0.00  0.00    -0.019 C 
ATOM     20  C   UNL     1       5.593   0.763   7.313  0.00  0.00    -0.078 C 
ATOM     21  H   UNL     1       4.211   2.070   6.457  0.00  0.00    -0.081 HD
ENDBRANCH  12  15
ENDBRANCH   1   9
BRANCH   1  22
ATOM     22  C   UNL     1       4.097  -0.638   0.051  0.00  0.00    +0.207 C 
BRANCH  22  23
ATOM     23  C   UNL     1       3.009   0.399   0.169  0.00  0.00    +0.195 C 
ATOM     24  O   UNL     1       3.299   1.565   0.338  0.00  0.00    -0.289 OA
BRANCH  23  25
ATOM     25  C   UNL     1       1.649   0.011   0.083  0.00  0.00    +0.045 A 
ATOM     26  C   UNL     1       1.161  -1.265  -0.105  0.00  0.00    +0.095 A 
ATOM     27  N   UNL     1      -0.185  -1.235  -0.133  0.00  0.00    -0.360 N 
ATOM     28  H   UNL     1      -0.752  -2.167  -0.275  0.00  0.00    +0.165 HD
ATOM     29  C   UNL     1      -0.648   0.054   0.034  0.00  0.00    +0.047 A 
ATOM     30  C   UNL     1       0.468   0.892   0.177  0.00  0.00    +0.010 A 
ATOM     31  C   UNL     1       0.296   2.261   0.362  0.00  0.00    +0.011 A 
ATOM     32  C   UNL     1      -0.977   2.789   0.405  0.00  0.00    +0.001 A 
ATOM     33  C   UNL     1      -2.081   1.962   0.264  0.00  0.00    +0.002 A 
ATOM     34  C   UNL     1      -1.925   0.605   0.085  0.00  0.00    +0.026 A 
ENDBRANCH  23  25
ENDBRANCH  22  23
BRANCH  22  35
ATOM     35  O   UNL     1       5.349   0.010  -0.181  0.00  0.00    -0.382 OA
ATOM     36  H   UNL     1       5.485   0.640  -1.073  0.00  0.00    +0.210 HD
ENDBRANCH  22  35
ENDBRANCH   1  22
TORSDOF 7
