REMARK  Name = ZINC50834629
REMARK  11 active torsions:
REMARK  status: ('A' for Active; 'I' for Inactive)
REMARK    1  A    between atoms: C_1  and  C_2
REMARK    2  A    between atoms: C_2  and  C_4
REMARK    3  A    between atoms: C_2  and  N_10
REMARK    4  A    between atoms: C_13  and  C_28
REMARK    5  A    between atoms: N_19  and  C_22
REMARK    6  A    between atoms: C_22  and  N_24
REMARK    7  A    between atoms: N_24  and  C_25
REMARK    8  A    between atoms: C_25  and  C_26
REMARK    9  A    between atoms: C_25  and  C_27
REMARK   10  A    between atoms: C_28  and  C_29
REMARK   11  A    between atoms: C_28  and  C_30
REMARK                            x       y       z     vdW  Elec       q    Type
REMARK                         _______ _______ _______ _____ _____    ______ ____
ROOT
ATOM      1  N   UNL     1       0.171  -1.126   0.974  0.00  0.00    -0.307 N 
ATOM      2  C   UNL     1       1.338  -1.533   1.514  0.00  0.00    +0.201 C 
ATOM      3  O   UNL     1       2.428  -1.050   1.292  0.00  0.00    -0.277 OA
ATOM      4  C   UNL     1       1.059  -2.693   2.445  0.00  0.00    +0.022 C 
ATOM      5  N   UNL     1      -0.402  -2.635   2.692  0.00  0.00    +0.401 N 
ATOM      6  C   UNL     1      -0.921  -1.956   1.488  0.00  0.00    +0.007 C 
ATOM      7  C   UNL     1      -1.328  -2.999   0.449  0.00  0.00    +0.025 C 
ATOM      8  C   UNL     1      -1.831  -2.289  -0.813  0.00  0.00    +0.107 C 
ATOM      9  N   UNL     1      -2.899  -1.353  -0.434  0.00  0.00    -0.313 N 
ATOM     10  C   UNL     1      -2.628  -0.358   0.613  0.00  0.00    +0.107 C 
ATOM     11  C   UNL     1      -2.118  -1.084   1.862  0.00  0.00    +0.025 C 
ATOM     12  H   UNL     1      -0.787  -3.565   2.774  0.00  0.00    -0.082 HD
ATOM     13  H   UNL     1      -0.603  -2.091   3.518  0.00  0.00    -0.082 HD
ENDROOT
BRANCH   4  14
ATOM     14  C   UNL     1       1.436  -4.016   1.775  0.00  0.00    -0.023 C 
ATOM     15  C   UNL     1       2.946  -4.051   1.530  0.00  0.00    +0.006 C 
ATOM     16  C   UNL     1       1.040  -5.180   2.686  0.00  0.00    +0.006 C 
ENDBRANCH   4  14
BRANCH   1  18
ATOM     17  C   UNL     1       0.381   1.296   0.712  0.00  0.00    +0.033 C 
ATOM     18  C   UNL     1       0.018  -0.021   0.024  0.00  0.00    +0.101 C 
BRANCH  18  19
ATOM     19  C   UNL     1       0.931  -0.241  -1.154  0.00  0.00    -0.027 A 
ATOM     20  C   UNL     1       2.270   0.089  -1.062  0.00  0.00    +0.005 A 
ATOM     21  C   UNL     1       3.108  -0.113  -2.143  0.00  0.00    +0.000 A 
ATOM     22  C   UNL     1       2.607  -0.646  -3.316  0.00  0.00    +0.000 A 
ATOM     23  C   UNL     1       1.268  -0.978  -3.407  0.00  0.00    +0.000 A 
ATOM     24  C   UNL     1       0.431  -0.780  -2.325  0.00  0.00    +0.005 A 
ENDBRANCH  18  19
ENDBRANCH   1  18
BRANCH   9  25
ATOM     25  C   UNL     1      -4.104  -1.406  -1.036  0.00  0.00    +0.133 C 
ATOM     26  S   UNL     1      -5.360  -0.359  -0.530  0.00  0.00    -0.019 S 
BRANCH  25  27
ATOM     27  N   UNL     1      -4.320  -2.284  -2.035  0.00  0.00    -0.324 N 
ATOM     28  H   UNL     1      -3.633  -2.927  -2.273  0.00  0.00    +0.148 HD
BRANCH  27  29
ATOM     29  C   UNL     1      -5.591  -2.268  -2.762  0.00  0.00    +0.066 C 
ATOM     30  C   UNL     1      -5.388  -2.857  -4.160  0.00  0.00    +0.027 C 
ATOM     31  C   UNL     1      -6.624  -3.103  -2.002  0.00  0.00    +0.027 C 
ENDBRANCH  27  29
ENDBRANCH  25  27
ENDBRANCH   9  25
TORSDOF 6
