REMARK  Name = ZINC39886215
REMARK  4 active torsions:
REMARK  status: ('A' for Active; 'I' for Inactive)
REMARK    1  A    between atoms: C_6  and  C_7
REMARK    2  A    between atoms: N_10  and  C_11
REMARK    3  A    between atoms: C_14  and  S_17
REMARK    4  A    between atoms: S_17  and  N_20
REMARK                            x       y       z     vdW  Elec       q    Type
REMARK                         _______ _______ _______ _____ _____    ______ ____
ROOT
ATOM      1  C   UNL     1      -1.258  -0.760   0.011  0.00  0.00    +0.026 C 
ATOM      2  C   UNL     1      -1.240  -2.112  -0.099  0.00  0.00    +0.058 C 
ATOM      3  C   UNL     1      -2.366  -3.059  -0.220  0.00  0.00    +0.140 C 
ATOM      4  N   UNL     1      -3.618  -2.655  -0.234  0.00  0.00    -0.231 NA
ATOM      5  N   UNL     1      -2.034  -4.373  -0.314  0.00  0.00    -0.260 N 
ATOM      6  C   UNL     1      -0.744  -4.760  -0.297  0.00  0.00    +0.282 C 
ATOM      7  O   UNL     1      -0.297  -5.889  -0.373  0.00  0.00    -0.262 OA
ATOM      8  S   UNL     1       0.155  -3.227  -0.145  0.00  0.00    -0.028 S 
ATOM      9  H   UNL     1      -2.733  -5.040  -0.395  0.00  0.00    +0.157 HD
ENDROOT
BRANCH   1  15
ATOM     10  C   UNL     1       1.189  -0.640  -0.416  0.00  0.00    +0.009 A 
ATOM     11  C   UNL     1       2.362   0.080  -0.479  0.00  0.00    +0.020 A 
ATOM     12  C   UNL     1       2.364   1.435  -0.192  0.00  0.00    +0.041 A 
ATOM     13  C   UNL     1       1.188   2.077   0.162  0.00  0.00    +0.020 A 
ATOM     14  C   UNL     1       0.007   1.370   0.230  0.00  0.00    +0.009 A 
ATOM     15  C   UNL     1      -0.003   0.001  -0.059  0.00  0.00    -0.024 A 
ATOM     16 CL   UNL     1       3.847   2.333  -0.274  0.00  0.00    -0.084 Cl
ENDBRANCH   1  15
BRANCH   4  17
ATOM     17  C   UNL     1      -4.629  -3.566  -0.347  0.00  0.00    +0.066 A 
ATOM     18  C   UNL     1      -4.540  -4.601  -1.282  0.00  0.00    +0.030 A 
ATOM     19  C   UNL     1      -5.564  -5.518  -1.390  0.00  0.00    +0.030 A 
ATOM     20  C   UNL     1      -6.679  -5.415  -0.576  0.00  0.00    +0.105 A 
ATOM     21  C   UNL     1      -6.774  -4.392   0.352  0.00  0.00    +0.030 A 
ATOM     22  C   UNL     1      -5.755  -3.471   0.475  0.00  0.00    +0.030 A 
BRANCH  20  23
ATOM     23  S   UNL     1      -7.983  -6.591  -0.721  0.00  0.00    +0.056 S 
ATOM     24  O   UNL     1      -9.156  -5.960  -0.227  0.00  0.00    -0.153 OA
ATOM     25  O   UNL     1      -7.901  -7.127  -2.034  0.00  0.00    -0.153 OA
BRANCH  23  26
ATOM     26  N   UNL     1      -7.640  -7.833   0.319  0.00  0.00    -0.204 NA
ATOM     27  H   UNL     1      -6.835  -7.805   0.860  0.00  0.00    +0.144 HD
ATOM     28  H   UNL     1      -8.244  -8.589   0.388  0.00  0.00    +0.144 HD
ENDBRANCH  23  26
ENDBRANCH  20  23
ENDBRANCH   4  17
TORSDOF 4
