REMARK  Name = ZINC12824004
REMARK  6 active torsions:
REMARK  status: ('A' for Active; 'I' for Inactive)
REMARK    1  A    between atoms: C_1  and  C_2
REMARK    2  A    between atoms: C_5  and  C_7
REMARK    3  A    between atoms: N_9  and  C_10
REMARK    4  A    between atoms: C_10  and  C_12
REMARK    5  A    between atoms: C_10  and  C_18
REMARK    6  A    between atoms: C_26  and  C_28
REMARK                            x       y       z     vdW  Elec       q    Type
REMARK                         _______ _______ _______ _____ _____    ______ ____
ROOT
ATOM      1  C   UNL     1       0.127  -3.941   3.133  0.00  0.00    +0.134 C 
ENDROOT
BRANCH   1   2
ATOM      2  C   UNL     1       0.511  -4.164   4.573  0.00  0.00    -0.021 A 
ATOM      3  C   UNL     1       1.787  -3.834   5.005  0.00  0.00    +0.008 A 
ATOM      4  C   UNL     1       2.155  -4.029   6.306  0.00  0.00    +0.030 A 
ATOM      5  C   UNL     1       1.239  -4.566   7.215  0.00  0.00    +0.089 A 
ATOM      6  C   UNL     1      -0.054  -4.900   6.779  0.00  0.00    +0.067 A 
ATOM      7  C   UNL     1      -0.411  -4.690   5.454  0.00  0.00    +0.033 A 
ATOM      8  N   UNL     1      -0.713  -5.397   7.885  0.00  0.00    -0.335 N 
ATOM      9  H   UNL     1      -1.628  -5.717   7.913  0.00  0.00    +0.167 HD
ATOM     10  C   UNL     1       0.159  -5.356   8.928  0.00  0.00    +0.213 A 
ATOM     11  N   UNL     1       1.301  -4.870   8.537  0.00  0.00    -0.224 NA
BRANCH  10  12
ATOM     12  C   UNL     1      -0.152  -5.808  10.332  0.00  0.00    +0.450 C 
ATOM     13  F   UNL     1       0.825  -5.319  11.206  0.00  0.00    -0.163 F 
ATOM     14  F   UNL     1      -1.405  -5.317  10.712  0.00  0.00    -0.163 F 
ATOM     15  F   UNL     1      -0.164  -7.206  10.380  0.00  0.00    -0.163 F 
ENDBRANCH  10  12
ENDBRANCH   1   2
BRANCH   1  16
ATOM     16  C   UNL     1       0.659  -5.070   2.290  0.00  0.00    -0.023 A 
ATOM     17  C   UNL     1       1.987  -5.079   1.904  0.00  0.00    +0.006 A 
ATOM     18  C   UNL     1       2.475  -6.115   1.131  0.00  0.00    +0.000 A 
ATOM     19  C   UNL     1       1.637  -7.143   0.744  0.00  0.00    +0.000 A 
ATOM     20  C   UNL     1       0.309  -7.135   1.130  0.00  0.00    +0.000 A 
ATOM     21  C   UNL     1      -0.178  -6.101   1.907  0.00  0.00    +0.006 A 
ENDBRANCH   1  16
BRANCH   1  24
ATOM     22  C   UNL     1       0.118  -2.011   1.645  0.00  0.00    +0.217 C 
ATOM     23  O   UNL     1      -0.872  -2.464   1.111  0.00  0.00    -0.275 OA
ATOM     24  N   UNL     1       0.695  -2.673   2.667  0.00  0.00    -0.304 N 
ATOM     25  H   UNL     1       1.487  -2.311   3.094  0.00  0.00    +0.150 HD
BRANCH  22  29
ATOM     26  C   UNL     1      -0.019   1.526   0.010  0.00  0.00    +0.008 C 
ATOM     27  C   UNL     1       0.002  -0.004   0.002  0.00  0.00    -0.002 C 
ATOM     28  C   UNL     1       1.351  -0.691  -0.221  0.00  0.00    +0.017 C 
ATOM     29  C   UNL     1       0.703  -0.708   1.166  0.00  0.00    +0.078 C 
ENDBRANCH  22  29
ENDBRANCH   1  24
TORSDOF 5
