REMARK  Name = ZINC00310344
REMARK  3 active torsions:
REMARK  status: ('A' for Active; 'I' for Inactive)
REMARK    1  A    between atoms: C_3  and  N_21
REMARK    2  A    between atoms: C_6  and  C_7
REMARK    3  A    between atoms: C_11  and  C_14
REMARK                            x       y       z     vdW  Elec       q    Type
REMARK                         _______ _______ _______ _____ _____    ______ ____
ROOT
ATOM      1  C   UNL     1      -4.716   1.078   0.548  0.00  0.00    +0.177 C 
ATOM      2  C   UNL     1      -4.010   0.195   1.600  0.00  0.00    +0.199 C 
ATOM      3  O   UNL     1      -2.622   0.197   1.220  0.00  0.00    -0.344 OA
ATOM      4  C   UNL     1      -2.514   0.979   0.019  0.00  0.00    +0.283 C 
ATOM      5  O   UNL     1      -3.634   1.889   0.029  0.00  0.00    -0.337 OA
ENDROOT
BRANCH   4   6
ATOM      6  C   UNL     1      -1.219   1.750   0.017  0.00  0.00    +0.008 A 
ATOM      7  C   UNL     1      -0.013   1.076   0.008  0.00  0.00    +0.010 A 
ATOM      8  C   UNL     1       1.175   1.783   0.000  0.00  0.00    +0.020 A 
ATOM      9  C   UNL     1       1.156   3.166   0.008  0.00  0.00    +0.041 A 
ATOM     10  C   UNL     1      -0.052   3.841   0.023  0.00  0.00    +0.020 A 
ATOM     11  C   UNL     1      -1.239   3.133   0.031  0.00  0.00    +0.010 A 
ATOM     12 CL   UNL     1       2.647   4.055  -0.002  0.00  0.00    -0.084 Cl
ENDBRANCH   4   6
BRANCH   1  18
ATOM     13  C   UNL     1      -5.400   3.099   1.857  0.00  0.00    +0.008 A 
ATOM     14  C   UNL     1      -6.365   3.894   2.447  0.00  0.00    +0.033 A 
ATOM     15  C   UNL     1      -7.696   3.526   2.385  0.00  0.00    +0.126 A 
ATOM     16  C   UNL     1      -8.062   2.366   1.729  0.00  0.00    +0.033 A 
ATOM     17  C   UNL     1      -7.098   1.574   1.135  0.00  0.00    +0.008 A 
ATOM     18  C   UNL     1      -5.767   1.942   1.196  0.00  0.00    -0.016 A 
BRANCH  15  19
ATOM     19  N   UNL     1      -8.728   4.375   3.021  0.00  0.00    +0.056 N 
ATOM     20  O   UNL     1      -9.901   4.051   2.966  0.00  0.00    -0.126 OA
ATOM     21  O   UNL     1      -8.405   5.397   3.599  0.00  0.00    -0.126 OA
ENDBRANCH  15  19
ENDBRANCH   1  18
TORSDOF 3
