REMARK  Name = ZINC06444111
REMARK  8 active torsions:
REMARK  status: ('A' for Active; 'I' for Inactive)
REMARK    1  A    between atoms: C_1  and  C_2
REMARK    2  A    between atoms: C_12  and  C_14
REMARK    3  A    between atoms: C_14  and  C_16
REMARK    4  A    between atoms: C_14  and  N_74
REMARK    5  A    between atoms: N_20  and  C_21
REMARK    6  A    between atoms: C_21  and  C_22
REMARK    7  A    between atoms: C_25  and  O_28
REMARK    8  A    between atoms: O_28  and  C_29
REMARK                            x       y       z     vdW  Elec       q    Type
REMARK                         _______ _______ _______ _____ _____    ______ ____
ROOT
ATOM      1  C   UNL     1      -2.518   4.282   0.049  0.00  0.00    +0.039 C 
ENDROOT
BRANCH   1  13
ATOM      2  C   UNL     1       3.511   1.685  -0.291  0.00  0.00    +0.046 C 
ATOM      3  C   UNL     1       2.148   1.041  -0.280  0.00  0.00    -0.026 A 
ATOM      4  C   UNL     1       2.032  -0.331  -0.348  0.00  0.00    +0.005 A 
ATOM      5  C   UNL     1       0.783  -0.937  -0.339  0.00  0.00    +0.001 A 
ATOM      6  C   UNL     1      -0.355  -0.184  -0.261  0.00  0.00    +0.010 A 
ATOM      7  C   UNL     1      -0.260   1.209  -0.190  0.00  0.00    -0.001 A 
ATOM      8  C   UNL     1       1.005   1.828  -0.200  0.00  0.00    +0.052 A 
ATOM      9  N   UNL     1       1.092   3.202  -0.130  0.00  0.00    -0.322 N 
ATOM     10  H   UNL     1       1.964   3.626  -0.137  0.00  0.00    +0.169 HD
ATOM     11  C   UNL     1      -0.014   3.962  -0.053  0.00  0.00    +0.251 A 
ATOM     12  O   UNL     1       0.101   5.174   0.007  0.00  0.00    -0.268 OA
ATOM     13  C   UNL     1      -1.306   3.392  -0.039  0.00  0.00    +0.011 A 
ATOM     14  C   UNL     1      -1.458   2.046  -0.099  0.00  0.00    +0.017 A 
ENDBRANCH   1  13
BRANCH   1  25
ATOM     15  C   UNL     1      -2.323   4.402   2.459  0.00  0.00    -0.077 C 
ATOM     16  C   UNL     1      -2.043   5.348   3.630  0.00  0.00    -0.018 C 
ATOM     17  C   UNL     1      -3.158   6.394   3.711  0.00  0.00    +0.003 C 
ATOM     18  C   UNL     1      -3.237   7.149   2.382  0.00  0.00    -0.044 C 
ATOM     19  C   UNL     1      -3.482   6.152   1.247  0.00  0.00    -0.071 C 
ATOM     20  C   UNL     1      -1.919   7.887   2.136  0.00  0.00    +0.005 C 
ATOM     21  C   UNL     1      -1.673   8.881   3.273  0.00  0.00    +0.000 C 
ATOM     22  C   UNL     1      -2.822   9.890   3.327  0.00  0.00    +0.000 C 
ATOM     23  C   UNL     1      -4.139   9.151   3.572  0.00  0.00    +0.000 C 
ATOM     24  C   UNL     1      -4.386   8.157   2.435  0.00  0.00    +0.005 C 
ATOM     25  N   UNL     1      -2.363   5.187   1.207  0.00  0.00    +0.390 N 
ATOM     26  H   UNL     1      -1.481   5.704   1.109  0.00  0.00    -0.080 HD
ENDBRANCH   1  25
BRANCH   1  27
ATOM     27  C   UNL     1      -2.628   5.107  -1.207  0.00  0.00    +0.143 A 
ATOM     28  N   UNL     1      -1.914   6.162  -1.515  0.00  0.00    -0.115 NA
ATOM     29  N   UNL     1      -2.306   6.585  -2.668  0.00  0.00    -0.023 NA
ATOM     30  N   UNL     1      -3.251   5.827  -3.102  0.00  0.00    -0.044 NA
ATOM     31  N   UNL     1      -3.475   4.901  -2.232  0.00  0.00    -0.226 N 
BRANCH  31  32
ATOM     32  C   UNL     1      -4.468   3.829  -2.339  0.00  0.00    +0.182 C 
BRANCH  32  33
ATOM     33  C   UNL     1      -5.774   4.292  -1.745  0.00  0.00    -0.026 A 
ATOM     34  C   UNL     1      -6.036   4.080  -0.404  0.00  0.00    +0.009 A 
ATOM     35  C   UNL     1      -7.229   4.509   0.143  0.00  0.00    +0.046 A 
ATOM     36  C   UNL     1      -8.170   5.142  -0.656  0.00  0.00    +0.120 A 
ATOM     37  C   UNL     1      -7.907   5.349  -2.002  0.00  0.00    +0.046 A 
ATOM     38  C   UNL     1      -6.709   4.923  -2.544  0.00  0.00    +0.009 A 
BRANCH  36  39
ATOM     39  O   UNL     1      -9.347   5.560  -0.120  0.00  0.00    -0.495 OA
ATOM     40  C   UNL     1      -9.550   5.314   1.273  0.00  0.00    +0.277 C 
ENDBRANCH  36  39
ENDBRANCH  32  33
ENDBRANCH  31  32
ENDBRANCH   1  27
TORSDOF 6
