REMARK  Name = ZINC39359335
REMARK  9 active torsions:
REMARK  status: ('A' for Active; 'I' for Inactive)
REMARK    1  A    between atoms: C_1  and  O_2
REMARK    2  A    between atoms: O_2  and  C_3
REMARK    3  A    between atoms: C_6  and  C_11
REMARK    4  A    between atoms: C_8  and  O_9
REMARK    5  A    between atoms: O_9  and  C_10
REMARK    6  A    between atoms: C_16  and  C_26
REMARK    7  A    between atoms: C_19  and  O_25
REMARK    8  A    between atoms: C_28  and  N_33
REMARK    9  A    between atoms: C_31  and  O_32
REMARK                            x       y       z     vdW  Elec       q    Type
REMARK                         _______ _______ _______ _____ _____    ______ ____
ROOT
ATOM      1  C   UNL     1      -4.987  -2.627   0.035  0.00  0.00    +0.032 C 
ATOM      2  C   UNL     1      -5.774  -2.219   1.280  0.00  0.00    +0.059 C 
ATOM      3  C   UNL     1      -7.128  -2.899   1.278  0.00  0.00    +0.014 C 
ATOM      4  C   UNL     1      -7.745  -3.175   0.109  0.00  0.00    +0.024 C 
ATOM      5  C   UNL     1      -9.105  -3.855   0.049  0.00  0.00    +0.092 C 
ATOM      6  C   UNL     1      -9.639  -3.888   1.450  0.00  0.00    +0.049 C 
ATOM      7  C   UNL     1     -10.822  -3.694   1.990  0.00  0.00    +0.235 C 
ATOM      8  N   UNL     1     -10.728  -3.718   3.348  0.00  0.00    -0.114 NA
ATOM      9  N   UNL     1      -9.592  -3.956   3.778  0.00  0.00    -0.157 NA
ATOM     10  C   UNL     1      -8.713  -4.189   2.631  0.00  0.00    +0.245 C 
ATOM     11  N   UNL     1      -7.652  -3.185   2.514  0.00  0.00    -0.321 N 
ATOM     12  C   UNL     1      -7.152  -2.857  -1.124  0.00  0.00    +0.162 C 
ATOM     13  O   UNL     1      -7.749  -3.107  -2.153  0.00  0.00    -0.292 OA
ATOM     14  C   UNL     1      -5.794  -2.215  -1.201  0.00  0.00    +0.088 C 
ATOM     15  H   UNL     1      -7.323  -2.727   3.303  0.00  0.00    +0.148 HD
ENDROOT
BRANCH   1  19
ATOM     16  C   UNL     1      -1.201  -0.638   0.010  0.00  0.00    +0.161 A 
ATOM     17  C   UNL     1      -2.374   0.099   0.019  0.00  0.00    +0.049 A 
ATOM     18  C   UNL     1      -3.596  -0.546   0.027  0.00  0.00    +0.008 A 
ATOM     19  C   UNL     1      -3.652  -1.928   0.026  0.00  0.00    -0.040 A 
ATOM     20  C   UNL     1      -2.485  -2.669   0.017  0.00  0.00    +0.053 A 
ATOM     21  C   UNL     1      -1.257  -2.028   0.003  0.00  0.00    +0.162 A 
BRANCH  16  23
ATOM     22  C   UNL     1      -0.017   1.425   0.010  0.00  0.00    +0.277 C 
ATOM     23  O   UNL     1       0.002  -0.004   0.002  0.00  0.00    -0.491 OA
ENDBRANCH  16  23
BRANCH  21  24
ATOM     24  O   UNL     1      -0.108  -2.756  -0.012  0.00  0.00    -0.491 OA
ATOM     25  C   UNL     1      -0.242  -4.179  -0.018  0.00  0.00    +0.277 C 
ENDBRANCH  21  24
ENDBRANCH   1  19
BRANCH   5  26
ATOM     26  C   UNL     1     -10.034  -3.069  -0.839  0.00  0.00    +0.008 A 
ATOM     27  C   UNL     1     -10.334  -1.755  -0.536  0.00  0.00    +0.040 A 
ATOM     28  C   UNL     1     -11.186  -1.033  -1.351  0.00  0.00    +0.127 A 
ATOM     29  C   UNL     1     -11.741  -1.624  -2.471  0.00  0.00    +0.036 A 
ATOM     30  C   UNL     1     -11.444  -2.937  -2.779  0.00  0.00    +0.048 A 
ATOM     31  C   UNL     1     -10.584  -3.662  -1.966  0.00  0.00    +0.121 A 
BRANCH  28  32
ATOM     32  N   UNL     1     -11.506   0.374  -1.023  0.00  0.00    +0.056 N 
ATOM     33  O   UNL     1     -11.022   0.892  -0.043  0.00  0.00    -0.126 OA
ATOM     34  O   UNL     1     -12.252   1.007  -1.735  0.00  0.00    -0.126 OA
ENDBRANCH  28  32
BRANCH  31  35
ATOM     35  O   UNL     1     -10.287  -4.953  -2.270  0.00  0.00    -0.506 OA
ATOM     36  H   UNL     1     -10.891  -5.598  -1.877  0.00  0.00    +0.292 HD
ENDBRANCH  31  35
ENDBRANCH   5  26
BRANCH   7  37
ATOM     37  O   UNL     1     -11.973  -3.499   1.294  0.00  0.00    -0.491 OA
ATOM     38  H   UNL     1     -12.753  -3.372   1.851  0.00  0.00    +0.294 HD
ENDBRANCH   7  37
TORSDOF 7
