REMARK  Name = ZINC08722166
REMARK  5 active torsions:
REMARK  status: ('A' for Active; 'I' for Inactive)
REMARK    1  A    between atoms: C_1  and  C_2
REMARK    2  A    between atoms: C_3  and  C_14
REMARK    3  A    between atoms: N_5  and  C_7
REMARK    4  A    between atoms: C_25  and  C_26
REMARK    5  A    between atoms: C_25  and  N_58
REMARK                            x       y       z     vdW  Elec       q    Type
REMARK                         _______ _______ _______ _____ _____    ______ ____
ROOT
ATOM      1  C   UNL     1       1.795  -1.819  -0.024  0.00  0.00    +0.195 C 
ATOM      2  N   UNL     1       0.811  -2.679   0.659  0.00  0.00    -0.316 N 
ATOM      3  C   UNL     1       0.882  -2.729   2.027  0.00  0.00    +0.080 A 
ATOM      4  C   UNL     1       2.054  -2.436   2.742  0.00  0.00    +0.068 A 
ATOM      5  C   UNL     1       1.955  -2.547   4.187  0.00  0.00    -0.027 A 
ATOM      6  C   UNL     1       0.744  -2.914   4.666  0.00  0.00    -0.021 A 
ATOM      7  S   UNL     1      -0.273  -3.119   3.230  0.00  0.00    -0.080 S 
ATOM      8  C   UNL     1       0.376  -3.102   6.104  0.00  0.00    -0.035 C 
ATOM      9  C   UNL     1       2.519  -2.065   6.549  0.00  0.00    -0.073 C 
ATOM     10  C   UNL     1       3.106  -2.278   5.151  0.00  0.00    +0.018 C 
ATOM     11  C   UNL     1       3.252  -2.047   1.963  0.00  0.00    +0.248 C 
ATOM     12  O   UNL     1       4.332  -1.887   2.500  0.00  0.00    -0.270 OA
ATOM     13  N   UNL     1       3.095  -1.877   0.635  0.00  0.00    -0.289 N 
ATOM     14  H   UNL     1       0.146  -3.183   0.165  0.00  0.00    +0.149 HD
ATOM     15  H   UNL     1       3.892  -1.790   0.088  0.00  0.00    +0.151 HD
ATOM     16  N   UNL     1       1.633  -3.197   6.886  0.00  0.00    +0.386 N 
ATOM     17  H   UNL     1       2.108  -4.076   6.650  0.00  0.00    -0.081 HD
ENDROOT
BRANCH   1  20
ATOM     18  C   UNL     1       3.603   0.781  -0.028  0.00  0.00    +0.068 C 
ATOM     19  C   UNL     1       2.096   0.753  -0.014  0.00  0.00    +0.068 A 
ATOM     20  C   UNL     1       1.299  -0.396  -0.013  0.00  0.00    +0.050 A 
ATOM     21  C   UNL     1       0.002  -0.004   0.002  0.00  0.00    +0.140 A 
ATOM     22  N   UNL     1      -0.016   1.354   0.009  0.00  0.00    -0.221 N 
ATOM     23  N   UNL     1       1.312   1.800  -0.001  0.00  0.00    -0.170 NA
ATOM     24 CL   UNL     1      -1.385  -1.048   0.011  0.00  0.00    -0.061 Cl
BRANCH  22  25
ATOM     25  C   UNL     1      -1.160   2.164   0.019  0.00  0.00    +0.067 A 
ATOM     26  C   UNL     1      -2.298   1.770  -0.671  0.00  0.00    +0.028 A 
ATOM     27  C   UNL     1      -3.425   2.568  -0.655  0.00  0.00    +0.002 A 
ATOM     28  C   UNL     1      -3.417   3.764   0.039  0.00  0.00    +0.000 A 
ATOM     29  C   UNL     1      -2.284   4.162   0.723  0.00  0.00    +0.002 A 
ATOM     30  C   UNL     1      -1.155   3.366   0.715  0.00  0.00    +0.028 A 
ENDBRANCH  22  25
ENDBRANCH   1  20
BRANCH  16  31
ATOM     31  C   UNL     1       1.330  -3.189   8.334  0.00  0.00    -0.043 C 
BRANCH  31  32
ATOM     32  C   UNL     1       0.726  -1.868   8.737  0.00  0.00    -0.064 A 
ATOM     33  C   UNL     1       1.542  -0.833   9.152  0.00  0.00    +0.002 A 
ATOM     34  C   UNL     1       0.988   0.380   9.518  0.00  0.00    +0.000 A 
ATOM     35  C   UNL     1      -0.382   0.554   9.478  0.00  0.00    +0.000 A 
ATOM     36  C   UNL     1      -1.199  -0.483   9.068  0.00  0.00    +0.000 A 
ATOM     37  C   UNL     1      -0.645  -1.694   8.697  0.00  0.00    +0.002 A 
ENDBRANCH  31  32
ENDBRANCH  16  31
TORSDOF 4
