REMARK  Name = ZINC20033683
REMARK  7 active torsions:
REMARK  status: ('A' for Active; 'I' for Inactive)
REMARK    1  A    between atoms: C_1  and  C_2
REMARK    2  A    between atoms: C_5  and  O_35
REMARK    3  A    between atoms: C_6  and  N_8
REMARK    4  A    between atoms: N_8  and  S_9
REMARK    5  A    between atoms: S_9  and  C_12
REMARK    6  A    between atoms: C_25  and  C_28
REMARK    7  A    between atoms: O_35  and  C_36
REMARK                            x       y       z     vdW  Elec       q    Type
REMARK                         _______ _______ _______ _____ _____    ______ ____
ROOT
ATOM      1  C   UNL     1      -2.366  -0.215   2.467  0.00  0.00    +0.109 A 
ATOM      2  C   UNL     1      -3.504  -0.022   3.230  0.00  0.00    +0.030 A 
ATOM      3  C   UNL     1      -3.401   0.172   4.592  0.00  0.00    +0.025 A 
ATOM      4  C   UNL     1      -2.156   0.171   5.209  0.00  0.00    +0.031 A 
ATOM      5  C   UNL     1      -1.010  -0.033   4.432  0.00  0.00    -0.018 A 
ATOM      6  C   UNL     1      -1.123  -0.223   3.072  0.00  0.00    +0.034 A 
ATOM      7  C   UNL     1       0.294  -0.049   5.130  0.00  0.00    +0.049 C 
ATOM      8  C   UNL     1       1.582   0.305   4.460  0.00  0.00    -0.023 C 
ATOM      9  C   UNL     1       2.392   0.875   5.343  0.00  0.00    -0.030 C 
ATOM     10  C   UNL     1       1.702   0.963   6.706  0.00  0.00    +0.033 C 
ATOM     11  C   UNL     1       0.222   0.976   6.301  0.00  0.00    +0.029 C 
ATOM     12  C   UNL     1      -0.772   0.392   7.290  0.00  0.00    +0.105 C 
ATOM     13  N   UNL     1      -2.075   0.389   6.590  0.00  0.00    -0.336 N 
ATOM     14  H   UNL     1      -3.003   0.559   7.154  0.00  0.00    +0.147 HD
ENDROOT
BRANCH  12  15
ATOM     15  C   UNL     1      -0.847   1.250   8.526  0.00  0.00    -0.026 A 
ATOM     16  C   UNL     1      -1.535   2.449   8.494  0.00  0.00    +0.005 A 
ATOM     17  C   UNL     1      -1.608   3.235   9.629  0.00  0.00    +0.002 A 
ATOM     18  C   UNL     1      -0.985   2.827  10.794  0.00  0.00    +0.020 A 
ATOM     19  C   UNL     1      -0.292   1.630  10.825  0.00  0.00    +0.041 A 
ATOM     20  C   UNL     1      -0.224   0.842   9.690  0.00  0.00    +0.025 A 
ATOM     21 CL   UNL     1       0.491   1.118  12.287  0.00  0.00    -0.084 Cl
ENDBRANCH  12  15
BRANCH   1  22
ATOM     22  S   UNL     1      -2.502  -0.456   0.727  0.00  0.00    +0.072 S 
ATOM     23  O   UNL     1      -3.811  -0.954   0.487  0.00  0.00    -0.150 OA
ATOM     24  O   UNL     1      -1.334  -1.157   0.322  0.00  0.00    -0.150 OA
BRANCH  22  25
ATOM     25  N   UNL     1      -2.427   1.039   0.019  0.00  0.00    -0.213 N 
ATOM     26  H   UNL     1      -3.271   1.405  -0.584  0.00  0.00    +0.174 HD
BRANCH  25  32
ATOM     27  C   UNL     1       2.454   1.407   0.475  0.00  0.00    +0.044 C 
ATOM     28  C   UNL     1       1.089   2.043   0.411  0.00  0.00    -0.048 A 
ATOM     29  C   UNL     1       0.963   3.416   0.513  0.00  0.00    +0.007 A 
ATOM     30  C   UNL     1      -0.286   4.005   0.456  0.00  0.00    +0.048 A 
ATOM     31  C   UNL     1      -1.416   3.220   0.296  0.00  0.00    +0.142 A 
ATOM     32  C   UNL     1      -1.289   1.837   0.187  0.00  0.00    +0.090 A 
ATOM     33  C   UNL     1      -0.033   1.252   0.251  0.00  0.00    +0.031 A 
BRANCH  31  34
ATOM     34  O   UNL     1      -2.646   3.799   0.239  0.00  0.00    -0.493 OA
ATOM     35  C   UNL     1      -2.699   5.222   0.352  0.00  0.00    +0.277 C 
ENDBRANCH  31  34
ENDBRANCH  25  32
ENDBRANCH  22  25
ENDBRANCH   1  22
TORSDOF 5
