REMARK  Name = ZINC13008286
REMARK  3 active torsions:
REMARK  status: ('A' for Active; 'I' for Inactive)
REMARK    1  A    between atoms: C_3  and  C_7
REMARK    2  A    between atoms: C_17  and  S_19
REMARK    3  A    between atoms: S_19  and  C_20
REMARK                            x       y       z     vdW  Elec       q    Type
REMARK                         _______ _______ _______ _____ _____    ______ ____
ROOT
ATOM      1  C   UNL     1      -0.441   1.493  -0.056  0.00  0.00    +0.164 A 
ATOM      2  N   UNL     1       0.736   2.058  -0.293  0.00  0.00    -0.220 NA
ATOM      3  C   UNL     1       0.858   3.369  -0.271  0.00  0.00    +0.114 A 
ATOM      4  C   UNL     1      -0.241   4.207   0.001  0.00  0.00    +0.043 A 
ATOM      5  C   UNL     1       0.035   5.652  -0.009  0.00  0.00    -0.025 A 
ATOM      6  C   UNL     1       1.298   6.028  -0.270  0.00  0.00    -0.004 A 
ATOM      7  S   UNL     1       2.191   4.511  -0.521  0.00  0.00    -0.073 S 
ATOM      8  C   UNL     1       1.462   7.524  -0.248  0.00  0.00    +0.043 C 
ATOM      9  C   UNL     1       0.209   8.040   0.493  0.00  0.00    +0.010 C 
ATOM     10  C   UNL     1      -0.805   6.913   0.217  0.00  0.00    +0.037 C 
ATOM     11  C   UNL     1      -1.476   3.546   0.249  0.00  0.00    +0.115 A 
ATOM     12  N   UNL     1      -1.519   2.225   0.204  0.00  0.00    -0.220 NA
ENDROOT
BRANCH   1  15
ATOM     13  C   UNL     1      -1.862  -1.984  -0.012  0.00  0.00    +0.020 A 
ATOM     14  C   UNL     1      -1.807  -0.602   0.027  0.00  0.00    +0.014 A 
ATOM     15  C   UNL     1      -0.557   0.015  -0.086  0.00  0.00    +0.037 A 
ATOM     16  C   UNL     1       0.578  -0.782  -0.222  0.00  0.00    +0.122 A 
ATOM     17  N   UNL     1       0.476  -2.095  -0.249  0.00  0.00    -0.263 NA
ATOM     18  C   UNL     1      -0.690  -2.705  -0.150  0.00  0.00    +0.111 A 
ENDBRANCH   1  15
BRANCH  11  19
ATOM     19  S   UNL     1      -2.930   4.476   0.604  0.00  0.00    -0.049 S 
BRANCH  19  20
ATOM     20  C   UNL     1      -4.045   3.166   0.987  0.00  0.00    +0.114 A 
ATOM     21  C   UNL     1      -5.421   3.437   1.223  0.00  0.00    +0.040 A 
ATOM     22  C   UNL     1      -6.135   4.702   1.206  0.00  0.00    +0.020 A 
ATOM     23  C   UNL     1      -7.451   4.714   1.464  0.00  0.00    +0.048 A 
ATOM     24  S   UNL     1      -7.835   2.997   1.754  0.00  0.00    -0.077 S 
ATOM     25  C   UNL     1      -6.217   2.309   1.521  0.00  0.00    +0.112 A 
ATOM     26  N   UNL     1      -5.702   1.097   1.571  0.00  0.00    -0.228 NA
ATOM     27  C   UNL     1      -4.416   0.909   1.342  0.00  0.00    +0.223 A 
ATOM     28  N   UNL     1      -3.613   1.917   1.052  0.00  0.00    -0.228 NA
ENDBRANCH  19  20
ENDBRANCH  11  19
TORSDOF 3
