REMARK  Name = ZINC36519244
REMARK  14 active torsions:
REMARK  status: ('A' for Active; 'I' for Inactive)
REMARK    1  A    between atoms: C_1  and  C_2
REMARK    2  A    between atoms: C_2  and  C_3
REMARK    3  A    between atoms: C_3  and  C_4
REMARK    4  A    between atoms: C_4  and  C_5
REMARK    5  A    between atoms: C_5  and  C_6
REMARK    6  A    between atoms: C_6  and  N_7
REMARK    7  A    between atoms: N_7  and  C_8
REMARK    8  A    between atoms: C_8  and  C_10
REMARK    9  A    between atoms: C_8  and  C_24
REMARK   10  A    between atoms: N_26  and  C_27
REMARK   11  A    between atoms: C_27  and  C_28
REMARK   12  A    between atoms: C_27  and  C_29
REMARK   13  A    between atoms: C_27  and  C_30
REMARK   14  A    between atoms: C_31  and  C_33
REMARK                            x       y       z     vdW  Elec       q    Type
REMARK                         _______ _______ _______ _____ _____    ______ ____
ROOT
ATOM      1  C   UNL     1      -4.808  -4.737  -1.119  0.00  0.00    +0.193 C 
ENDROOT
BRANCH   1   2
ATOM      2  C   UNL     1      -6.158  -4.067  -1.139  0.00  0.00    -0.010 A 
ATOM      3  C   UNL     1      -6.659  -3.558   0.004  0.00  0.00    +0.015 A 
ATOM      4  C   UNL     1      -7.920  -2.920   0.037  0.00  0.00    -0.017 A 
ATOM      5  C   UNL     1      -8.433  -2.394   1.232  0.00  0.00    +0.008 A 
ATOM      6  C   UNL     1      -9.652  -1.782   1.234  0.00  0.00    +0.001 A 
ATOM      7  C   UNL     1     -10.398  -1.673   0.067  0.00  0.00    +0.001 A 
ATOM      8  C   UNL     1      -9.927  -2.175  -1.113  0.00  0.00    +0.009 A 
ATOM      9  C   UNL     1      -8.682  -2.806  -1.148  0.00  0.00    -0.010 A 
ATOM     10  C   UNL     1      -8.137  -3.359  -2.391  0.00  0.00    -0.010 A 
ATOM     11  C   UNL     1      -6.868  -3.979  -2.359  0.00  0.00    -0.012 A 
ATOM     12  C   UNL     1      -6.336  -4.507  -3.544  0.00  0.00    +0.009 A 
ATOM     13  C   UNL     1      -7.043  -4.409  -4.706  0.00  0.00    +0.001 A 
ATOM     14  C   UNL     1      -8.289  -3.792  -4.735  0.00  0.00    +0.001 A 
ATOM     15  C   UNL     1      -8.840  -3.279  -3.595  0.00  0.00    +0.009 A 
ENDBRANCH   1   2
BRANCH   1  16
ATOM     16  C   UNL     1      -4.991  -6.232  -1.058  0.00  0.00    +0.239 C 
ATOM     17  O   UNL     1      -4.449  -6.874  -0.183  0.00  0.00    -0.273 OA
ATOM     18  N   UNL     1      -5.757  -6.855  -1.975  0.00  0.00    -0.309 N 
ATOM     19  H   UNL     1      -6.132  -6.354  -2.715  0.00  0.00    +0.149 HD
BRANCH  18  20
ATOM     20  C   UNL     1      -6.022  -8.291  -1.854  0.00  0.00    +0.026 C 
ATOM     21  C   UNL     1      -6.734  -8.568  -0.528  0.00  0.00    +0.031 C 
ATOM     22  C   UNL     1      -6.910  -8.745  -3.014  0.00  0.00    +0.031 C 
ATOM     23  C   UNL     1      -4.699  -9.059  -1.893  0.00  0.00    +0.031 C 
ENDBRANCH  18  20
ENDBRANCH   1  16
BRANCH   1  24
ATOM     24  N   UNL     1      -4.058  -4.288   0.056  0.00  0.00    -0.284 N 
ATOM     25  C   UNL     1      -4.442  -4.674   1.289  0.00  0.00    +0.237 C 
ATOM     26  O   UNL     1      -5.338  -5.482   1.420  0.00  0.00    -0.274 OA
BRANCH  25  27
ATOM     27  C   UNL     1      -3.760  -4.101   2.505  0.00  0.00    +0.159 C 
ATOM     28  C   UNL     1      -2.431  -4.843   2.771  0.00  0.00    +0.041 C 
ATOM     29  C   UNL     1      -2.873  -5.931   3.777  0.00  0.00    +0.098 C 
ATOM     30  C   UNL     1      -4.109  -5.352   4.431  0.00  0.00    +0.214 C 
ATOM     31  O   UNL     1      -4.601  -5.754   5.463  0.00  0.00    -0.276 OA
ATOM     32  N   UNL     1      -4.582  -4.325   3.700  0.00  0.00    -0.304 N 
ATOM     33  H   UNL     1      -5.363  -3.800   3.934  0.00  0.00    +0.149 HD
ENDBRANCH  25  27
BRANCH  24  34
ATOM     34  C   UNL     1      -2.889  -3.421  -0.108  0.00  0.00    +0.109 C 
BRANCH  34  35
ATOM     35  C   UNL     1      -3.331  -1.957  -0.067  0.00  0.00    +0.019 C 
BRANCH  35  36
ATOM     36  C   UNL     1      -2.110  -1.050  -0.239  0.00  0.00    +0.002 C 
BRANCH  36  37
ATOM     37  C   UNL     1      -2.552   0.414  -0.198  0.00  0.00    -0.000 C 
BRANCH  37  39
ATOM     38  C   UNL     1      -1.774   2.784  -0.329  0.00  0.00    +0.004 C 
ATOM     39  C   UNL     1      -1.332   1.320  -0.370  0.00  0.00    -0.003 C 
ENDBRANCH  37  39
ENDBRANCH  36  37
ENDBRANCH  35  36
ENDBRANCH  34  35
ENDBRANCH  24  34
ENDBRANCH   1  24
TORSDOF 10
