REMARK  Name = ZINC51494136
REMARK  6 active torsions:
REMARK  status: ('A' for Active; 'I' for Inactive)
REMARK    1  A    between atoms: C_1  and  C_2
REMARK    2  A    between atoms: C_8  and  N_10
REMARK    3  A    between atoms: N_10  and  C_11
REMARK    4  A    between atoms: C_13  and  C_19
REMARK    5  A    between atoms: C_19  and  N_20
REMARK    6  A    between atoms: N_20  and  C_21
REMARK                            x       y       z     vdW  Elec       q    Type
REMARK                         _______ _______ _______ _____ _____    ______ ____
ROOT
ATOM      1  N   UNL     1       2.533   0.240   0.938  0.00  0.00    -0.315 N 
ATOM      2  C   UNL     1       3.493   0.275  -0.168  0.00  0.00    +0.131 C 
ATOM      3  C   UNL     1       2.807   0.922   2.118  0.00  0.00    +0.123 A 
ATOM      4  C   UNL     1       3.244   0.217   3.236  0.00  0.00    -0.023 A 
ATOM      5  C   UNL     1       3.514   0.908   4.403  0.00  0.00    +0.022 A 
ATOM      6  C   UNL     1       3.336   2.286   4.415  0.00  0.00    +0.036 A 
ATOM      7  C   UNL     1       2.899   2.921   3.269  0.00  0.00    +0.128 A 
ATOM      8  N   UNL     1       2.655   2.236   2.167  0.00  0.00    -0.239 NA
ATOM      9 BR   UNL     1       3.689   3.281   5.983  0.00  0.00    -0.049 Br
ENDROOT
BRANCH   1  16
ATOM     10  C   UNL     1       0.187   1.005   2.455  0.00  0.00    +0.009 C 
ATOM     11  C   UNL     1       0.096   0.421   1.044  0.00  0.00    +0.006 C 
ATOM     12  C   UNL     1       0.122   1.558   0.020  0.00  0.00    +0.005 C 
ATOM     13  C   UNL     1       0.031   0.974  -1.392  0.00  0.00    +0.000 C 
ATOM     14  C   UNL     1       1.218   0.041  -1.635  0.00  0.00    +0.002 C 
ATOM     15  C   UNL     1       1.192  -1.096  -0.611  0.00  0.00    +0.023 C 
ATOM     16  C   UNL     1       1.283  -0.512   0.800  0.00  0.00    +0.077 C 
ENDBRANCH   1  16
BRANCH   4  17
ATOM     17  C   UNL     1       3.421  -1.278   3.174  0.00  0.00    -0.043 C 
BRANCH  17  18
ATOM     18  N   UNL     1       4.643  -1.596   2.423  0.00  0.00    +0.384 N 
ATOM     19  H   UNL     1       4.599  -1.164   1.512  0.00  0.00    -0.085 HD
ATOM     20  H   UNL     1       5.446  -1.245   2.923  0.00  0.00    -0.085 HD
BRANCH  18  21
ATOM     21  C   UNL     1       4.758  -3.052   2.270  0.00  0.00    -0.072 C 
ATOM     22  C   UNL     1       4.704  -3.620   0.850  0.00  0.00    -0.017 C 
ATOM     23  C   UNL     1       6.030  -3.595   1.614  0.00  0.00    -0.017 C 
ENDBRANCH  18  21
ENDBRANCH  17  18
ENDBRANCH   4  17
TORSDOF 4
