REMARK  Name = ZINC09614484
REMARK  8 active torsions:
REMARK  status: ('A' for Active; 'I' for Inactive)
REMARK    1  A    between atoms: C_1  and  C_2
REMARK    2  A    between atoms: C_5  and  C_34
REMARK    3  A    between atoms: C_6  and  C_8
REMARK    4  A    between atoms: C_8  and  N_9
REMARK    5  A    between atoms: C_16  and  C_19
REMARK    6  A    between atoms: C_16  and  O_32
REMARK    7  A    between atoms: C_19  and  C_20
REMARK    8  A    between atoms: C_20  and  C_22
REMARK                            x       y       z     vdW  Elec       q    Type
REMARK                         _______ _______ _______ _____ _____    ______ ____
ROOT
ATOM      1  N   UNL     1      -1.082   9.019   2.005  0.00  0.00    -0.264 N 
ATOM      2  C   UNL     1      -2.325   9.222   1.404  0.00  0.00    +0.043 A 
ATOM      3  C   UNL     1      -3.409  10.006   1.796  0.00  0.00    +0.025 A 
ATOM      4  C   UNL     1      -4.551  10.045   1.024  0.00  0.00    +0.017 A 
ATOM      5  C   UNL     1      -4.630   9.309  -0.146  0.00  0.00    +0.018 A 
ATOM      6  C   UNL     1      -3.557   8.528  -0.541  0.00  0.00    +0.024 A 
ATOM      7  C   UNL     1      -2.417   8.487   0.226  0.00  0.00    +0.016 A 
ATOM      8  C   UNL     1      -1.103   7.755   0.082  0.00  0.00    +0.175 C 
ATOM      9  C   UNL     1      -0.308   8.178   1.300  0.00  0.00    +0.257 C 
ATOM     10  O   UNL     1       0.817   7.823   1.584  0.00  0.00    -0.272 OA
ATOM     11 BR   UNL     1      -6.199   9.369  -1.200  0.00  0.00    -0.050 Br
ENDROOT
BRANCH   8  12
ATOM     12  O   UNL     1      -0.434   8.155  -1.116  0.00  0.00    -0.374 OA
ATOM     13  H   UNL     1       0.428   7.737  -1.243  0.00  0.00    +0.211 HD
ENDBRANCH   8  12
BRANCH   1  14
ATOM     14  C   UNL     1      -0.668   9.652   3.260  0.00  0.00    +0.149 C 
BRANCH  14  20
ATOM     15  C   UNL     1       1.003  13.021  -0.042  0.00  0.00    +0.044 C 
ATOM     16  C   UNL     1       0.895  12.527   1.378  0.00  0.00    -0.050 A 
ATOM     17  C   UNL     1       1.496  13.234   2.403  0.00  0.00    +0.003 A 
ATOM     18  C   UNL     1       1.396  12.781   3.705  0.00  0.00    +0.004 A 
ATOM     19  C   UNL     1       0.692  11.624   3.983  0.00  0.00    -0.046 A 
ATOM     20  C   UNL     1       0.096  10.915   2.958  0.00  0.00    -0.027 A 
ATOM     21  C   UNL     1       0.194  11.369   1.655  0.00  0.00    +0.008 A 
ATOM     22  C   UNL     1       0.579  11.133   5.404  0.00  0.00    +0.044 C 
ENDBRANCH  14  20
ENDBRANCH   1  14
BRANCH   8  23
ATOM     23  C   UNL     1      -1.329   6.242   0.089  0.00  0.00    +0.129 C 
BRANCH  23  24
ATOM     24  C   UNL     1       0.002   5.535   0.116  0.00  0.00    +0.167 C 
ATOM     25  O   UNL     1       1.030   6.179   0.129  0.00  0.00    -0.292 OA
BRANCH  24  26
ATOM     26  C   UNL     1       0.054   4.067   0.126  0.00  0.00    +0.021 A 
ATOM     27  C   UNL     1      -1.131   3.322   0.111  0.00  0.00    +0.015 A 
ATOM     28  C   UNL     1      -1.078   1.947   0.127  0.00  0.00    +0.050 A 
ATOM     29  C   UNL     1       0.149   1.292   0.148  0.00  0.00    +0.162 A 
ATOM     30  C   UNL     1       1.333   2.027   0.161  0.00  0.00    +0.163 A 
ATOM     31  C   UNL     1       1.289   3.408   0.151  0.00  0.00    +0.060 A 
ATOM     32  O   UNL     1       2.542   1.401   0.182  0.00  0.00    -0.485 OA
ATOM     33  C   UNL     1       2.544   0.021   0.567  0.00  0.00    +0.270 C 
ATOM     34  C   UNL     1       1.415  -0.690  -0.191  0.00  0.00    +0.270 C 
ATOM     35  O   UNL     1       0.176  -0.067   0.161  0.00  0.00    -0.485 OA
ENDBRANCH  24  26
ENDBRANCH  23  24
ENDBRANCH   8  23
TORSDOF 6
