REMARK  Name = ZINC09342942
REMARK  8 active torsions:
REMARK  status: ('A' for Active; 'I' for Inactive)
REMARK    1  A    between atoms: C_4  and  S_7
REMARK    2  A    between atoms: S_7  and  C_8
REMARK    3  A    between atoms: C_8  and  C_9
REMARK    4  A    between atoms: C_15  and  C_17
REMARK    5  A    between atoms: C_17  and  C_18
REMARK    6  A    between atoms: C_18  and  N_19
REMARK    7  A    between atoms: N_19  and  S_20
REMARK    8  A    between atoms: S_20  and  C_23
REMARK                            x       y       z     vdW  Elec       q    Type
REMARK                         _______ _______ _______ _____ _____    ______ ____
ROOT
ATOM      1  C   UNL     1      -5.265  -3.579   0.033  0.00  0.00    +0.114 A 
ATOM      2  N   UNL     1      -5.203  -2.263   0.039  0.00  0.00    -0.144 NA
ATOM      3  N   UNL     1      -4.088  -1.671   0.032  0.00  0.00    -0.126 NA
ATOM      4  C   UNL     1      -2.945  -2.335   0.018  0.00  0.00    +0.188 A 
ATOM      5  S   UNL     1      -3.521  -3.977   0.007  0.00  0.00    -0.034 S 
ATOM      6  N   UNL     1      -1.640  -1.854   0.008  0.00  0.00    -0.263 N 
ATOM      7  C   UNL     1      -1.412  -0.526   0.013  0.00  0.00    +0.220 C 
ATOM      8  O   UNL     1      -2.344   0.250   0.026  0.00  0.00    -0.275 OA
ATOM      9  H   UNL     1      -0.894  -2.474  -0.003  0.00  0.00    +0.157 HD
ENDROOT
BRANCH   1  10
ATOM     10  C   UNL     1      -6.465  -4.491   0.040  0.00  0.00    +0.139 C 
BRANCH  10  11
ATOM     11  S   UNL     1      -6.963  -4.848  -1.667  0.00  0.00    -0.118 S 
BRANCH  11  15
ATOM     12  C   UNL     1     -10.548  -7.578  -1.215  0.00  0.00    +0.000 A 
ATOM     13  C   UNL     1     -10.104  -7.225  -2.477  0.00  0.00    +0.001 A 
ATOM     14  C   UNL     1      -9.012  -6.393  -2.619  0.00  0.00    +0.015 A 
ATOM     15  C   UNL     1      -8.357  -5.910  -1.492  0.00  0.00    +0.008 A 
ATOM     16  C   UNL     1      -8.803  -6.272  -0.226  0.00  0.00    +0.015 A 
ATOM     17  C   UNL     1      -9.900  -7.099  -0.091  0.00  0.00    +0.001 A 
ENDBRANCH  11  15
ENDBRANCH  10  11
ENDBRANCH   1  10
BRANCH   7  18
ATOM     18  C   UNL     1       0.002  -0.004   0.002  0.00  0.00    +0.113 C 
BRANCH  18  19
ATOM     19  C   UNL     1      -0.019   1.526   0.010  0.00  0.00    +0.115 C 
BRANCH  19  20
ATOM     20  N   UNL     1       1.356   2.033   0.000  0.00  0.00    -0.189 NA
ATOM     21  H   UNL     1       2.094   1.438   0.207  0.00  0.00    +0.148 HD
BRANCH  20  22
ATOM     22  S   UNL     1       1.650   3.621  -0.365  0.00  0.00    +0.058 S 
ATOM     23  O   UNL     1       3.055   3.807  -0.267  0.00  0.00    -0.153 OA
ATOM     24  O   UNL     1       0.925   3.905  -1.555  0.00  0.00    -0.153 OA
BRANCH  22  25
ATOM     25  C   UNL     1       0.922   4.593   0.911  0.00  0.00    +0.105 A 
ATOM     26  C   UNL     1      -0.386   5.026   0.790  0.00  0.00    +0.029 A 
ATOM     27  C   UNL     1      -0.959   5.784   1.794  0.00  0.00    +0.017 A 
ATOM     28  C   UNL     1      -0.220   6.118   2.915  0.00  0.00    +0.018 A 
ATOM     29  C   UNL     1       1.090   5.690   3.033  0.00  0.00    +0.017 A 
ATOM     30  C   UNL     1       1.660   4.927   2.031  0.00  0.00    +0.029 A 
ATOM     31 BR   UNL     1      -1.001   7.161   4.285  0.00  0.00    -0.050 Br
ENDBRANCH  22  25
ENDBRANCH  20  22
ENDBRANCH  19  20
ENDBRANCH  18  19
ENDBRANCH   7  18
TORSDOF 8
