REMARK  Name = ZINC67116555
REMARK  8 active torsions:
REMARK  status: ('A' for Active; 'I' for Inactive)
REMARK    1  A    between atoms: C_1  and  C_2
REMARK    2  A    between atoms: C_4  and  C_27
REMARK    3  A    between atoms: C_6  and  C_8
REMARK    4  A    between atoms: C_10  and  C_20
REMARK    5  A    between atoms: C_11  and  C_16
REMARK    6  A    between atoms: C_16  and  O_18
REMARK    7  A    between atoms: O_18  and  C_19
REMARK    8  A    between atoms: C_20  and  C_22
REMARK                            x       y       z     vdW  Elec       q    Type
REMARK                         _______ _______ _______ _____ _____    ______ ____
ROOT
ATOM      1  C   UNL     1      -0.032  -2.628   2.406  0.00  0.00    +0.138 C 
ATOM      2  C   UNL     1      -1.455  -2.873   2.864  0.00  0.00    +0.056 C 
ATOM      3  C   UNL     1      -1.753  -2.618   4.164  0.00  0.00    +0.127 C 
ATOM      4  N   UNL     1      -0.788  -2.153   5.031  0.00  0.00    -0.291 N 
ATOM      5  C   UNL     1       0.481  -1.922   4.670  0.00  0.00    +0.135 C 
ATOM      6  S   UNL     1       1.583  -1.344   5.845  0.00  0.00    -0.019 S 
ATOM      7  N   UNL     1       0.919  -2.130   3.413  0.00  0.00    -0.315 N 
ATOM      8  H   UNL     1      -1.041  -1.983   5.952  0.00  0.00    +0.154 HD
ATOM      9  H   UNL     1       1.844  -1.955   3.178  0.00  0.00    +0.149 HD
ENDROOT
BRANCH   1  15
ATOM     10  C   UNL     1      -0.462   2.093   0.801  0.00  0.00    +0.044 C 
ATOM     11  C   UNL     1      -0.279   0.626   0.507  0.00  0.00    -0.050 A 
ATOM     12  C   UNL     1      -0.149   0.194  -0.799  0.00  0.00    +0.006 A 
ATOM     13  C   UNL     1       0.018  -1.152  -1.069  0.00  0.00    -0.050 A 
ATOM     14  C   UNL     1       0.056  -2.065  -0.031  0.00  0.00    +0.009 A 
ATOM     15  C   UNL     1      -0.072  -1.632   1.275  0.00  0.00    -0.022 A 
ATOM     16  C   UNL     1      -0.236  -0.286   1.545  0.00  0.00    +0.009 A 
ATOM     17  C   UNL     1       0.159  -1.623  -2.493  0.00  0.00    +0.044 C 
ENDBRANCH   1  15
BRANCH   3  18
ATOM     18  C   UNL     1      -3.131  -2.842   4.656  0.00  0.00    +0.354 C 
ATOM     19  O   UNL     1      -3.962  -3.341   3.926  0.00  0.00    -0.244 OA
BRANCH  18  20
ATOM     20  O   UNL     1      -3.462  -2.491   5.914  0.00  0.00    -0.464 OA
ATOM     21  C   UNL     1      -4.809  -2.736   6.322  0.00  0.00    +0.280 C 
ENDBRANCH  18  20
ENDBRANCH   3  18
BRANCH   2  22
ATOM     22  C   UNL     1      -2.476  -3.367   1.934  0.00  0.00    +0.228 C 
ATOM     23  O   UNL     1      -3.410  -2.651   1.618  0.00  0.00    -0.284 OA
BRANCH  22  24
ATOM     24  C   UNL     1      -2.373  -4.723   1.387  0.00  0.00    +0.174 A 
ATOM     25  C   UNL     1      -3.201  -5.279   0.435  0.00  0.00    +0.053 A 
ATOM     26  C   UNL     1      -2.736  -6.584   0.214  0.00  0.00    +0.042 A 
ATOM     27  C   UNL     1      -1.666  -6.768   1.020  0.00  0.00    +0.196 A 
ATOM     28  O   UNL     1      -1.448  -5.647   1.720  0.00  0.00    -0.460 OA
ENDBRANCH  22  24
ENDBRANCH   2  22
TORSDOF 5
