REMARK  Name = ZINC01303916
REMARK  6 active torsions:
REMARK  status: ('A' for Active; 'I' for Inactive)
REMARK    1  A    between atoms: C_1  and  C_2
REMARK    2  A    between atoms: C_5  and  C_7
REMARK    3  A    between atoms: C_14  and  C_34
REMARK    4  A    between atoms: C_15  and  C_25
REMARK    5  A    between atoms: C_16  and  C_18
REMARK    6  A    between atoms: N_27  and  C_28
REMARK                            x       y       z     vdW  Elec       q    Type
REMARK                         _______ _______ _______ _____ _____    ______ ____
ROOT
ATOM      1  C   UNL     1      10.881   5.332  -0.138  0.00  0.00    +0.066 C 
ATOM      2  C   UNL     1       9.530   5.467  -0.271  0.00  0.00    +0.084 A 
ATOM      3  C   UNL     1       8.543   4.506  -0.772  0.00  0.00    +0.268 A 
ATOM      4  O   UNL     1       8.882   3.398  -1.147  0.00  0.00    -0.266 OA
ATOM      5  N   UNL     1       7.258   4.881  -0.804  0.00  0.00    -0.275 N 
ATOM      6  C   UNL     1       6.928   6.144  -0.369  0.00  0.00    +0.178 A 
ATOM      7  N   UNL     1       5.708   6.619  -0.355  0.00  0.00    -0.228 NA
ATOM      8  C   UNL     1       4.632   5.955  -0.760  0.00  0.00    +0.051 C 
ATOM      9  C   UNL     1       4.740   4.676  -1.226  0.00  0.00    +0.063 C 
ATOM     10  C   UNL     1       6.115   4.050  -1.276  0.00  0.00    +0.160 C 
ATOM     11  C   UNL     1       3.280   6.617  -0.699  0.00  0.00    +0.066 C 
ATOM     12  S   UNL     1       8.485   6.862   0.117  0.00  0.00    -0.046 S 
ENDROOT
BRANCH  10  13
ATOM     13  C   UNL     1       6.390   3.651  -2.703  0.00  0.00    -0.020 A 
ATOM     14  C   UNL     1       6.704   4.616  -3.642  0.00  0.00    +0.009 A 
ATOM     15  C   UNL     1       6.962   4.250  -4.950  0.00  0.00    +0.039 A 
ATOM     16  C   UNL     1       6.894   2.918  -5.322  0.00  0.00    +0.123 A 
ATOM     17  C   UNL     1       6.574   1.953  -4.382  0.00  0.00    +0.039 A 
ATOM     18  C   UNL     1       6.323   2.320  -3.073  0.00  0.00    +0.009 A 
ATOM     19  F   UNL     1       7.141   2.560  -6.601  0.00  0.00    -0.205 F 
ENDBRANCH  10  13
BRANCH   1  24
ATOM     20  C   UNL     1      11.428   0.484  -1.029  0.00  0.00    +0.086 C 
ATOM     21  C   UNL     1      11.749   1.928  -0.741  0.00  0.00    +0.103 A 
ATOM     22  C   UNL     1      12.991   2.439  -0.583  0.00  0.00    +0.045 A 
ATOM     23  C   UNL     1      12.845   3.812  -0.330  0.00  0.00    +0.049 A 
ATOM     24  C   UNL     1      11.489   4.073  -0.347  0.00  0.00    +0.129 A 
ATOM     25  O   UNL     1      10.849   2.911  -0.592  0.00  0.00    -0.461 OA
ENDBRANCH   1  24
BRANCH   9  26
ATOM     26  C   UNL     1       3.604   3.963  -1.652  0.00  0.00    +0.248 C 
ATOM     27  O   UNL     1       2.993   3.263  -0.864  0.00  0.00    -0.270 OA
ATOM     28  N   UNL     1       3.193   4.055  -2.933  0.00  0.00    -0.282 N 
ATOM     29  H   UNL     1       3.715   4.562  -3.575  0.00  0.00    +0.155 HD
BRANCH  28  30
ATOM     30  C   UNL     1       2.015   3.419  -3.335  0.00  0.00    +0.034 A 
ATOM     31  C   UNL     1       1.182   2.833  -2.391  0.00  0.00    +0.023 A 
ATOM     32  C   UNL     1       0.019   2.205  -2.792  0.00  0.00    +0.002 A 
ATOM     33  C   UNL     1      -0.317   2.160  -4.133  0.00  0.00    +0.000 A 
ATOM     34  C   UNL     1       0.510   2.743  -5.076  0.00  0.00    +0.002 A 
ATOM     35  C   UNL     1       1.674   3.372  -4.681  0.00  0.00    +0.023 A 
ENDBRANCH  28  30
ENDBRANCH   9  26
TORSDOF 4
