REMARK  Name = ZINC12468852
REMARK  6 active torsions:
REMARK  status: ('A' for Active; 'I' for Inactive)
REMARK    1  A    between atoms: C_1  and  O_2
REMARK    2  A    between atoms: O_2  and  C_3
REMARK    3  A    between atoms: C_6  and  C_9
REMARK    4  A    between atoms: C_12  and  C_32
REMARK    5  A    between atoms: C_17  and  C_19
REMARK    6  A    between atoms: N_21  and  C_22
REMARK                            x       y       z     vdW  Elec       q    Type
REMARK                         _______ _______ _______ _____ _____    ______ ____
ROOT
ATOM      1  C   UNL     1       2.498  -2.493  -4.355  0.00  0.00    +0.104 C 
ATOM      2  C   UNL     1       1.430  -2.954  -5.353  0.00  0.00    +0.063 C 
ATOM      3  C   UNL     1       0.435  -3.891  -4.658  0.00  0.00    +0.215 C 
ATOM      4  N   UNL     1       1.183  -4.926  -3.937  0.00  0.00    -0.238 N 
ATOM      5  C   UNL     1       2.500  -4.809  -3.594  0.00  0.00    +0.119 A 
ATOM      6  C   UNL     1       2.867  -5.934  -2.950  0.00  0.00    +0.078 A 
ATOM      7  C   UNL     1       1.736  -6.780  -2.890  0.00  0.00    +0.149 A 
ATOM      8  N   UNL     1       0.730  -6.165  -3.485  0.00  0.00    -0.164 NA
ATOM      9  N   UNL     1       3.260  -3.671  -3.898  0.00  0.00    -0.322 N 
ATOM     10  H   UNL     1       4.226  -3.658  -3.817  0.00  0.00    +0.148 HD
ENDROOT
BRANCH   1  14
ATOM     11  C   UNL     1       0.617  -0.614  -1.009  0.00  0.00    +0.120 A 
ATOM     12  C   UNL     1       1.179   0.159  -2.014  0.00  0.00    +0.046 A 
ATOM     13  C   UNL     1       1.787  -0.451  -3.095  0.00  0.00    +0.009 A 
ATOM     14  C   UNL     1       1.834  -1.830  -3.175  0.00  0.00    -0.027 A 
ATOM     15  C   UNL     1       1.274  -2.603  -2.175  0.00  0.00    +0.009 A 
ATOM     16  C   UNL     1       0.671  -1.998  -1.089  0.00  0.00    +0.046 A 
BRANCH  11  18
ATOM     17  C   UNL     1       0.001   1.412   0.071  0.00  0.00    +0.277 C 
ATOM     18  O   UNL     1       0.019  -0.017   0.055  0.00  0.00    -0.495 OA
ENDBRANCH  11  18
ENDBRANCH   1  14
BRANCH   7  19
ATOM     19  C   UNL     1       1.688  -8.120  -2.269  0.00  0.00    +0.268 C 
ATOM     20  O   UNL     1       2.684  -8.585  -1.749  0.00  0.00    -0.268 OA
ATOM     21  N   UNL     1       0.540  -8.826  -2.280  0.00  0.00    -0.280 N 
ATOM     22  H   UNL     1      -0.270  -8.429  -2.635  0.00  0.00    +0.155 HD
BRANCH  21  23
ATOM     23  C   UNL     1       0.519 -10.134  -1.779  0.00  0.00    +0.037 A 
ATOM     24  C   UNL     1      -0.290 -11.092  -2.375  0.00  0.00    +0.027 A 
ATOM     25  C   UNL     1      -0.313 -12.383  -1.882  0.00  0.00    +0.051 A 
ATOM     26  C   UNL     1       0.471 -12.724  -0.792  0.00  0.00    +0.166 A 
ATOM     27  C   UNL     1       1.284 -11.765  -0.193  0.00  0.00    +0.168 A 
ATOM     28  C   UNL     1       1.310 -10.473  -0.691  0.00  0.00    +0.072 A 
ATOM     29  O   UNL     1       1.949 -12.346   0.849  0.00  0.00    -0.453 OA
ATOM     30  C   UNL     1       1.230 -13.560   1.136  0.00  0.00    +0.466 C 
ATOM     31  O   UNL     1       0.627 -13.906  -0.125  0.00  0.00    -0.453 OA
ENDBRANCH  21  23
ENDBRANCH   7  19
BRANCH   3  32
ATOM     32  C   UNL     1      -0.471  -4.544  -5.703  0.00  0.00    +0.412 C 
ATOM     33  F   UNL     1       0.309  -5.279  -6.603  0.00  0.00    -0.168 F 
ATOM     34  F   UNL     1      -1.377  -5.398  -5.066  0.00  0.00    -0.168 F 
ATOM     35  F   UNL     1      -1.173  -3.552  -6.396  0.00  0.00    -0.168 F 
ENDBRANCH   3  32
TORSDOF 5
