REMARK  Name = ZINC00950329
REMARK  5 active torsions:
REMARK  status: ('A' for Active; 'I' for Inactive)
REMARK    1  A    between atoms: C_1  and  C_2
REMARK    2  A    between atoms: C_5  and  O_22
REMARK    3  A    between atoms: C_6  and  C_8
REMARK    4  A    between atoms: C_11  and  C_14
REMARK    5  A    between atoms: C_19  and  O_20
REMARK                            x       y       z     vdW  Elec       q    Type
REMARK                         _______ _______ _______ _____ _____    ______ ____
ROOT
ATOM      1  C   UNL     1       0.051  -2.841   2.458  0.00  0.00    +0.072 C 
ATOM      2  N   UNL     1       0.073  -4.124   2.565  0.00  0.00    -0.190 NA
ATOM      3  N   UNL     1       0.084  -4.586   3.880  0.00  0.00    -0.261 N 
ATOM      4  C   UNL     1       0.065  -3.430   4.790  0.00  0.00    +0.128 C 
ATOM      5  C   UNL     1       0.049  -2.219   3.836  0.00  0.00    +0.086 C 
ATOM      6  H   UNL     1       0.100  -5.517   4.151  0.00  0.00    +0.169 HD
ENDROOT
BRANCH   1  12
ATOM      7  C   UNL     1      -0.018   1.503   0.010  0.00  0.00    +0.044 C 
ATOM      8  C   UNL     1       0.002  -0.004   0.002  0.00  0.00    -0.050 A 
ATOM      9  C   UNL     1       0.006  -0.687  -1.202  0.00  0.00    +0.007 A 
ATOM     10  C   UNL     1       0.024  -2.069  -1.222  0.00  0.00    +0.046 A 
ATOM     11  C   UNL     1       0.039  -2.780  -0.034  0.00  0.00    +0.126 A 
ATOM     12  C   UNL     1       0.036  -2.094   1.187  0.00  0.00    +0.039 A 
ATOM     13  C   UNL     1       0.023  -0.697   1.194  0.00  0.00    +0.016 A 
BRANCH  11  14
ATOM     14  O   UNL     1       0.057  -4.139  -0.052  0.00  0.00    -0.506 OA
ATOM     15  H   UNL     1       0.945  -4.520  -0.062  0.00  0.00    +0.292 HD
ENDBRANCH  11  14
ENDBRANCH   1  12
BRANCH   4  16
ATOM     16  C   UNL     1       1.304  -3.410   5.648  0.00  0.00    +0.017 A 
ATOM     17  C   UNL     1       2.452  -4.048   5.219  0.00  0.00    +0.024 A 
ATOM     18  C   UNL     1       3.589  -4.030   6.006  0.00  0.00    +0.018 A 
ATOM     19  C   UNL     1       3.580  -3.374   7.224  0.00  0.00    +0.019 A 
ATOM     20  C   UNL     1       2.434  -2.734   7.657  0.00  0.00    +0.047 A 
ATOM     21  C   UNL     1       1.294  -2.747   6.866  0.00  0.00    +0.122 A 
ATOM     22 BR   UNL     1       5.159  -4.904   5.417  0.00  0.00    -0.050 Br
BRANCH  21  23
ATOM     23  O   UNL     1       0.167  -2.114   7.288  0.00  0.00    -0.506 OA
ATOM     24  H   UNL     1      -0.425  -2.672   7.811  0.00  0.00    +0.292 HD
ENDBRANCH  21  23
ENDBRANCH   4  16
TORSDOF 4
