REMARK  Name = ZINC50377612
REMARK  7 active torsions:
REMARK  status: ('A' for Active; 'I' for Inactive)
REMARK    1  A    between atoms: C_1  and  C_2
REMARK    2  A    between atoms: C_2  and  C_3
REMARK    3  A    between atoms: C_2  and  C_11
REMARK    4  A    between atoms: C_2  and  N_14
REMARK    5  A    between atoms: N_14  and  C_15
REMARK    6  A    between atoms: C_20  and  O_22
REMARK    7  A    between atoms: O_22  and  C_23
REMARK                            x       y       z     vdW  Elec       q    Type
REMARK                         _______ _______ _______ _____ _____    ______ ____
ROOT
ATOM      1  C   UNL     1       0.410  -0.586  -1.553  0.00  0.00    +0.007 C 
ATOM      2  C   UNL     1       0.065  -0.168  -0.122  0.00  0.00    +0.060 C 
ENDROOT
BRANCH   2   3
ATOM      3  C   UNL     1       0.537   1.243   0.117  0.00  0.00    -0.029 A 
ATOM      4  C   UNL     1       1.079   1.975  -0.923  0.00  0.00    +0.005 A 
ATOM      5  C   UNL     1       1.513   3.269  -0.704  0.00  0.00    +0.020 A 
ATOM      6  C   UNL     1       1.404   3.833   0.555  0.00  0.00    +0.042 A 
ATOM      7  C   UNL     1       0.861   3.100   1.595  0.00  0.00    +0.040 A 
ATOM      8  C   UNL     1       0.423   1.807   1.375  0.00  0.00    +0.045 A 
ATOM      9 CL   UNL     1      -0.265   0.889   2.678  0.00  0.00    -0.083 Cl
ATOM     10 CL   UNL     1       1.949   5.458   0.829  0.00  0.00    -0.083 Cl
ENDBRANCH   2   3
BRANCH   2  11
ATOM     11  C   UNL     1       0.744  -1.097   0.851  0.00  0.00    +0.349 C 
ATOM     12  O   UNL     1       1.961  -1.115   0.928  0.00  0.00    -0.248 OA
ATOM     13  O   UNL     1       0.078  -1.831   1.560  0.00  0.00    -0.248 OA
ENDBRANCH   2  11
BRANCH   2  14
ATOM     14  N   UNL     1      -1.390  -0.236   0.071  0.00  0.00    +0.396 N 
ATOM     15  H   UNL     1      -1.691  -1.198   0.023  0.00  0.00    -0.083 HD
ATOM     16  H   UNL     1      -1.628   0.146   0.974  0.00  0.00    -0.083 HD
BRANCH  14  17
ATOM     17  C   UNL     1      -2.061   0.539  -0.982  0.00  0.00    -0.041 C 
ATOM     18  C   UNL     1      -1.827   2.047  -0.756  0.00  0.00    -0.013 C 
ATOM     19  C   UNL     1      -3.167   2.705  -1.171  0.00  0.00    +0.001 C 
ATOM     20  C   UNL     1      -4.219   1.694  -0.650  0.00  0.00    +0.030 C 
ATOM     21  C   UNL     1      -3.581   0.313  -0.915  0.00  0.00    +0.104 C 
BRANCH  21  22
ATOM     22  O   UNL     1      -3.897  -0.584   0.151  0.00  0.00    -0.381 OA
ATOM     23  C   UNL     1      -5.066  -1.373  -0.080  0.00  0.00    +0.194 C 
ENDBRANCH  21  22
ENDBRANCH  14  17
ENDBRANCH   2  14
TORSDOF 5
