REMARK  Name = ZINC40756101
REMARK  7 active torsions:
REMARK  status: ('A' for Active; 'I' for Inactive)
REMARK    1  A    between atoms: C_7  and  O_11
REMARK    2  A    between atoms: O_11  and  C_12
REMARK    3  A    between atoms: C_13  and  N_27
REMARK    4  A    between atoms: C_14  and  N_18
REMARK    5  A    between atoms: N_18  and  C_19
REMARK    6  A    between atoms: C_19  and  C_20
REMARK    7  A    between atoms: C_20  and  C_21
REMARK                            x       y       z     vdW  Elec       q    Type
REMARK                         _______ _______ _______ _____ _____    ______ ____
ROOT
ATOM      1  C   UNL     1       4.672  -2.804  -0.162  0.00  0.00    +0.246 A 
ATOM      2  C   UNL     1       4.699  -4.192  -0.286  0.00  0.00    +0.128 A 
ATOM      3  C   UNL     1       5.941  -4.820  -0.406  0.00  0.00    +0.147 A 
ATOM      4  N   UNL     1       7.043  -4.074  -0.398  0.00  0.00    -0.219 NA
ATOM      5  C   UNL     1       6.972  -2.763  -0.278  0.00  0.00    +0.227 A 
ATOM      6  N   UNL     1       5.820  -2.133  -0.168  0.00  0.00    -0.199 NA
ENDROOT
BRANCH   2   7
ATOM      7  N   UNL     1       3.510  -4.939  -0.290  0.00  0.00    -0.351 N 
ATOM      8  H   UNL     1       2.655  -4.490  -0.206  0.00  0.00    +0.143 HD
ATOM      9  H   UNL     1       3.545  -5.904  -0.377  0.00  0.00    +0.143 HD
ENDBRANCH   2   7
BRANCH   3  10
ATOM     10  N   UNL     1       6.025  -6.201  -0.532  0.00  0.00    -0.327 N 
ATOM     11  H   UNL     1       5.217  -6.737  -0.537  0.00  0.00    +0.148 HD
BRANCH  10  12
ATOM     12  C   UNL     1       7.334  -6.847  -0.657  0.00  0.00    +0.107 C 
BRANCH  12  13
ATOM     13  C   UNL     1       7.146  -8.360  -0.780  0.00  0.00    +0.049 C 
BRANCH  13  14
ATOM     14  C   UNL     1       8.493  -9.025  -0.908  0.00  0.00    -0.072 C 
ATOM     15  C   UNL     1       9.047  -9.486   0.167  0.00  0.00    -0.028 C 
ATOM     16  C   UNL     1      10.387 -10.161   0.199  0.00  0.00    +0.027 C 
ATOM     17  C   UNL     1      10.789 -10.601  -1.211  0.00  0.00    +0.004 C 
ATOM     18  C   UNL     1      10.603  -9.412  -2.162  0.00  0.00    +0.005 C 
ATOM     19  C   UNL     1       9.104  -9.116  -2.276  0.00  0.00    +0.030 C 
ENDBRANCH  13  14
ENDBRANCH  12  13
ENDBRANCH  10  12
ENDBRANCH   3  10
BRANCH   1  20
ATOM     20  O   UNL     1       3.491  -2.146  -0.043  0.00  0.00    -0.434 OA
BRANCH  20  27
ATOM     21  C   UNL     1       3.581   1.484  -3.451  0.00  0.00    +0.020 A 
ATOM     22  C   UNL     1       3.592   2.149  -2.257  0.00  0.00    +0.013 A 
ATOM     23  C   UNL     1       3.572   1.388  -1.074  0.00  0.00    +0.018 A 
ATOM     24  C   UNL     1       3.581   2.001   0.191  0.00  0.00    +0.027 A 
ATOM     25  C   UNL     1       3.560   1.231   1.315  0.00  0.00    +0.019 A 
ATOM     26  C   UNL     1       3.530  -0.158   1.230  0.00  0.00    +0.049 A 
ATOM     27  C   UNL     1       3.520  -0.789   0.019  0.00  0.00    +0.156 A 
ATOM     28  C   UNL     1       3.541  -0.025  -1.167  0.00  0.00    +0.114 A 
ATOM     29  N   UNL     1       3.531  -0.613  -2.366  0.00  0.00    -0.251 NA
ATOM     30  C   UNL     1       3.550   0.092  -3.471  0.00  0.00    +0.111 A 
ATOM     31 BR   UNL     1       3.623   3.886   0.331  0.00  0.00    -0.050 Br
ENDBRANCH  20  27
ENDBRANCH   1  20
TORSDOF 7
