REMARK  Name = ZINC19778832
REMARK  10 active torsions:
REMARK  status: ('A' for Active; 'I' for Inactive)
REMARK    1  A    between atoms: C_1  and  C_2
REMARK    2  A    between atoms: C_4  and  C_25
REMARK    3  A    between atoms: C_6  and  O_8
REMARK    4  A    between atoms: O_8  and  C_9
REMARK    5  A    between atoms: C_9  and  C_10
REMARK    6  A    between atoms: C_10  and  O_11
REMARK    7  A    between atoms: O_11  and  C_12
REMARK    8  A    between atoms: C_21  and  C_22
REMARK    9  A    between atoms: C_22  and  N_23
REMARK   10  A    between atoms: N_23  and  C_24
REMARK                            x       y       z     vdW  Elec       q    Type
REMARK                         _______ _______ _______ _____ _____    ______ ____
ROOT
ATOM      1  C   UNL     1       1.067   5.942   0.023  0.00  0.00    +0.123 A 
ATOM      2  C   UNL     1       2.292   5.268   0.007  0.00  0.00    +0.046 A 
ATOM      3  C   UNL     1       2.342   3.909   0.000  0.00  0.00    +0.012 A 
ATOM      4  C   UNL     1       1.148   3.167   0.008  0.00  0.00    -0.017 A 
ATOM      5  C   UNL     1       1.163   1.762   0.000  0.00  0.00    +0.008 A 
ATOM      6  C   UNL     1      -0.013   1.076   0.008  0.00  0.00    +0.001 A 
ATOM      7  C   UNL     1      -1.235   1.746   0.018  0.00  0.00    +0.001 A 
ATOM      8  C   UNL     1      -1.288   3.105   0.031  0.00  0.00    +0.009 A 
ATOM      9  C   UNL     1      -0.095   3.849   0.024  0.00  0.00    -0.013 A 
ATOM     10  C   UNL     1      -0.112   5.253   0.031  0.00  0.00    -0.015 A 
ENDROOT
BRANCH   1  11
ATOM     11  O   UNL     1       1.050   7.301   0.029  0.00  0.00    -0.488 OA
BRANCH  11  12
ATOM     12  C   UNL     1       2.315   7.966   0.020  0.00  0.00    +0.270 C 
BRANCH  12  13
ATOM     13  C   UNL     1       2.095   9.480   0.029  0.00  0.00    +0.270 C 
BRANCH  13  14
ATOM     14  O   UNL     1       1.475   9.864   1.258  0.00  0.00    -0.489 OA
BRANCH  14  20
ATOM     15  C   UNL     1       1.620  14.425  -0.473  0.00  0.00    +0.044 C 
ATOM     16  C   UNL     1       1.264  13.437   0.608  0.00  0.00    -0.047 A 
ATOM     17  C   UNL     1       0.665  13.876   1.775  0.00  0.00    +0.007 A 
ATOM     18  C   UNL     1       0.337  12.972   2.768  0.00  0.00    -0.047 A 
ATOM     19  C   UNL     1       0.607  11.628   2.598  0.00  0.00    +0.049 A 
ATOM     20  C   UNL     1       1.208  11.185   1.428  0.00  0.00    +0.121 A 
ATOM     21  C   UNL     1       1.542  12.095   0.435  0.00  0.00    +0.049 A 
ATOM     22  C   UNL     1      -0.317  13.454   4.038  0.00  0.00    +0.044 C 
ENDBRANCH  14  20
ENDBRANCH  13  14
ENDBRANCH  12  13
ENDBRANCH  11  12
ENDBRANCH   1  11
BRANCH  10  23
ATOM     23  C   UNL     1      -1.423   5.995   0.047  0.00  0.00    -0.043 C 
BRANCH  23  24
ATOM     24  N   UNL     1      -1.836   6.229   1.437  0.00  0.00    +0.380 N 
ATOM     25  C   UNL     1      -3.114   6.952   1.492  0.00  0.00    -0.100 C 
ATOM     26  H   UNL     1      -1.955   5.264   1.952  0.00  0.00    -0.086 HD
ATOM     27  H   UNL     1      -1.070   6.828   1.951  0.00  0.00    -0.086 HD
ENDBRANCH  23  24
ENDBRANCH  10  23
TORSDOF 7
