REMARK  Name = ZINC28996963
REMARK  15 active torsions:
REMARK  status: ('A' for Active; 'I' for Inactive)
REMARK    1  A    between atoms: C_1  and  C_2
REMARK    2  A    between atoms: C_4  and  C_29
REMARK    3  A    between atoms: C_8  and  N_28
REMARK    4  A    between atoms: C_9  and  C_11
REMARK    5  A    between atoms: C_11  and  O_13
REMARK    6  A    between atoms: O_13  and  C_14
REMARK    7  A    between atoms: C_14  and  C_15
REMARK    8  A    between atoms: N_17  and  C_18
REMARK    9  A    between atoms: C_18  and  C_20
REMARK   10  A    between atoms: C_18  and  C_24
REMARK   11  A    between atoms: C_20  and  C_21
REMARK   12  A    between atoms: C_21  and  C_22
REMARK   13  A    between atoms: C_21  and  C_23
REMARK   14  A    between atoms: C_24  and  O_26
REMARK   15  A    between atoms: O_26  and  C_27
REMARK                            x       y       z     vdW  Elec       q    Type
REMARK                         _______ _______ _______ _____ _____    ______ ____
ROOT
ATOM      1  C   UNL     1      -1.191   4.950   0.335  0.00  0.00    +0.348 C 
ATOM      2  O   UNL     1      -2.345   4.574   0.419  0.00  0.00    -0.244 OA
ENDROOT
BRANCH   1  11
ATOM      3  C   UNL     1      -0.003  -0.431   0.837  0.00  0.00    +0.044 C 
ATOM      4  C   UNL     1       1.193   0.476   0.696  0.00  0.00    -0.037 A 
ATOM      5  C   UNL     1       2.466  -0.042   0.698  0.00  0.00    +0.025 A 
ATOM      6  C   UNL     1       3.565   0.794   0.569  0.00  0.00    +0.014 A 
ATOM      7  N   UNL     1       3.401   2.097   0.443  0.00  0.00    -0.353 N 
ATOM      8  C   UNL     1       2.204   2.641   0.436  0.00  0.00    +0.088 A 
ATOM      9  C   UNL     1       1.021   1.876   0.561  0.00  0.00    +0.030 A 
ATOM     10  C   UNL     1      -0.216   2.640   0.527  0.00  0.00    +0.055 A 
ATOM     11  C   UNL     1      -0.135   4.010   0.389  0.00  0.00    +0.119 A 
ATOM     12  S   UNL     1       1.619   4.311   0.289  0.00  0.00    -0.062 S 
ATOM     13  C   UNL     1       4.954   0.211   0.572  0.00  0.00    +0.063 C 
ATOM     14  H   UNL     1       4.278   2.754   0.341  0.00  0.00    +0.166 HD
BRANCH  10  15
ATOM     15  N   UNL     1      -1.446   2.008   0.633  0.00  0.00    -0.356 N 
ATOM     16  H   UNL     1      -2.373   2.600   0.606  0.00  0.00    +0.142 HD
ATOM     17  H   UNL     1      -1.494   0.915   0.746  0.00  0.00    +0.142 HD
ENDBRANCH  10  15
ENDBRANCH   1  11
BRANCH   1  18
ATOM     18  O   UNL     1      -0.918   6.264   0.190  0.00  0.00    -0.451 OA
BRANCH  18  19
ATOM     19  C   UNL     1      -2.033   7.157   0.143  0.00  0.00    +0.328 C 
BRANCH  19  20
ATOM     20  C   UNL     1      -1.537   8.571  -0.021  0.00  0.00    +0.251 C 
ATOM     21  O   UNL     1      -0.347   8.792  -0.090  0.00  0.00    -0.272 OA
ATOM     22  N   UNL     1      -2.417   9.589  -0.090  0.00  0.00    -0.300 N 
ATOM     23  H   UNL     1      -3.497   9.388  -0.027  0.00  0.00    +0.150 HD
BRANCH  22  24
ATOM     24  C   UNL     1      -1.935  10.964  -0.249  0.00  0.00    +0.182 C 
BRANCH  24  25
ATOM     25  C   UNL     1      -1.709  11.250  -1.711  0.00  0.00    +0.327 C 
ATOM     26  O   UNL     1      -1.927  10.395  -2.535  0.00  0.00    -0.249 OA
BRANCH  25  27
ATOM     27  O   UNL     1      -1.264  12.457  -2.097  0.00  0.00    -0.467 OA
ATOM     28  C   UNL     1      -1.069  12.662  -3.521  0.00  0.00    +0.280 C 
ENDBRANCH  25  27
ENDBRANCH  24  25
BRANCH  24  29
ATOM     29  C   UNL     1      -2.978  11.937   0.306  0.00  0.00    +0.036 C 
BRANCH  29  30
ATOM     30  C   UNL     1      -3.134  11.712   1.812  0.00  0.00    -0.015 C 
ATOM     31  C   UNL     1      -1.833  12.091   2.522  0.00  0.00    +0.007 C 
ATOM     32  C   UNL     1      -4.276  12.582   2.341  0.00  0.00    +0.007 C 
ENDBRANCH  29  30
ENDBRANCH  24  29
ENDBRANCH  22  24
ENDBRANCH  19  20
ENDBRANCH  18  19
ENDBRANCH   1  18
TORSDOF 10
