REMARK  Name = ZINC51606821
REMARK  10 active torsions:
REMARK  status: ('A' for Active; 'I' for Inactive)
REMARK    1  A    between atoms: C_1  and  C_2
REMARK    2  A    between atoms: C_2  and  C_3
REMARK    3  A    between atoms: C_3  and  C_5
REMARK    4  A    between atoms: C_3  and  N_22
REMARK    5  A    between atoms: C_5  and  C_7
REMARK    6  A    between atoms: C_5  and  S_13
REMARK    7  A    between atoms: N_10  and  C_12
REMARK    8  A    between atoms: S_13  and  C_14
REMARK    9  A    between atoms: C_16  and  C_21
REMARK   10  A    between atoms: C_18  and  C_20
REMARK                            x       y       z     vdW  Elec       q    Type
REMARK                         _______ _______ _______ _____ _____    ______ ____
ROOT
ATOM      1  C   UNL     1       0.759  -2.077  -1.585  0.00  0.00    +0.073 C 
ENDROOT
BRANCH   1   2
ATOM      2  C   UNL     1       1.346  -2.610  -2.868  0.00  0.00    +0.002 A 
ATOM      3  C   UNL     1       0.865  -2.363  -4.157  0.00  0.00    +0.139 A 
ATOM      4  N   UNL     1       1.634  -2.993  -5.008  0.00  0.00    -0.180 NA
ATOM      5  N   UNL     1       2.630  -3.661  -4.285  0.00  0.00    -0.274 N 
ATOM      6  C   UNL     1       2.435  -3.406  -2.975  0.00  0.00    +0.112 A 
ATOM      7  C   UNL     1       3.699  -4.487  -4.852  0.00  0.00    +0.172 C 
ENDBRANCH   1   2
BRANCH   1   8
ATOM      8  C   UNL     1       0.777  -0.548  -1.613  0.00  0.00    -0.057 C 
BRANCH   8   9
ATOM      9  N   UNL     1       2.159  -0.077  -1.783  0.00  0.00    +0.381 N 
ATOM     10  H   UNL     1       2.723  -0.407  -1.014  0.00  0.00    -0.090 HD
ATOM     11  H   UNL     1       2.531  -0.433  -2.650  0.00  0.00    -0.090 HD
ATOM     12  H   UNL     1       2.171   0.931  -1.801  0.00  0.00    -0.090 HD
ENDBRANCH   8   9
BRANCH   8  14
ATOM     13  C   UNL     1       0.095   1.516  -0.380  0.00  0.00    +0.002 C 
ATOM     14  C   UNL     1       0.213  -0.008  -0.297  0.00  0.00    -0.018 C 
ENDBRANCH   8  14
ENDBRANCH   1   8
BRANCH   1  15
ATOM     15  S   UNL     1      -0.951  -2.659  -1.415  0.00  0.00    -0.079 S 
BRANCH  15  16
ATOM     16  C   UNL     1      -0.786  -4.389  -1.128  0.00  0.00    +0.189 A 
ATOM     17  N   UNL     1       0.425  -4.908  -0.976  0.00  0.00    -0.227 NA
ATOM     18  C   UNL     1       0.584  -6.203  -0.758  0.00  0.00    +0.043 A 
ATOM     19  C   UNL     1      -0.535  -7.019  -0.689  0.00  0.00    +0.046 A 
ATOM     20  C   UNL     1      -1.786  -6.444  -0.852  0.00  0.00    +0.043 A 
ATOM     21  N   UNL     1      -1.875  -5.141  -1.062  0.00  0.00    -0.227 NA
ATOM     22  C   UNL     1      -3.029  -7.293  -0.785  0.00  0.00    +0.066 C 
ATOM     23  C   UNL     1       1.963  -6.784  -0.588  0.00  0.00    +0.066 C 
ENDBRANCH  15  16
ENDBRANCH   1  15
TORSDOF 6
