REMARK  Name = ZINC02544210
REMARK  8 active torsions:
REMARK  status: ('A' for Active; 'I' for Inactive)
REMARK    1  A    between atoms: C_1  and  C_2
REMARK    2  A    between atoms: C_2  and  C_10
REMARK    3  A    between atoms: C_3  and  C_4
REMARK    4  A    between atoms: N_11  and  N_12
REMARK    5  A    between atoms: C_13  and  C_15
REMARK    6  A    between atoms: C_20  and  N_21
REMARK    7  A    between atoms: N_21  and  S_22
REMARK    8  A    between atoms: S_22  and  C_25
REMARK                            x       y       z     vdW  Elec       q    Type
REMARK                         _______ _______ _______ _____ _____    ______ ____
ROOT
ATOM      1  C   UNL     1       0.083   8.207  -0.184  0.00  0.00    +0.061 A 
ATOM      2  C   UNL     1      -1.028   7.455   0.207  0.00  0.00    +0.015 A 
ATOM      3  C   UNL     1      -2.264   8.056   0.308  0.00  0.00    +0.001 A 
ATOM      4  C   UNL     1      -2.414   9.402   0.013  0.00  0.00    +0.002 A 
ATOM      5  C   UNL     1      -1.328  10.156  -0.379  0.00  0.00    +0.025 A 
ATOM      6  C   UNL     1      -0.072   9.569  -0.482  0.00  0.00    +0.060 A 
ENDROOT
BRANCH   1   8
ATOM      7  N   UNL     1       1.553   6.262  -0.001  0.00  0.00    -0.203 N 
ATOM      8  C   UNL     1       1.409   7.571  -0.288  0.00  0.00    +0.265 C 
ATOM      9  O   UNL     1       2.373   8.228  -0.633  0.00  0.00    -0.268 OA
ATOM     10  H   UNL     1       0.785   5.738   0.274  0.00  0.00    +0.178 HD
BRANCH   7  12
ATOM     11  C   UNL     1       2.953   4.393   0.177  0.00  0.00    +0.133 C 
ATOM     12  N   UNL     1       2.813   5.658  -0.101  0.00  0.00    -0.188 NA
BRANCH  11  14
ATOM     13  C   UNL     1       5.433   4.609  -0.294  0.00  0.00    +0.045 C 
ATOM     14  C   UNL     1       4.228   3.782   0.076  0.00  0.00    -0.030 C 
ATOM     15  C   UNL     1       4.364   2.461   0.312  0.00  0.00    +0.012 C 
BRANCH  15  16
ATOM     16  C   UNL     1       3.169   1.619   0.490  0.00  0.00    -0.025 A 
ATOM     17  C   UNL     1       3.194   0.545   1.385  0.00  0.00    +0.008 A 
ATOM     18  C   UNL     1       2.071  -0.239   1.547  0.00  0.00    +0.001 A 
ATOM     19  C   UNL     1       0.922   0.035   0.825  0.00  0.00    +0.000 A 
ATOM     20  C   UNL     1       0.890   1.096  -0.063  0.00  0.00    +0.001 A 
ATOM     21  C   UNL     1       2.005   1.889  -0.235  0.00  0.00    +0.008 A 
ENDBRANCH  15  16
ENDBRANCH  11  14
ENDBRANCH   7  12
ENDBRANCH   1   8
BRANCH   6  22
ATOM     22  N   UNL     1       1.022  10.327  -0.877  0.00  0.00    -0.216 N 
ATOM     23  H   UNL     1       1.710   9.931  -1.435  0.00  0.00    +0.174 HD
BRANCH  22  24
ATOM     24  S   UNL     1       1.154  11.906  -0.396  0.00  0.00    +0.072 S 
ATOM     25  O   UNL     1       2.427  12.360  -0.834  0.00  0.00    -0.150 OA
ATOM     26  O   UNL     1      -0.056  12.549  -0.777  0.00  0.00    -0.150 OA
BRANCH  24  27
ATOM     27  C   UNL     1       1.195  11.913   1.365  0.00  0.00    +0.109 A 
ATOM     28  C   UNL     1       0.018  12.012   2.083  0.00  0.00    +0.030 A 
ATOM     29  C   UNL     1       0.049  12.012   3.465  0.00  0.00    +0.022 A 
ATOM     30  C   UNL     1       1.260  11.923   4.130  0.00  0.00    +0.041 A 
ATOM     31  C   UNL     1       2.438  11.830   3.410  0.00  0.00    +0.022 A 
ATOM     32  C   UNL     1       2.405  11.825   2.028  0.00  0.00    +0.030 A 
ATOM     33 CL   UNL     1       1.300  11.929   5.865  0.00  0.00    -0.084 Cl
ENDBRANCH  24  27
ENDBRANCH  22  24
ENDBRANCH   6  22
TORSDOF 7
