REMARK  Name = ZINC45995360
REMARK  10 active torsions:
REMARK  status: ('A' for Active; 'I' for Inactive)
REMARK    1  A    between atoms: C_1  and  C_2
REMARK    2  A    between atoms: C_5  and  C_28
REMARK    3  A    between atoms: C_6  and  C_8
REMARK    4  A    between atoms: C_10  and  C_14
REMARK    5  A    between atoms: C_11  and  C_13
REMARK    6  A    between atoms: C_14  and  O_15
REMARK    7  A    between atoms: O_15  and  C_16
REMARK    8  A    between atoms: C_18  and  C_27
REMARK    9  A    between atoms: C_20  and  C_26
REMARK   10  A    between atoms: N_22  and  C_25
REMARK                            x       y       z     vdW  Elec       q    Type
REMARK                         _______ _______ _______ _____ _____    ______ ____
ROOT
ATOM      1  C   UNL     1       0.214  -3.029   2.492  0.00  0.00    +0.228 A 
ATOM      2  N   UNL     1       0.091  -2.631   3.737  0.00  0.00    -0.210 NA
ATOM      3  C   UNL     1       0.017  -3.712   4.528  0.00  0.00    +0.120 A 
ATOM      4  C   UNL     1       0.097  -4.802   3.744  0.00  0.00    +0.129 A 
ATOM      5  O   UNL     1       0.214  -4.373   2.472  0.00  0.00    -0.440 OA
ATOM      6  C   UNL     1       0.057  -6.237   4.203  0.00  0.00    +0.088 C 
ENDROOT
BRANCH   1  12
ATOM      7  C   UNL     1       2.252   0.928   0.236  0.00  0.00    +0.044 C 
ATOM      8  C   UNL     1       1.304  -0.244   0.221  0.00  0.00    -0.050 A 
ATOM      9  C   UNL     1       0.537  -0.497  -0.902  0.00  0.00    +0.003 A 
ATOM     10  C   UNL     1      -0.335  -1.570  -0.925  0.00  0.00    +0.004 A 
ATOM     11  C   UNL     1      -0.445  -2.397   0.175  0.00  0.00    -0.038 A 
ATOM     12  C   UNL     1       0.326  -2.148   1.311  0.00  0.00    +0.040 A 
ATOM     13  C   UNL     1       1.208  -1.066   1.325  0.00  0.00    +0.016 A 
ATOM     14  C   UNL     1      -1.396  -3.566   0.149  0.00  0.00    +0.044 C 
ENDBRANCH   1  12
BRANCH   3  15
ATOM     15  C   UNL     1      -0.128  -3.705   6.028  0.00  0.00    +0.289 C 
BRANCH  15  16
ATOM     16  O   UNL     1      -1.515  -3.707   6.372  0.00  0.00    -0.470 OA
BRANCH  16  17
ATOM     17  C   UNL     1      -1.821  -3.702   7.693  0.00  0.00    +0.217 A 
ATOM     18  C   UNL     1      -3.161  -3.709   8.083  0.00  0.00    +0.071 A 
ATOM     19  C   UNL     1      -3.478  -3.704   9.413  0.00  0.00    -0.033 A 
ATOM     20  C   UNL     1      -2.430  -3.692  10.344  0.00  0.00    +0.045 A 
ATOM     21  C   UNL     1      -2.366  -3.683  11.802  0.00  0.00    +0.069 A 
ATOM     22  N   UNL     1      -1.109  -3.672  12.142  0.00  0.00    -0.174 NA
ATOM     23  N   UNL     1      -0.303  -3.673  10.999  0.00  0.00    -0.249 N 
ATOM     24  C   UNL     1      -1.099  -3.685   9.886  0.00  0.00    +0.162 A 
ATOM     25  N   UNL     1      -0.847  -3.696   8.582  0.00  0.00    -0.193 NA
ATOM     26  C   UNL     1       1.162  -3.662  10.994  0.00  0.00    +0.174 C 
ATOM     27  C   UNL     1      -3.542  -3.686  12.744  0.00  0.00    +0.068 C 
ATOM     28  C   UNL     1      -4.915  -3.711   9.866  0.00  0.00    +0.045 C 
ENDBRANCH  16  17
ENDBRANCH  15  16
ENDBRANCH   3  15
TORSDOF 4
