REMARK  Name = ZINC39636098
REMARK  6 active torsions:
REMARK  status: ('A' for Active; 'I' for Inactive)
REMARK    1  A    between atoms: C_1  and  C_2
REMARK    2  A    between atoms: C_5  and  C_9
REMARK    3  A    between atoms: C_6  and  C_8
REMARK    4  A    between atoms: C_13  and  C_22
REMARK    5  A    between atoms: N_24  and  C_25
REMARK    6  A    between atoms: C_31  and  C_33
REMARK                            x       y       z     vdW  Elec       q    Type
REMARK                         _______ _______ _______ _____ _____    ______ ____
ROOT
ATOM      1  C   UNL     1       0.057  -4.382   0.043  0.00  0.00    +0.247 C 
ATOM      2  O   UNL     1       0.219  -4.951   1.104  0.00  0.00    -0.270 OA
ATOM      3  N   UNL     1      -0.077  -5.097  -1.092  0.00  0.00    -0.296 N 
ATOM      4  C   UNL     1      -0.180  -4.588  -2.480  0.00  0.00    +0.121 C 
ATOM      5  C   UNL     1       0.652  -5.582  -3.322  0.00  0.00    +0.100 C 
ATOM      6  C   UNL     1       0.662  -6.881  -2.500  0.00  0.00    -0.004 C 
ATOM      7  C   UNL     1      -0.150  -6.572  -1.233  0.00  0.00    +0.115 C 
ATOM      8  C   UNL     1       0.004  -8.010  -3.287  0.00  0.00    -0.010 C 
ATOM      9  C   UNL     1       0.079  -9.305  -2.473  0.00  0.00    -0.082 C 
ATOM     10  N   UNL     1       1.483  -9.630  -2.193  0.00  0.00    +0.379 N 
ATOM     11  C   UNL     1       2.082  -8.582  -1.357  0.00  0.00    -0.082 C 
ATOM     12  C   UNL     1       2.092  -7.257  -2.124  0.00  0.00    -0.010 C 
ATOM     13  H   UNL     1       1.532 -10.514  -1.710  0.00  0.00    -0.086 HD
ATOM     14  H   UNL     1       1.991  -9.696  -3.062  0.00  0.00    -0.086 HD
ENDROOT
BRANCH   1  19
ATOM     15  C   UNL     1      -0.138   1.366  -0.142  0.00  0.00    +0.044 C 
ATOM     16  C   UNL     1      -0.087  -0.139  -0.093  0.00  0.00    -0.050 A 
ATOM     17  C   UNL     1       0.767  -0.827  -0.938  0.00  0.00    +0.004 A 
ATOM     18  C   UNL     1       0.819  -2.205  -0.898  0.00  0.00    +0.013 A 
ATOM     19  C   UNL     1       0.007  -2.905  -0.005  0.00  0.00    +0.040 A 
ATOM     20  C   UNL     1      -0.852  -2.206   0.844  0.00  0.00    -0.038 A 
ATOM     21  C   UNL     1      -0.890  -0.827   0.798  0.00  0.00    +0.007 A 
ATOM     22  C   UNL     1      -1.732  -2.954   1.812  0.00  0.00    +0.044 C 
ENDBRANCH   1  19
BRANCH   5  23
ATOM     23  C   UNL     1      -0.002  -5.810  -4.661  0.00  0.00    +0.218 C 
ATOM     24  O   UNL     1      -1.211  -5.797  -4.755  0.00  0.00    -0.275 OA
ATOM     25  N   UNL     1       0.757  -6.029  -5.753  0.00  0.00    -0.312 N 
ATOM     26  H   UNL     1       1.724  -6.039  -5.677  0.00  0.00    +0.149 HD
BRANCH  25  27
ATOM     27  C   UNL     1       0.122  -6.251  -7.054  0.00  0.00    +0.076 C 
ATOM     28  C   UNL     1      -0.248  -7.729  -7.195  0.00  0.00    +0.022 C 
ATOM     29  C   UNL     1       1.017  -8.583  -7.093  0.00  0.00    +0.002 C 
ATOM     30  C   UNL     1       1.989  -8.191  -8.208  0.00  0.00    +0.000 C 
ATOM     31  C   UNL     1       2.358  -6.713  -8.067  0.00  0.00    +0.005 C 
ATOM     32  C   UNL     1       1.093  -5.859  -8.169  0.00  0.00    +0.006 C 
ATOM     33  C   UNL     1       1.463  -4.381  -8.028  0.00  0.00    +0.009 C 
ENDBRANCH  25  27
ENDBRANCH   5  23
TORSDOF 3
