REMARK  Name = ZINC67390716
REMARK  8 active torsions:
REMARK  status: ('A' for Active; 'I' for Inactive)
REMARK    1  A    between atoms: C_1  and  C_2
REMARK    2  A    between atoms: C_5  and  N_9
REMARK    3  A    between atoms: C_10  and  C_12
REMARK    4  A    between atoms: C_12  and  C_13
REMARK    5  A    between atoms: C_13  and  N_14
REMARK    6  A    between atoms: N_17  and  C_18
REMARK    7  A    between atoms: C_18  and  C_20
REMARK    8  A    between atoms: C_18  and  C_21
REMARK                            x       y       z     vdW  Elec       q    Type
REMARK                         _______ _______ _______ _____ _____    ______ ____
ROOT
ATOM      1  C   UNL     1      -0.238  -6.847  -2.632  0.00  0.00    +0.115 C 
ENDROOT
BRANCH   1   2
ATOM      2  N   UNL     1      -0.330  -8.309  -2.633  0.00  0.00    -0.299 N 
ATOM      3  C   UNL     1      -0.429  -8.977  -3.799  0.00  0.00    +0.300 C 
ATOM      4  O   UNL     1      -0.442  -8.366  -4.851  0.00  0.00    -0.253 OA
ATOM      5  N   UNL     1      -0.513 -10.322  -3.800  0.00  0.00    -0.294 N 
ATOM      6  H   UNL     1      -0.319  -8.796  -1.794  0.00  0.00    +0.150 HD
ATOM      7  H   UNL     1      -0.502 -10.809  -2.962  0.00  0.00    +0.151 HD
BRANCH   5   8
ATOM      8  C   UNL     1      -0.621 -11.048  -5.068  0.00  0.00    +0.100 C 
ATOM      9  C   UNL     1      -2.087 -11.103  -5.502  0.00  0.00    +0.030 C 
BRANCH   8  10
ATOM     10  C   UNL     1      -0.089 -12.472  -4.887  0.00  0.00    +0.138 C 
ATOM     11  C   UNL     1      -0.086 -13.206  -6.245  0.00  0.00    +0.035 C 
ATOM     12  C   UNL     1      -0.542 -14.636  -5.847  0.00  0.00    +0.031 C 
ATOM     13  C   UNL     1      -1.525 -14.321  -4.692  0.00  0.00    +0.160 C 
ATOM     14  O   UNL     1      -0.946 -13.201  -4.001  0.00  0.00    -0.375 OA
ENDBRANCH   8  10
ENDBRANCH   5   8
ENDBRANCH   1   2
BRANCH   1  15
ATOM     15  C   UNL     1      -0.136  -6.343  -1.191  0.00  0.00    +0.115 C 
BRANCH  15  17
ATOM     16  N   UNL     1       0.057  -4.171  -0.023  0.00  0.00    -0.284 N 
ATOM     17  C   UNL     1      -0.042  -4.839  -1.190  0.00  0.00    +0.219 C 
ATOM     18  O   UNL     1      -0.055  -4.230  -2.238  0.00  0.00    -0.275 OA
ATOM     19  H   UNL     1       0.149  -4.660   0.809  0.00  0.00    +0.155 HD
BRANCH  16  24
ATOM     20  C   UNL     1      -0.064   1.502   0.016  0.00  0.00    +0.044 C 
ATOM     21  C   UNL     1      -0.031  -0.005   0.006  0.00  0.00    -0.049 A 
ATOM     22  C   UNL     1      -0.622  -0.701  -1.033  0.00  0.00    +0.005 A 
ATOM     23  C   UNL     1      -0.594  -2.082  -1.045  0.00  0.00    +0.025 A 
ATOM     24  C   UNL     1       0.028  -2.772  -0.014  0.00  0.00    +0.052 A 
ATOM     25  C   UNL     1       0.621  -2.070   1.029  0.00  0.00    +0.062 A 
ATOM     26  C   UNL     1       0.595  -0.688   1.032  0.00  0.00    +0.025 A 
ATOM     27 CL   UNL     1       1.401  -2.928   2.321  0.00  0.00    -0.082 Cl
ENDBRANCH  16  24
ENDBRANCH  15  17
ENDBRANCH   1  15
TORSDOF 6
