REMARK  Name = ZINC12412658
REMARK  15 active torsions:
REMARK  status: ('A' for Active; 'I' for Inactive)
REMARK    1  A    between atoms: C_1  and  C_2
REMARK    2  A    between atoms: C_2  and  O_3
REMARK    3  A    between atoms: O_3  and  C_4
REMARK    4  A    between atoms: C_4  and  C_6
REMARK    5  A    between atoms: C_7  and  C_35
REMARK    6  A    between atoms: C_12  and  C_14
REMARK    7  A    between atoms: C_17  and  O_33
REMARK    8  A    between atoms: C_18  and  C_20
REMARK    9  A    between atoms: C_20  and  O_21
REMARK   10  A    between atoms: O_21  and  C_22
REMARK   11  A    between atoms: C_24  and  C_32
REMARK   12  A    between atoms: C_27  and  C_28
REMARK   13  A    between atoms: C_28  and  C_29
REMARK   14  A    between atoms: C_28  and  C_30
REMARK   15  A    between atoms: O_33  and  C_34
REMARK                            x       y       z     vdW  Elec       q    Type
REMARK                         _______ _______ _______ _____ _____    ______ ____
ROOT
ATOM      1  C   UNL     1      -4.659   0.401   1.830  0.00  0.00    -0.022 A 
ATOM      2  C   UNL     1      -3.889   0.030   0.743  0.00  0.00    +0.009 A 
ATOM      3  C   UNL     1      -2.574   0.442   0.653  0.00  0.00    +0.046 A 
ATOM      4  C   UNL     1      -2.025   1.230   1.655  0.00  0.00    +0.126 A 
ATOM      5  C   UNL     1      -2.797   1.596   2.747  0.00  0.00    +0.032 A 
ATOM      6  C   UNL     1      -4.114   1.185   2.829  0.00  0.00    +0.016 A 
ENDROOT
BRANCH   1  13
ATOM      7  C   UNL     1      -6.101  -1.479   2.429  0.00  0.00    +0.078 C 
ATOM      8  C   UNL     1      -6.693  -2.415   1.655  0.00  0.00    +0.019 C 
ATOM      9  N   UNL     1      -7.264  -2.083   0.461  0.00  0.00    -0.300 N 
ATOM     10  C   UNL     1      -7.286  -0.838  -0.032  0.00  0.00    +0.135 C 
ATOM     11  S   UNL     1      -8.037  -0.559  -1.545  0.00  0.00    -0.019 S 
ATOM     12  N   UNL     1      -6.736   0.203   0.624  0.00  0.00    -0.315 N 
ATOM     13  C   UNL     1      -6.094  -0.050   1.925  0.00  0.00    +0.141 C 
ATOM     14  C   UNL     1      -6.724  -3.849   2.118  0.00  0.00    +0.061 C 
ATOM     15  H   UNL     1      -7.678  -2.789  -0.061  0.00  0.00    +0.154 HD
ATOM     16  H   UNL     1      -6.764   1.097   0.249  0.00  0.00    +0.149 HD
BRANCH   7  17
ATOM     17  C   UNL     1      -5.509  -1.821   3.666  0.00  0.00    +0.339 C 
ATOM     18  O   UNL     1      -5.621  -2.952   4.102  0.00  0.00    -0.245 OA
BRANCH  17  19
ATOM     19  O   UNL     1      -4.820  -0.894   4.364  0.00  0.00    -0.462 OA
BRANCH  19  21
ATOM     20  C   UNL     1      -3.512  -0.132   6.248  0.00  0.00    +0.048 C 
ATOM     21  C   UNL     1      -4.249  -1.310   5.606  0.00  0.00    +0.229 C 
ENDBRANCH  19  21
ENDBRANCH  17  19
ENDBRANCH   7  17
ENDBRANCH   1  13
BRANCH   4  22
ATOM     22  O   UNL     1      -0.732   1.637   1.568  0.00  0.00    -0.495 OA
ATOM     23  C   UNL     1       0.005   1.217   0.418  0.00  0.00    +0.277 C 
ENDBRANCH   4  22
BRANCH   5  24
ATOM     24  C   UNL     1      -2.203   2.446   3.840  0.00  0.00    +0.268 C 
BRANCH  24  25
ATOM     25  O   UNL     1      -3.188   2.686   4.846  0.00  0.00    -0.487 OA
BRANCH  25  26
ATOM     26  C   UNL     1      -2.812   3.443   5.911  0.00  0.00    +0.125 A 
ATOM     27  C   UNL     1      -1.518   3.938   5.988  0.00  0.00    +0.050 A 
ATOM     28  C   UNL     1      -1.139   4.711   7.068  0.00  0.00    -0.029 A 
ATOM     29  C   UNL     1      -2.045   4.982   8.079  0.00  0.00    +0.044 A 
ATOM     30  C   UNL     1      -3.333   4.484   8.006  0.00  0.00    +0.027 A 
ATOM     31  C   UNL     1      -3.718   3.715   6.925  0.00  0.00    -0.002 A 
ATOM     32 CL   UNL     1      -1.564   5.948   9.438  0.00  0.00    -0.083 Cl
ATOM     33  C   UNL     1       0.265   5.254   7.150  0.00  0.00    +0.045 C 
BRANCH  31  34
ATOM     34  C   UNL     1      -5.122   3.174   6.846  0.00  0.00    +0.016 C 
ATOM     35  C   UNL     1      -5.390   2.272   8.053  0.00  0.00    +0.012 C 
ATOM     36  C   UNL     1      -6.118   4.336   6.847  0.00  0.00    +0.012 C 
ENDBRANCH  31  34
ENDBRANCH  25  26
ENDBRANCH  24  25
ENDBRANCH   5  24
TORSDOF 9
