REMARK  Name = ZINC24722808
REMARK  6 active torsions:
REMARK  status: ('A' for Active; 'I' for Inactive)
REMARK    1  A    between atoms: C_4  and  C_7
REMARK    2  A    between atoms: C_7  and  C_8
REMARK    3  A    between atoms: C_8  and  C_10
REMARK    4  A    between atoms: C_8  and  N_16
REMARK    5  A    between atoms: C_17  and  C_19
REMARK    6  A    between atoms: C_19  and  N_20
REMARK                            x       y       z     vdW  Elec       q    Type
REMARK                         _______ _______ _______ _____ _____    ______ ____
ROOT
ATOM      1  N   UNL     1       3.186  -1.848  -2.137  0.00  0.00    -0.307 N 
ATOM      2  C   UNL     1       3.039  -1.821  -3.477  0.00  0.00    +0.231 C 
ATOM      3  O   UNL     1       3.697  -1.051  -4.144  0.00  0.00    -0.274 OA
ATOM      4  H   UNL     1       2.589  -2.546  -1.532  0.00  0.00    +0.149 HD
ENDROOT
BRANCH   1   5
ATOM      5  C   UNL     1       4.142  -0.948  -1.487  0.00  0.00    +0.107 C 
BRANCH   5   6
ATOM      6  C   UNL     1       5.513  -1.573  -1.506  0.00  0.00    -0.027 A 
ATOM      7  C   UNL     1       5.659  -2.927  -1.268  0.00  0.00    +0.005 A 
ATOM      8  C   UNL     1       6.916  -3.502  -1.290  0.00  0.00    +0.000 A 
ATOM      9  C   UNL     1       8.028  -2.720  -1.540  0.00  0.00    +0.000 A 
ATOM     10  C   UNL     1       7.883  -1.365  -1.772  0.00  0.00    +0.000 A 
ATOM     11  C   UNL     1       6.625  -0.792  -1.756  0.00  0.00    +0.005 A 
ENDBRANCH   5   6
BRANCH   5  12
ATOM     12  C   UNL     1       3.711  -0.707  -0.039  0.00  0.00    +0.062 C 
BRANCH  12  16
ATOM     13  C   UNL     1      -0.017   1.378   0.010  0.00  0.00    +0.000 A 
ATOM     14  C   UNL     1       1.171   2.086   0.002  0.00  0.00    +0.000 A 
ATOM     15  C   UNL     1       2.377   1.411  -0.014  0.00  0.00    +0.004 A 
ATOM     16  C   UNL     1       2.396   0.029  -0.022  0.00  0.00    -0.045 A 
ATOM     17  C   UNL     1       1.208  -0.679  -0.014  0.00  0.00    +0.004 A 
ATOM     18  C   UNL     1       0.002  -0.004   0.002  0.00  0.00    +0.000 A 
ENDBRANCH  12  16
ENDBRANCH   5  12
ENDBRANCH   1   5
BRANCH   2  19
ATOM     19  C   UNL     1       2.055  -2.746  -4.146  0.00  0.00    +0.213 C 
BRANCH  19  20
ATOM     20  N   UNL     1       2.083  -2.524  -5.593  0.00  0.00    -0.215 N 
ATOM     21  C   UNL     1       1.295  -1.640  -6.240  0.00  0.00    +0.252 C 
ATOM     22  O   UNL     1       0.462  -0.906  -5.753  0.00  0.00    -0.272 OA
ATOM     23  C   UNL     1       1.672  -1.755  -7.699  0.00  0.00    +0.144 C 
ATOM     24  C   UNL     1       2.221  -0.429  -8.217  0.00  0.00    +0.081 C 
ATOM     25  C   UNL     1       1.044   0.535  -8.418  0.00  0.00    +0.232 C 
ATOM     26  O   UNL     1       0.190   0.000  -9.431  0.00  0.00    -0.492 OA
ATOM     27  C   UNL     1      -0.193  -1.299  -9.325  0.00  0.00    +0.126 A 
ATOM     28  C   UNL     1       0.484  -2.192  -8.509  0.00  0.00    +0.027 A 
ATOM     29  C   UNL     1       0.064  -3.509  -8.435  0.00  0.00    +0.010 A 
ATOM     30  C   UNL     1      -1.027  -3.936  -9.167  0.00  0.00    +0.001 A 
ATOM     31  C   UNL     1      -1.706  -3.046  -9.978  0.00  0.00    +0.004 A 
ATOM     32  C   UNL     1      -1.292  -1.732 -10.058  0.00  0.00    +0.046 A 
ATOM     33  N   UNL     1       2.716  -2.787  -7.717  0.00  0.00    -0.281 N 
ATOM     34  C   UNL     1       2.888  -3.177  -6.440  0.00  0.00    +0.310 C 
ATOM     35  O   UNL     1       3.686  -4.027  -6.094  0.00  0.00    -0.252 OA
ATOM     36  H   UNL     1       3.179  -3.083  -8.670  0.00  0.00    +0.152 HD
ENDBRANCH  19  20
ENDBRANCH   2  19
TORSDOF 6
