REMARK  Name = ZINC19353365
REMARK  9 active torsions:
REMARK  status: ('A' for Active; 'I' for Inactive)
REMARK    1  A    between atoms: C_10  and  S_14
REMARK    2  A    between atoms: S_14  and  C_15
REMARK    3  A    between atoms: C_15  and  C_16
REMARK    4  A    between atoms: C_16  and  O_18
REMARK    5  A    between atoms: O_18  and  C_19
REMARK    6  A    between atoms: C_19  and  C_20
REMARK    7  A    between atoms: N_22  and  C_23
REMARK    8  A    between atoms: C_23  and  C_24
REMARK    9  A    between atoms: N_26  and  C_27
REMARK                            x       y       z     vdW  Elec       q    Type
REMARK                         _______ _______ _______ _____ _____    ______ ____
ROOT
ATOM      1  O   UNL     1       6.077   1.290  -0.035  0.00  0.00    -0.455 OA
ENDROOT
BRANCH   1   2
ATOM      2  C   UNL     1       7.213   0.575  -0.052  0.00  0.00    +0.318 C 
ATOM      3  O   UNL     1       7.166  -0.633  -0.067  0.00  0.00    -0.250 OA
BRANCH   2   4
ATOM      4  C   UNL     1       8.546   1.277  -0.053  0.00  0.00    +0.196 C 
BRANCH   4   5
ATOM      5  S   UNL     1       9.875   0.049  -0.078  0.00  0.00    -0.091 S 
BRANCH   5  15
ATOM      6  C   UNL     1      17.137  -0.097  -0.128  0.00  0.00    +0.001 A 
ATOM      7  C   UNL     1      16.697  -1.412  -0.142  0.00  0.00    +0.004 A 
ATOM      8  C   UNL     1      15.349  -1.701  -0.137  0.00  0.00    +0.047 A 
ATOM      9  C   UNL     1      14.415  -0.671  -0.118  0.00  0.00    +0.138 A 
ATOM     10  C   UNL     1      14.863   0.658  -0.105  0.00  0.00    +0.046 A 
ATOM     11  C   UNL     1      16.226   0.938  -0.111  0.00  0.00    +0.014 A 
ATOM     12  C   UNL     1      13.647   1.488  -0.086  0.00  0.00    +0.121 A 
ATOM     13  C   UNL     1      12.575   0.588  -0.085  0.00  0.00    +0.186 A 
ATOM     14  O   UNL     1      13.064  -0.668  -0.109  0.00  0.00    -0.451 OA
ATOM     15  C   UNL     1      11.278   1.115  -0.075  0.00  0.00    +0.143 A 
ATOM     16  N   UNL     1      11.124   2.436  -0.057  0.00  0.00    -0.225 NA
ATOM     17  C   UNL     1      12.166   3.247  -0.054  0.00  0.00    +0.223 A 
ATOM     18  N   UNL     1      13.403   2.796  -0.069  0.00  0.00    -0.232 NA
ENDBRANCH   5  15
ENDBRANCH   4   5
ENDBRANCH   2   4
ENDBRANCH   1   2
BRANCH   1  19
ATOM     19  C   UNL     1       4.830   0.547  -0.036  0.00  0.00    +0.327 C 
BRANCH  19  20
ATOM     20  C   UNL     1       3.671   1.510  -0.016  0.00  0.00    +0.251 C 
ATOM     21  O   UNL     1       3.877   2.705  -0.002  0.00  0.00    -0.272 OA
ATOM     22  N   UNL     1       2.407   1.044  -0.012  0.00  0.00    -0.304 N 
ATOM     23  H   UNL     1       2.220  -0.041  -0.025  0.00  0.00    +0.149 HD
BRANCH  22  24
ATOM     24  C   UNL     1       1.280   1.980   0.007  0.00  0.00    +0.200 C 
BRANCH  24  25
ATOM     25  C   UNL     1      -0.014   1.209   0.007  0.00  0.00    +0.234 C 
ATOM     26  O   UNL     1       0.002  -0.004  -0.008  0.00  0.00    -0.274 OA
ATOM     27  N   UNL     1      -1.191   1.867   0.018  0.00  0.00    -0.284 N 
ATOM     28  H   UNL     1      -1.207   2.963   0.108  0.00  0.00    +0.155 HD
BRANCH  27  29
ATOM     29  C   UNL     1      -2.392   1.155  -0.086  0.00  0.00    +0.036 A 
ATOM     30  C   UNL     1      -3.469   1.704  -0.770  0.00  0.00    +0.026 A 
ATOM     31  C   UNL     1      -4.651   0.999  -0.876  0.00  0.00    +0.043 A 
ATOM     32  C   UNL     1      -4.769  -0.251  -0.293  0.00  0.00    +0.159 A 
ATOM     33  C   UNL     1      -3.697  -0.800   0.395  0.00  0.00    +0.160 A 
ATOM     34  C   UNL     1      -2.510  -0.099   0.499  0.00  0.00    +0.064 A 
ATOM     35  F   UNL     1      -3.813  -2.020   0.964  0.00  0.00    -0.202 F 
ATOM     36  F   UNL     1      -5.928  -0.937  -0.395  0.00  0.00    -0.202 F 
ENDBRANCH  27  29
ENDBRANCH  24  25
ENDBRANCH  22  24
ENDBRANCH  19  20
ENDBRANCH   1  19
TORSDOF 9
