REMARK  Name = ZINC35597174
REMARK  10 active torsions:
REMARK  status: ('A' for Active; 'I' for Inactive)
REMARK    1  A    between atoms: C_1  and  N_2
REMARK    2  A    between atoms: C_10  and  C_12
REMARK    3  A    between atoms: C_12  and  C_14
REMARK    4  A    between atoms: C_12  and  N_29
REMARK    5  A    between atoms: C_14  and  N_15
REMARK    6  A    between atoms: N_18  and  C_19
REMARK    7  A    between atoms: C_21  and  O_27
REMARK    8  A    between atoms: C_23  and  O_25
REMARK    9  A    between atoms: O_25  and  C_26
REMARK   10  A    between atoms: O_27  and  C_28
REMARK                            x       y       z     vdW  Elec       q    Type
REMARK                         _______ _______ _______ _____ _____    ______ ____
ROOT
ATOM      1  C   UNL     1       4.840  -2.750  -0.540  0.00  0.00    -0.020 C 
ENDROOT
BRANCH   1  11
ATOM      2  C   UNL     1      -0.333   1.142   0.281  0.00  0.00    +0.129 C 
ATOM      3  N   UNL     1      -0.228  -0.318   0.219  0.00  0.00    -0.333 N 
ATOM      4  C   UNL     1      -1.426  -1.159   0.343  0.00  0.00    +0.105 C 
ATOM      5  C   UNL     1      -1.092  -2.313   1.298  0.00  0.00    +0.024 C 
ATOM      6  C   UNL     1       0.015  -3.163   0.675  0.00  0.00    +0.038 C 
ATOM      7  C   UNL     1       1.171  -2.296   0.251  0.00  0.00    -0.026 A 
ATOM      8  C   UNL     1       1.014  -0.934   0.033  0.00  0.00    +0.033 A 
ATOM      9  C   UNL     1       2.099  -0.163  -0.368  0.00  0.00    +0.023 A 
ATOM     10  C   UNL     1       3.335  -0.751  -0.553  0.00  0.00    +0.004 A 
ATOM     11  C   UNL     1       3.491  -2.108  -0.340  0.00  0.00    -0.059 A 
ATOM     12  C   UNL     1       2.414  -2.878   0.070  0.00  0.00    +0.007 A 
ENDBRANCH   1  11
BRANCH   1  13
ATOM     13  N   UNL     1       5.484  -2.175  -1.729  0.00  0.00    +0.385 N 
ATOM     14  C   UNL     1       6.723  -2.927  -2.054  0.00  0.00    -0.078 C 
ATOM     15  C   UNL     1       6.949  -2.606  -3.553  0.00  0.00    -0.020 C 
ATOM     16  C   UNL     1       5.511  -2.582  -4.122  0.00  0.00    -0.020 C 
ATOM     17  C   UNL     1       4.602  -2.321  -2.907  0.00  0.00    -0.078 C 
ATOM     18  H   UNL     1       5.698  -1.202  -1.572  0.00  0.00    -0.081 HD
ENDBRANCH   1  13
BRANCH   1  19
ATOM     19  C   UNL     1       5.715  -2.494   0.689  0.00  0.00    +0.095 C 
BRANCH  19  20
ATOM     20  N   UNL     1       5.142  -3.182   1.848  0.00  0.00    -0.300 N 
ATOM     21  C   UNL     1       5.799  -3.180   3.025  0.00  0.00    +0.304 C 
ATOM     22  O   UNL     1       6.867  -2.608   3.124  0.00  0.00    -0.253 OA
ATOM     23  N   UNL     1       5.272  -3.813   4.092  0.00  0.00    -0.269 N 
ATOM     24  H   UNL     1       4.290  -3.639   1.769  0.00  0.00    +0.150 HD
ATOM     25  H   UNL     1       4.459  -4.333   3.994  0.00  0.00    +0.156 HD
BRANCH  23  26
ATOM     26  C   UNL     1       5.898  -3.721   5.340  0.00  0.00    +0.042 A 
ATOM     27  C   UNL     1       6.538  -2.546   5.710  0.00  0.00    +0.069 A 
ATOM     28  C   UNL     1       7.158  -2.455   6.947  0.00  0.00    +0.125 A 
ATOM     29  C   UNL     1       7.138  -3.537   7.814  0.00  0.00    +0.091 A 
ATOM     30  C   UNL     1       6.498  -4.710   7.445  0.00  0.00    +0.125 A 
ATOM     31  C   UNL     1       5.873  -4.801   6.211  0.00  0.00    +0.069 A 
BRANCH  30  32
ATOM     32  O   UNL     1       6.479  -5.770   8.296  0.00  0.00    -0.495 OA
ATOM     33  C   UNL     1       7.137  -5.605   9.553  0.00  0.00    +0.277 C 
ENDBRANCH  30  32
BRANCH  28  34
ATOM     34  O   UNL     1       7.785  -1.305   7.309  0.00  0.00    -0.495 OA
ATOM     35  C   UNL     1       8.402  -1.281   8.598  0.00  0.00    +0.277 C 
ENDBRANCH  28  34
ENDBRANCH  23  26
ENDBRANCH  19  20
ENDBRANCH   1  19
TORSDOF 7
