REMARK  Name = ZINC44169595
REMARK  5 active torsions:
REMARK  status: ('A' for Active; 'I' for Inactive)
REMARK    1  A    between atoms: C_3  and  C_6
REMARK    2  A    between atoms: C_6  and  C_7
REMARK    3  A    between atoms: C_7  and  N_8
REMARK    4  A    between atoms: C_9  and  C_11
REMARK    5  A    between atoms: C_16  and  C_19
REMARK                            x       y       z     vdW  Elec       q    Type
REMARK                         _______ _______ _______ _____ _____    ______ ____
ROOT
ATOM      1  C   UNL     1       7.697   3.238   2.554  0.00  0.00    +0.027 C 
ATOM      2  C   UNL     1       8.613   2.181   1.925  0.00  0.00    +0.062 C 
ATOM      3  S   UNL     1       8.456   0.644   2.887  0.00  0.00    -0.163 S 
ATOM      4  C   UNL     1       8.682   1.220   4.599  0.00  0.00    +0.058 C 
ATOM      5  C   UNL     1       7.755   2.421   4.828  0.00  0.00    -0.030 C 
ATOM      6  N   UNL     1       8.126   3.512   3.927  0.00  0.00    +0.392 N 
ATOM      7  H   UNL     1       9.128   3.629   3.943  0.00  0.00    -0.084 HD
ATOM      8  H   UNL     1       7.690   4.364   4.246  0.00  0.00    -0.084 HD
ENDROOT
BRANCH   5   9
ATOM      9  C   UNL     1       7.882   2.886   6.256  0.00  0.00    -0.057 A 
ATOM     10  C   UNL     1       8.947   3.685   6.628  0.00  0.00    +0.006 A 
ATOM     11  C   UNL     1       9.070   4.116   7.936  0.00  0.00    +0.049 A 
ATOM     12  C   UNL     1       8.121   3.744   8.874  0.00  0.00    +0.162 A 
ATOM     13  C   UNL     1       7.053   2.942   8.500  0.00  0.00    +0.162 A 
ATOM     14  C   UNL     1       6.930   2.516   7.189  0.00  0.00    +0.051 A 
ATOM     15  O   UNL     1       6.122   2.582   9.431  0.00  0.00    -0.488 OA
ATOM     16  C   UNL     1       6.573   1.688  10.451  0.00  0.00    +0.232 C 
ATOM     17  C   UNL     1       7.244   2.453  11.581  0.00  0.00    +0.082 C 
ATOM     18  C   UNL     1       8.519   3.149  11.131  0.00  0.00    +0.232 C 
ATOM     19  O   UNL     1       8.230   4.164  10.168  0.00  0.00    -0.488 OA
ENDBRANCH   5   9
BRANCH   1  21
ATOM     20  N   UNL     1       5.404   3.191   3.480  0.00  0.00    -0.316 N 
ATOM     21  C   UNL     1       6.279   2.728   2.565  0.00  0.00    +0.200 C 
ATOM     22  O   UNL     1       5.925   1.901   1.752  0.00  0.00    -0.278 OA
ATOM     23  H   UNL     1       5.687   3.852   4.131  0.00  0.00    +0.149 HD
BRANCH  20  24
ATOM     24  C   UNL     1       4.025   2.695   3.491  0.00  0.00    +0.109 C 
BRANCH  24  25
ATOM     25  C   UNL     1       3.247   3.377   4.619  0.00  0.00    +0.061 C 
BRANCH  25  28
ATOM     26  C   UNL     1      -0.038   1.524   5.156  0.00  0.00    +0.008 A 
ATOM     27  C   UNL     1       1.308   1.808   5.296  0.00  0.00    +0.011 A 
ATOM     28  C   UNL     1       1.829   2.867   4.630  0.00  0.00    -0.009 A 
ATOM     29  S   UNL     1       0.399   3.502   3.769  0.00  0.00    -0.102 S 
ATOM     30  C   UNL     1      -0.796   2.313   4.356  0.00  0.00    +0.045 A 
ENDBRANCH  25  28
ENDBRANCH  24  25
ENDBRANCH  20  24
ENDBRANCH   1  21
TORSDOF 5
