REMARK  Name = ZINC38688941
REMARK  11 active torsions:
REMARK  status: ('A' for Active; 'I' for Inactive)
REMARK    1  A    between atoms: C_1  and  C_2
REMARK    2  A    between atoms: C_2  and  O_3
REMARK    3  A    between atoms: O_3  and  C_4
REMARK    4  A    between atoms: C_9  and  C_30
REMARK    5  A    between atoms: C_11  and  N_14
REMARK    6  A    between atoms: C_15  and  C_17
REMARK    7  A    between atoms: C_17  and  N_18
REMARK    8  A    between atoms: N_21  and  C_24
REMARK    9  A    between atoms: C_30  and  O_32
REMARK   10  A    between atoms: O_32  and  C_33
REMARK   11  A    between atoms: C_33  and  C_34
REMARK                            x       y       z     vdW  Elec       q    Type
REMARK                         _______ _______ _______ _____ _____    ______ ____
ROOT
ATOM      1  C   UNL     1      -1.652  -8.179   0.197  0.00  0.00    +0.121 A 
ATOM      2  C   UNL     1      -0.405  -7.540   0.239  0.00  0.00    +0.047 A 
ATOM      3  C   UNL     1      -0.288  -6.194   0.149  0.00  0.00    +0.029 A 
ATOM      4  C   UNL     1      -1.450  -5.391   0.007  0.00  0.00    +0.045 A 
ATOM      5  N   UNL     1      -1.599  -4.085  -0.099  0.00  0.00    -0.367 N 
ATOM      6  C   UNL     1      -3.027  -3.776  -0.224  0.00  0.00    +0.234 C 
ATOM      7  C   UNL     1      -3.748  -5.105  -0.178  0.00  0.00    +0.053 C 
ATOM      8  C   UNL     1      -2.760  -6.063  -0.038  0.00  0.00    +0.021 A 
ATOM      9  C   UNL     1      -2.807  -7.476   0.057  0.00  0.00    +0.057 A 
ATOM     10  H   UNL     1      -0.880  -3.434  -0.095  0.00  0.00    +0.161 HD
ENDROOT
BRANCH   7  11
ATOM     11  N   UNL     1      -5.093  -5.315  -0.259  0.00  0.00    -0.285 N 
ATOM     12  C   UNL     1      -5.941  -4.267  -0.246  0.00  0.00    +0.231 C 
ATOM     13  O   UNL     1      -5.506  -3.136  -0.262  0.00  0.00    -0.274 OA
ATOM     14  H   UNL     1      -5.439  -6.218  -0.325  0.00  0.00    +0.155 HD
BRANCH  12  15
ATOM     15  C   UNL     1      -7.429  -4.503  -0.212  0.00  0.00    +0.180 C 
BRANCH  15  16
ATOM     16  N   UNL     1      -8.128  -3.211  -0.204  0.00  0.00    -0.298 NA
ATOM     17  C   UNL     1      -7.867  -2.478   1.043  0.00  0.00    +0.066 C 
ATOM     18  C   UNL     1      -8.563  -1.117   0.986  0.00  0.00    -0.063 C 
ATOM     19  N   UNL     1     -10.008  -1.312   0.807  0.00  0.00    +0.383 N 
ATOM     20  C   UNL     1     -10.255  -2.024  -0.454  0.00  0.00    -0.063 C 
ATOM     21  C   UNL     1      -9.572  -3.393  -0.409  0.00  0.00    +0.066 C 
ATOM     22  H   UNL     1     -10.371  -1.855   1.576  0.00  0.00    -0.081 HD
BRANCH  19  23
ATOM     23  C   UNL     1     -10.678  -0.006   0.771  0.00  0.00    -0.068 C 
ATOM     24  C   UNL     1     -10.423   0.735   2.085  0.00  0.00    -0.015 C 
ATOM     25  C   UNL     1     -11.121   2.096   2.048  0.00  0.00    -0.002 C 
ATOM     26  C   UNL     1     -12.626   1.892   1.861  0.00  0.00    -0.000 C 
ATOM     27  C   UNL     1     -12.881   1.151   0.547  0.00  0.00    -0.002 C 
ATOM     28  C   UNL     1     -12.183  -0.209   0.585  0.00  0.00    -0.015 C 
ENDBRANCH  19  23
ENDBRANCH  15  16
ENDBRANCH  12  15
ENDBRANCH   7  11
BRANCH   6  29
ATOM     29  C   UNL     1      -3.295  -3.083  -1.536  0.00  0.00    +0.336 C 
ATOM     30  O   UNL     1      -2.736  -3.454  -2.540  0.00  0.00    -0.248 OA
BRANCH  29  31
ATOM     31  O   UNL     1      -4.155  -2.054  -1.587  0.00  0.00    -0.463 OA
BRANCH  31  32
ATOM     32  C   UNL     1      -4.362  -1.444  -2.863  0.00  0.00    +0.229 C 
ATOM     33  C   UNL     1      -5.367  -0.299  -2.725  0.00  0.00    +0.048 C 
ENDBRANCH  31  32
ENDBRANCH  29  31
ENDBRANCH   6  29
BRANCH   1  34
ATOM     34  O   UNL     1      -1.708  -9.535   0.292  0.00  0.00    -0.492 OA
BRANCH  34  36
ATOM     35  C   UNL     1      -0.727 -11.731   0.529  0.00  0.00    +0.048 C 
ATOM     36  C   UNL     1      -0.466 -10.226   0.438  0.00  0.00    +0.225 C 
ENDBRANCH  34  36
ENDBRANCH   1  34
TORSDOF 9
