REMARK  Name = ZINC09183606
REMARK  8 active torsions:
REMARK  status: ('A' for Active; 'I' for Inactive)
REMARK    1  A    between atoms: C_1  and  O_2
REMARK    2  A    between atoms: O_2  and  C_3
REMARK    3  A    between atoms: C_8  and  C_9
REMARK    4  A    between atoms: C_18  and  C_25
REMARK    5  A    between atoms: C_20  and  C_21
REMARK    6  A    between atoms: C_20  and  N_53
REMARK    7  A    between atoms: C_21  and  O_23
REMARK    8  A    between atoms: O_23  and  C_24
REMARK                            x       y       z     vdW  Elec       q    Type
REMARK                         _______ _______ _______ _____ _____    ______ ____
ROOT
ATOM      1  C   UNL     1       0.250   1.289   0.456  0.00  0.00    +0.053 C 
ATOM      2  N   UNL     1       0.595  -0.141   0.463  0.00  0.00    -0.353 N 
ATOM      3  C   UNL     1       1.793  -0.528   1.076  0.00  0.00    +0.028 A 
ATOM      4  C   UNL     1       2.030  -1.870   1.345  0.00  0.00    +0.024 A 
ATOM      5  C   UNL     1       3.213  -2.252   1.948  0.00  0.00    +0.017 A 
ATOM      6  C   UNL     1       4.157  -1.297   2.283  0.00  0.00    +0.018 A 
ATOM      7  C   UNL     1       3.921   0.039   2.017  0.00  0.00    +0.019 A 
ATOM      8  C   UNL     1       2.739   0.429   1.414  0.00  0.00    -0.035 A 
ATOM      9  C   UNL     1       2.494   1.888   1.134  0.00  0.00    -0.001 C 
ATOM     10 BR   UNL     1       5.776  -1.822   3.108  0.00  0.00    -0.050 Br
ATOM     11  H   UNL     1       0.009  -0.797   0.054  0.00  0.00    +0.145 HD
ATOM     12  N   UNL     1       1.472   2.035   0.079  0.00  0.00    +0.409 N 
ATOM     13  H   UNL     1       1.841   1.651  -0.799  0.00  0.00    -0.076 HD
ENDROOT
BRANCH   1  19
ATOM     14  C   UNL     1      -2.163   1.389  -0.221  0.00  0.00    +0.123 A 
ATOM     15  C   UNL     1      -3.153   1.629  -1.163  0.00  0.00    +0.046 A 
ATOM     16  C   UNL     1      -2.808   2.026  -2.440  0.00  0.00    +0.004 A 
ATOM     17  C   UNL     1      -1.477   2.184  -2.780  0.00  0.00    +0.000 A 
ATOM     18  C   UNL     1      -0.489   1.950  -1.843  0.00  0.00    +0.007 A 
ATOM     19  C   UNL     1      -0.828   1.548  -0.565  0.00  0.00    -0.003 A 
BRANCH  14  21
ATOM     20  C   UNL     1      -3.893   0.856   1.320  0.00  0.00    +0.277 C 
ATOM     21  O   UNL     1      -2.500   0.999   1.036  0.00  0.00    -0.495 OA
ENDBRANCH  14  21
ENDBRANCH   1  19
BRANCH   9  22
ATOM     22  C   UNL     1       3.774   2.526   0.660  0.00  0.00    -0.057 A 
ATOM     23  C   UNL     1       4.180   2.370  -0.652  0.00  0.00    +0.002 A 
ATOM     24  C   UNL     1       5.352   2.959  -1.088  0.00  0.00    +0.000 A 
ATOM     25  C   UNL     1       6.124   3.696  -0.209  0.00  0.00    +0.000 A 
ATOM     26  C   UNL     1       5.721   3.848   1.104  0.00  0.00    +0.000 A 
ATOM     27  C   UNL     1       4.546   3.263   1.539  0.00  0.00    +0.002 A 
ENDBRANCH   9  22
BRANCH  12  28
ATOM     28  C   UNL     1       1.152   3.465  -0.119  0.00  0.00    +0.048 C 
BRANCH  28  29
ATOM     29  C   UNL     1       0.651   4.075   1.165  0.00  0.00    +0.290 C 
ATOM     30  O   UNL     1       0.503   3.385   2.145  0.00  0.00    -0.253 OA
BRANCH  29  31
ATOM     31  O   UNL     1       0.371   5.387   1.219  0.00  0.00    -0.469 OA
ATOM     32  C   UNL     1      -0.106   5.907   2.488  0.00  0.00    +0.280 C 
ENDBRANCH  29  31
ENDBRANCH  28  29
ENDBRANCH  12  28
TORSDOF 6
