REMARK  Name = ZINC66178277
REMARK  7 active torsions:
REMARK  status: ('A' for Active; 'I' for Inactive)
REMARK    1  A    between atoms: C_1  and  C_2
REMARK    2  A    between atoms: C_5  and  N_8
REMARK    3  A    between atoms: C_11  and  N_14
REMARK    4  A    between atoms: N_14  and  C_15
REMARK    5  A    between atoms: N_18  and  C_19
REMARK    6  A    between atoms: C_19  and  C_20
REMARK    7  A    between atoms: C_20  and  C_21
REMARK                            x       y       z     vdW  Elec       q    Type
REMARK                         _______ _______ _______ _____ _____    ______ ____
ROOT
ATOM      1  N   UNL     1      -4.172   0.124   7.383  0.00  0.00    -0.286 N 
ATOM      2  C   UNL     1      -4.254   1.581   7.518  0.00  0.00    +0.134 C 
ATOM      3  C   UNL     1      -4.708  -0.671   8.330  0.00  0.00    +0.302 C 
ATOM      4  O   UNL     1      -4.640  -1.880   8.218  0.00  0.00    -0.253 OA
ATOM      5  N   UNL     1      -5.318  -0.127   9.401  0.00  0.00    -0.299 N 
ATOM      6  H   UNL     1      -5.372   0.837   9.491  0.00  0.00    +0.150 HD
ENDROOT
BRANCH   1  10
ATOM      7  N   UNL     1      -2.097  -0.073   3.720  0.00  0.00    +0.382 N 
ATOM      8  C   UNL     1      -3.477  -0.575   3.724  0.00  0.00    -0.077 C 
ATOM      9  C   UNL     1      -4.221  -0.018   4.940  0.00  0.00    +0.004 C 
ATOM     10  C   UNL     1      -3.509  -0.468   6.218  0.00  0.00    +0.074 C 
ATOM     11  C   UNL     1      -2.051  -0.003   6.169  0.00  0.00    +0.004 C 
ATOM     12  C   UNL     1      -1.386  -0.560   4.908  0.00  0.00    -0.077 C 
ATOM     13  H   UNL     1      -2.108   0.936   3.726  0.00  0.00    -0.081 HD
BRANCH   7  18
ATOM     14  C   UNL     1      -0.019   1.526   0.010  0.00  0.00    +0.007 C 
ATOM     15  C   UNL     1       0.002  -0.004   0.002  0.00  0.00    -0.014 C 
ATOM     16  C   UNL     1      -1.433  -0.534   0.013  0.00  0.00    +0.002 C 
ATOM     17  C   UNL     1      -2.149  -0.040   1.272  0.00  0.00    -0.015 C 
ATOM     18  C   UNL     1      -1.409  -0.547   2.511  0.00  0.00    -0.069 C 
ATOM     19  C   UNL     1       0.026  -0.018   2.500  0.00  0.00    -0.015 C 
ATOM     20  C   UNL     1       0.742  -0.511   1.242  0.00  0.00    +0.002 C 
ENDBRANCH   7  18
ENDBRANCH   1  10
BRANCH   5  21
ATOM     21  C   UNL     1      -5.900  -0.992  10.431  0.00  0.00    +0.115 C 
BRANCH  21  22
ATOM     22  C   UNL     1      -6.526  -0.128  11.528  0.00  0.00    +0.114 C 
BRANCH  22  23
ATOM     23  C   UNL     1      -7.125  -1.018  12.587  0.00  0.00    +0.217 C 
ATOM     24  O   UNL     1      -7.057  -2.224  12.475  0.00  0.00    -0.276 OA
ATOM     25  N   UNL     1      -7.735  -0.473  13.658  0.00  0.00    -0.301 N 
ATOM     26  C   UNL     1      -7.830   0.986  13.804  0.00  0.00    +0.108 C 
ATOM     27  C   UNL     1      -9.298   1.365  14.023  0.00  0.00    +0.019 C 
ATOM     28  C   UNL     1      -9.853   0.577  15.212  0.00  0.00    +0.003 C 
ATOM     29  C   UNL     1      -9.780  -0.922  14.910  0.00  0.00    +0.019 C 
ATOM     30  C   UNL     1      -8.323  -1.327  14.699  0.00  0.00    +0.108 C 
ENDBRANCH  22  23
ENDBRANCH  21  22
ENDBRANCH   5  21
TORSDOF 5
