REMARK  Name = ZINC40950900
REMARK  8 active torsions:
REMARK  status: ('A' for Active; 'I' for Inactive)
REMARK    1  A    between atoms: C_1  and  C_2
REMARK    2  A    between atoms: C_2  and  C_3
REMARK    3  A    between atoms: C_2  and  C_4
REMARK    4  A    between atoms: C_9  and  O_10
REMARK    5  A    between atoms: O_10  and  C_11
REMARK    6  A    between atoms: C_11  and  C_12
REMARK    7  A    between atoms: N_14  and  N_15
REMARK    8  A    between atoms: C_16  and  C_17
REMARK                            x       y       z     vdW  Elec       q    Type
REMARK                         _______ _______ _______ _____ _____    ______ ____
ROOT
ATOM      1  C   UNL     1      -0.511  -2.701  -4.141  0.00  0.00    +0.270 C 
ATOM      2  O   UNL     1       0.591  -2.212  -4.012  0.00  0.00    -0.270 OA
ATOM      3  N   UNL     1      -0.791  -3.458  -5.220  0.00  0.00    -0.204 N 
ATOM      4  H   UNL     1      -1.673  -3.849  -5.323  0.00  0.00    +0.177 HD
ENDROOT
BRANCH   3   5
ATOM      5  N   UNL     1       0.192  -3.680  -6.193  0.00  0.00    -0.187 NA
ATOM      6  C   UNL     1      -0.077  -4.409  -7.233  0.00  0.00    +0.142 C 
BRANCH   6   7
ATOM      7  C   UNL     1       0.957  -4.643  -8.257  0.00  0.00    +0.048 A 
ATOM      8  C   UNL     1       2.231  -4.085  -8.110  0.00  0.00    +0.133 A 
ATOM      9  C   UNL     1       3.195  -4.309  -9.074  0.00  0.00    +0.039 A 
ATOM     10  C   UNL     1       2.901  -5.082 -10.184  0.00  0.00    +0.004 A 
ATOM     11  C   UNL     1       1.643  -5.636 -10.336  0.00  0.00    +0.021 A 
ATOM     12  C   UNL     1       0.671  -5.427  -9.378  0.00  0.00    +0.052 A 
ATOM     13 CL   UNL     1      -0.905  -6.131  -9.569  0.00  0.00    -0.083 Cl
ATOM     14  F   UNL     1       2.519  -3.329  -7.027  0.00  0.00    -0.205 F 
ENDBRANCH   6   7
ENDBRANCH   3   5
BRANCH   1  15
ATOM     15  C   UNL     1      -1.569  -2.462  -3.093  0.00  0.00    +0.326 C 
BRANCH  15  16
ATOM     16  O   UNL     1      -1.034  -1.636  -2.057  0.00  0.00    -0.482 OA
BRANCH  16  22
ATOM     17  C   UNL     1      -1.412  -0.526   0.013  0.00  0.00    -0.002 A 
ATOM     18  C   UNL     1      -2.259  -0.205   1.056  0.00  0.00    +0.022 A 
ATOM     19  C   UNL     1      -3.557  -0.683   1.066  0.00  0.00    +0.018 A 
ATOM     20  C   UNL     1      -4.009  -1.484   0.032  0.00  0.00    +0.019 A 
ATOM     21  C   UNL     1      -3.166  -1.807  -1.012  0.00  0.00    +0.047 A 
ATOM     22  C   UNL     1      -1.865  -1.324  -1.027  0.00  0.00    +0.125 A 
ATOM     23 BR   UNL     1      -4.714  -0.243   2.495  0.00  0.00    -0.050 Br
BRANCH  17  25
ATOM     24  C   UNL     1      -0.019   1.526   0.010  0.00  0.00    +0.012 C 
ATOM     25  C   UNL     1       0.002  -0.004   0.002  0.00  0.00    +0.016 C 
ATOM     26  C   UNL     1       0.742  -0.511   1.242  0.00  0.00    +0.012 C 
ENDBRANCH  17  25
ENDBRANCH  16  22
ENDBRANCH  15  16
ENDBRANCH   1  15
TORSDOF 6
