REMARK  Name = ZINC22635897
REMARK  5 active torsions:
REMARK  status: ('A' for Active; 'I' for Inactive)
REMARK    1  A    between atoms: C_1  and  C_2
REMARK    2  A    between atoms: C_2  and  N_3
REMARK    3  A    between atoms: C_11  and  O_28
REMARK    4  A    between atoms: C_13  and  C_16
REMARK    5  A    between atoms: C_19  and  C_21
REMARK                            x       y       z     vdW  Elec       q    Type
REMARK                         _______ _______ _______ _____ _____    ______ ____
ROOT
ATOM      1  N   UNL     1      -0.723   1.572  -1.182  0.00  0.00    +0.383 N 
ATOM      2  C   UNL     1      -0.204   0.937  -2.402  0.00  0.00    -0.074 C 
ATOM      3  C   UNL     1      -1.178   1.155  -3.563  0.00  0.00    +0.018 C 
ATOM      4  C   UNL     1      -1.487   2.646  -3.652  0.00  0.00    -0.027 A 
ATOM      5  C   UNL     1      -1.225   3.454  -2.597  0.00  0.00    -0.021 A 
ATOM      6  S   UNL     1      -1.726   5.070  -3.126  0.00  0.00    -0.080 S 
ATOM      7  C   UNL     1      -2.270   4.677  -4.700  0.00  0.00    +0.080 A 
ATOM      8  C   UNL     1      -2.058   3.296  -4.816  0.00  0.00    +0.067 A 
ATOM      9  C   UNL     1      -2.431   2.658  -6.105  0.00  0.00    +0.220 C 
ATOM     10  N   UNL     1      -3.146   3.357  -6.943  0.00  0.00    -0.220 NA
ATOM     11  C   UNL     1      -3.660   4.695  -6.681  0.00  0.00    +0.260 C 
ATOM     12  N   UNL     1      -2.812   5.424  -5.718  0.00  0.00    -0.311 N 
ATOM     13  C   UNL     1      -0.639   3.042  -1.284  0.00  0.00    -0.035 C 
ATOM     14  H   UNL     1      -2.646   6.504  -5.839  0.00  0.00    +0.149 HD
ATOM     15  H   UNL     1      -1.782   1.292  -1.076  0.00  0.00    -0.081 HD
ENDROOT
BRANCH  11  16
ATOM     16  C   UNL     1      -5.055   4.586  -6.124  0.00  0.00    +0.148 A 
ATOM     17  C   UNL     1      -5.937   3.605  -6.400  0.00  0.00    +0.049 A 
ATOM     18  C   UNL     1      -7.111   3.888  -5.673  0.00  0.00    +0.050 A 
ATOM     19  C   UNL     1      -6.878   5.037  -4.986  0.00  0.00    +0.135 A 
ATOM     20  O   UNL     1      -5.625   5.446  -5.264  0.00  0.00    -0.456 OA
BRANCH  19  21
ATOM     21  C   UNL     1      -7.832   5.717  -4.085  0.00  0.00    +0.017 A 
ATOM     22  C   UNL     1      -9.106   5.184  -3.882  0.00  0.00    +0.013 A 
ATOM     23  C   UNL     1      -9.990   5.820  -3.036  0.00  0.00    +0.021 A 
ATOM     24  C   UNL     1      -9.620   6.991  -2.397  0.00  0.00    +0.041 A 
ATOM     25  C   UNL     1      -8.360   7.528  -2.598  0.00  0.00    +0.021 A 
ATOM     26  C   UNL     1      -7.465   6.898  -3.438  0.00  0.00    +0.013 A 
ATOM     27 CL   UNL     1     -10.741   7.790  -1.339  0.00  0.00    -0.084 Cl
ENDBRANCH  19  21
ENDBRANCH  11  16
BRANCH   1  29
ATOM     28  C   UNL     1      -0.729   1.579   1.267  0.00  0.00    -0.017 C 
ATOM     29  C   UNL     1      -0.013   1.086   0.008  0.00  0.00    -0.082 C 
ENDBRANCH   1  29
BRANCH   9  30
ATOM     30  O   UNL     1      -2.042   1.395  -6.399  0.00  0.00    -0.492 OA
ATOM     31  H   UNL     1      -2.329   0.941  -7.359  0.00  0.00    +0.294 HD
ENDBRANCH   9  30
TORSDOF 4
