REMARK  Name = ZINC27118091
REMARK  7 active torsions:
REMARK  status: ('A' for Active; 'I' for Inactive)
REMARK    1  A    between atoms: C_1  and  C_2
REMARK    2  A    between atoms: C_5  and  C_18
REMARK    3  A    between atoms: C_9  and  C_11
REMARK    4  A    between atoms: C_16  and  O_17
REMARK    5  A    between atoms: N_20  and  C_21
REMARK    6  A    between atoms: C_21  and  C_22
REMARK    7  A    between atoms: C_22  and  C_23
REMARK                            x       y       z     vdW  Elec       q    Type
REMARK                         _______ _______ _______ _____ _____    ______ ____
ROOT
ATOM      1  C   UNL     1       7.143   5.330  -6.598  0.00  0.00    +0.109 C 
ATOM      2  C   UNL     1       6.379   5.097  -5.320  0.00  0.00    +0.214 C 
ATOM      3  O   UNL     1       5.708   4.095  -5.189  0.00  0.00    -0.276 OA
ATOM      4  N   UNL     1       6.442   6.001  -4.323  0.00  0.00    -0.273 N 
ATOM      5  C   UNL     1       5.763   5.794  -3.047  0.00  0.00    +0.173 C 
ATOM      6  C   UNL     1       5.313   7.152  -2.432  0.00  0.00    +0.103 C 
ATOM      7  S   UNL     1       6.787   8.163  -2.904  0.00  0.00    -0.131 S 
ATOM      8  C   UNL     1       7.200   7.260  -4.456  0.00  0.00    +0.169 C 
ENDROOT
BRANCH   8   9
ATOM      9  C   UNL     1       8.680   6.984  -4.534  0.00  0.00    +0.024 A 
ATOM     10  C   UNL     1       9.132   5.699  -4.763  0.00  0.00    +0.010 A 
ATOM     11  C   UNL     1      10.489   5.445  -4.834  0.00  0.00    +0.001 A 
ATOM     12  C   UNL     1      11.397   6.476  -4.678  0.00  0.00    +0.004 A 
ATOM     13  C   UNL     1      10.950   7.763  -4.449  0.00  0.00    +0.046 A 
ATOM     14  C   UNL     1       9.588   8.021  -4.382  0.00  0.00    +0.123 A 
BRANCH  14  15
ATOM     15  O   UNL     1       9.145   9.287  -4.163  0.00  0.00    -0.506 OA
ATOM     16  H   UNL     1       9.867  10.109  -4.043  0.00  0.00    +0.292 HD
ENDBRANCH  14  15
ENDBRANCH   8   9
BRANCH   5  17
ATOM     17  C   UNL     1       4.552   4.923  -3.265  0.00  0.00    +0.234 C 
ATOM     18  O   UNL     1       3.812   5.137  -4.202  0.00  0.00    -0.274 OA
ATOM     19  N   UNL     1       4.292   3.907  -2.419  0.00  0.00    -0.313 N 
ATOM     20  H   UNL     1       4.963   3.713  -1.569  0.00  0.00    +0.149 HD
BRANCH  19  21
ATOM     21  C   UNL     1       3.115   3.060  -2.631  0.00  0.00    +0.109 C 
BRANCH  21  22
ATOM     22  C   UNL     1       3.052   1.991  -1.538  0.00  0.00    +0.055 C 
BRANCH  22  23
ATOM     23  C   UNL     1       1.842   1.120  -1.757  0.00  0.00    -0.027 A 
ATOM     24  C   UNL     1       0.662   1.398  -1.091  0.00  0.00    +0.006 A 
ATOM     25  C   UNL     1      -0.448   0.600  -1.291  0.00  0.00    +0.020 A 
ATOM     26  C   UNL     1      -0.382  -0.474  -2.161  0.00  0.00    +0.042 A 
ATOM     27  C   UNL     1       0.800  -0.756  -2.822  0.00  0.00    +0.040 A 
ATOM     28  C   UNL     1       1.911   0.043  -2.622  0.00  0.00    +0.046 A 
ATOM     29 CL   UNL     1       3.393  -0.306  -3.456  0.00  0.00    -0.083 Cl
ATOM     30 CL   UNL     1      -1.779  -1.472  -2.417  0.00  0.00    -0.083 Cl
ENDBRANCH  22  23
ENDBRANCH  21  22
ENDBRANCH  19  21
ENDBRANCH   5  17
TORSDOF 6
