REMARK  Name = ZINC09271706
REMARK  12 active torsions:
REMARK  status: ('A' for Active; 'I' for Inactive)
REMARK    1  A    between atoms: C_1  and  C_2
REMARK    2  A    between atoms: C_2  and  N_61
REMARK    3  A    between atoms: C_3  and  C_4
REMARK    4  A    between atoms: C_3  and  N_61
REMARK    5  A    between atoms: C_5  and  C_6
REMARK    6  A    between atoms: C_5  and  N_61
REMARK    7  A    between atoms: C_6  and  N_7
REMARK    8  A    between atoms: C_8  and  C_28
REMARK    9  A    between atoms: C_11  and  C_12
REMARK   10  A    between atoms: C_11  and  O_23
REMARK   11  A    between atoms: C_18  and  O_21
REMARK   12  A    between atoms: O_21  and  C_22
REMARK                            x       y       z     vdW  Elec       q    Type
REMARK                         _______ _______ _______ _____ _____    ______ ____
ROOT
ATOM      1  N   UNL     1      -1.850   2.955  -1.322  0.00  0.00    -0.285 N 
ATOM      2  C   UNL     1      -2.090   2.625  -2.730  0.00  0.00    +0.145 C 
ATOM      3  C   UNL     1      -2.706   3.852  -3.362  0.00  0.00    +0.074 C 
ATOM      4  C   UNL     1      -3.100   3.999  -4.682  0.00  0.00    +0.168 C 
ATOM      5  C   UNL     1      -2.799   4.810  -2.344  0.00  0.00    +0.249 C 
ATOM      6  O   UNL     1      -3.248   5.937  -2.463  0.00  0.00    -0.282 OA
ATOM      7  C   UNL     1      -2.263   4.213  -1.093  0.00  0.00    +0.288 C 
ATOM      8  O   UNL     1      -2.204   4.780  -0.021  0.00  0.00    -0.266 OA
ENDROOT
BRANCH   4   9
ATOM      9  C   UNL     1      -3.542   5.305  -5.172  0.00  0.00    +0.171 A 
ATOM     10  C   UNL     1      -4.665   5.530  -5.910  0.00  0.00    +0.061 A 
ATOM     11  C   UNL     1      -4.716   6.923  -6.166  0.00  0.00    +0.025 A 
ATOM     12  C   UNL     1      -5.613   7.748  -6.856  0.00  0.00    +0.012 A 
ATOM     13  C   UNL     1      -5.379   9.091  -6.934  0.00  0.00    +0.004 A 
ATOM     14  C   UNL     1      -4.258   9.648  -6.335  0.00  0.00    +0.049 A 
ATOM     15  C   UNL     1      -3.359   8.853  -5.648  0.00  0.00    +0.163 A 
ATOM     16  C   UNL     1      -3.578   7.480  -5.555  0.00  0.00    +0.177 A 
ATOM     17  O   UNL     1      -2.898   6.474  -4.968  0.00  0.00    -0.448 OA
BRANCH  15  18
ATOM     18  O   UNL     1      -2.264   9.410  -5.064  0.00  0.00    -0.491 OA
ATOM     19  C   UNL     1      -2.105  10.823  -5.199  0.00  0.00    +0.277 C 
ENDBRANCH  15  18
ENDBRANCH   4   9
BRANCH   2  20
ATOM     20  C   UNL     1      -0.787   2.292  -3.411  0.00  0.00    -0.021 A 
ATOM     21  C   UNL     1      -0.729   1.253  -4.322  0.00  0.00    +0.006 A 
ATOM     22  C   UNL     1       0.465   0.947  -4.947  0.00  0.00    +0.002 A 
ATOM     23  C   UNL     1       1.602   1.680  -4.663  0.00  0.00    +0.020 A 
ATOM     24  C   UNL     1       1.545   2.719  -3.752  0.00  0.00    +0.041 A 
ATOM     25  C   UNL     1       0.348   3.029  -3.130  0.00  0.00    +0.025 A 
ATOM     26 CL   UNL     1       2.972   3.640  -3.395  0.00  0.00    -0.084 Cl
ENDBRANCH   2  20
BRANCH   4  27
ATOM     27  O   UNL     1      -3.075   2.937  -5.517  0.00  0.00    -0.503 OA
ATOM     28  H   UNL     1      -3.388   3.219  -6.424  0.00  0.00    +0.292 HD
ENDBRANCH   4  27
BRANCH   1  29
ATOM     29  C   UNL     1      -1.261   2.057  -0.326  0.00  0.00    +0.090 C 
BRANCH  29  30
ATOM     30  C   UNL     1       0.259   2.231  -0.316  0.00  0.00    -0.060 C 
BRANCH  30  31
ATOM     31  N   UNL     1       0.822   1.437   0.796  0.00  0.00    +0.380 N 
ATOM     32  H   UNL     1       0.275   1.619   1.646  0.00  0.00    -0.082 HD
BRANCH  31  34
ATOM     33  C   UNL     1       1.543  -0.315  -0.792  0.00  0.00    -0.017 C 
ATOM     34  C   UNL     1       0.746  -0.004   0.477  0.00  0.00    -0.082 C 
ENDBRANCH  31  34
BRANCH  31  35
ATOM     35  C   UNL     1       2.227   1.828   1.036  0.00  0.00    -0.082 C 
ATOM     36  C   UNL     1       2.712   1.160   2.324  0.00  0.00    -0.017 C 
ENDBRANCH  31  35
ENDBRANCH  30  31
ENDBRANCH  29  30
ENDBRANCH   1  29
TORSDOF 9
