REMARK  Name = ZINC09120922
REMARK  4 active torsions:
REMARK  status: ('A' for Active; 'I' for Inactive)
REMARK    1  A    between atoms: C_6  and  N_7
REMARK    2  A    between atoms: C_9  and  C_14
REMARK    3  A    between atoms: C_14  and  N_15
REMARK    4  A    between atoms: C_16  and  C_18
REMARK                            x       y       z     vdW  Elec       q    Type
REMARK                         _______ _______ _______ _____ _____    ______ ____
ROOT
ATOM      1  N   UNL     1      -0.775   1.599  -1.140  0.00  0.00    -0.234 N 
ATOM      2  C   UNL     1      -0.013   1.086   0.008  0.00  0.00    +0.163 C 
ATOM      3  C   UNL     1      -0.789   1.610   1.232  0.00  0.00    +0.213 C 
ATOM      4  O   UNL     1      -1.901   2.355   0.648  0.00  0.00    -0.444 OA
ATOM      5  C   UNL     1      -1.822   2.302  -0.687  0.00  0.00    +0.408 C 
ATOM      6  O   UNL     1      -2.626   2.842  -1.420  0.00  0.00    -0.226 OA
ENDROOT
BRANCH   1  12
ATOM      7  C   UNL     1       0.659   0.639  -2.830  0.00  0.00    +0.027 A 
ATOM      8  C   UNL     1       0.970   0.424  -4.160  0.00  0.00    +0.051 A 
ATOM      9  C   UNL     1       0.170   0.961  -5.156  0.00  0.00    +0.166 A 
ATOM     10  C   UNL     1      -0.951   1.715  -4.816  0.00  0.00    +0.168 A 
ATOM     11  C   UNL     1      -1.264   1.926  -3.484  0.00  0.00    +0.073 A 
ATOM     12  C   UNL     1      -0.460   1.385  -2.489  0.00  0.00    +0.043 A 
ATOM     13  O   UNL     1      -1.564   2.127  -5.965  0.00  0.00    -0.453 OA
ATOM     14  C   UNL     1      -0.582   1.963  -7.005  0.00  0.00    +0.466 C 
ATOM     15  O   UNL     1       0.259   0.901  -6.517  0.00  0.00    -0.453 OA
ENDBRANCH   1  12
BRANCH   3  16
ATOM     16  C   UNL     1       0.096   2.532   2.073  0.00  0.00    +0.150 C 
BRANCH  16  17
ATOM     17  N   UNL     1      -0.622   2.921   3.289  0.00  0.00    -0.308 N 
ATOM     18  C   UNL     1      -0.034   3.737   4.187  0.00  0.00    +0.246 C 
ATOM     19  O   UNL     1       1.092   4.150   3.987  0.00  0.00    -0.270 OA
ATOM     20  H   UNL     1      -1.520   2.592   3.449  0.00  0.00    +0.149 HD
BRANCH  18  21
ATOM     21  C   UNL     1      -0.758   4.129   5.413  0.00  0.00    +0.055 A 
ATOM     22  C   UNL     1      -2.053   3.661   5.643  0.00  0.00    +0.016 A 
ATOM     23  C   UNL     1      -2.722   4.027   6.792  0.00  0.00    +0.021 A 
ATOM     24  C   UNL     1      -2.116   4.866   7.713  0.00  0.00    +0.042 A 
ATOM     25  C   UNL     1      -0.834   5.338   7.490  0.00  0.00    +0.040 A 
ATOM     26  C   UNL     1      -0.151   4.975   6.346  0.00  0.00    +0.054 A 
ATOM     27 CL   UNL     1       1.456   5.568   6.066  0.00  0.00    -0.083 Cl
ATOM     28 CL   UNL     1      -2.968   5.327   9.154  0.00  0.00    -0.083 Cl
ENDBRANCH  18  21
ENDBRANCH  16  17
ENDBRANCH   3  16
TORSDOF 4
