REMARK  Name = ZINC43474691
REMARK  6 active torsions:
REMARK  status: ('A' for Active; 'I' for Inactive)
REMARK    1  A    between atoms: C_3  and  C_20
REMARK    2  A    between atoms: C_5  and  O_7
REMARK    3  A    between atoms: O_7  and  C_8
REMARK    4  A    between atoms: C_9  and  C_18
REMARK    5  A    between atoms: C_18  and  N_19
REMARK    6  A    between atoms: C_20  and  O_21
REMARK                            x       y       z     vdW  Elec       q    Type
REMARK                         _______ _______ _______ _____ _____    ______ ____
ROOT
ATOM      1  C   UNL     1       0.053  -2.695   0.090  0.00  0.00    +0.222 A 
ATOM      2  C   UNL     1       0.040  -4.080   0.196  0.00  0.00    -0.003 A 
ATOM      3  C   UNL     1      -1.175  -4.728   0.306  0.00  0.00    +0.012 A 
ATOM      4  C   UNL     1      -2.345  -3.971   0.309  0.00  0.00    -0.026 A 
ATOM      5  C   UNL     1      -2.261  -2.603   0.207  0.00  0.00    +0.048 A 
ATOM      6  N   UNL     1      -1.076  -2.013   0.103  0.00  0.00    -0.217 NA
ATOM      7  C   UNL     1      -3.481  -1.716   0.221  0.00  0.00    +0.056 C 
ATOM      8  C   UNL     1      -4.738  -2.527  -0.087  0.00  0.00    +0.006 C 
ATOM      9  C   UNL     1      -4.770  -3.745   0.845  0.00  0.00    +0.005 C 
ATOM     10  C   UNL     1      -3.656  -4.702   0.423  0.00  0.00    +0.037 C 
ENDROOT
BRANCH   1  11
ATOM     11  O   UNL     1       1.235  -2.039  -0.022  0.00  0.00    -0.438 OA
BRANCH  11  16
ATOM     12  C   UNL     1       1.346   1.404  -1.192  0.00  0.00    +0.004 A 
ATOM     13  C   UNL     1       1.172   2.086  -0.002  0.00  0.00    +0.006 A 
ATOM     14  C   UNL     1       1.018   1.388   1.181  0.00  0.00    -0.019 A 
ATOM     15  C   UNL     1       1.039   0.006   1.177  0.00  0.00    +0.052 A 
ATOM     16  C   UNL     1       1.214  -0.680  -0.015  0.00  0.00    +0.131 A 
ATOM     17  C   UNL     1       1.367   0.023  -1.202  0.00  0.00    +0.046 A 
BRANCH  14  18
ATOM     18  C   UNL     1       0.829   2.134   2.477  0.00  0.00    +0.191 C 
BRANCH  18  19
ATOM     19  O   UNL     1      -0.566   2.351   2.702  0.00  0.00    -0.390 OA
ATOM     20  H   UNL     1      -0.762   2.827   3.520  0.00  0.00    +0.210 HD
ENDBRANCH  18  19
ENDBRANCH  14  18
ENDBRANCH  11  16
ENDBRANCH   1  11
BRANCH   2  21
ATOM     21  C   UNL     1       1.328  -4.862   0.191  0.00  0.00    -0.045 C 
BRANCH  21  22
ATOM     22  N   UNL     1       1.865  -4.913  -1.176  0.00  0.00    +0.381 N 
ATOM     23  H   UNL     1       2.727  -5.436  -1.179  0.00  0.00    -0.090 HD
ATOM     24  H   UNL     1       1.196  -5.362  -1.783  0.00  0.00    -0.090 HD
ATOM     25  H   UNL     1       2.039  -3.974  -1.503  0.00  0.00    -0.090 HD
ENDBRANCH  21  22
ENDBRANCH   2  21
TORSDOF 6
