REMARK  Name = ZINC65531811
REMARK  9 active torsions:
REMARK  status: ('A' for Active; 'I' for Inactive)
REMARK    1  A    between atoms: C_1  and  C_2
REMARK    2  A    between atoms: C_7  and  N_8
REMARK    3  A    between atoms: C_9  and  C_19
REMARK    4  A    between atoms: C_12  and  C_15
REMARK    5  A    between atoms: C_15  and  C_16
REMARK    6  A    between atoms: C_16  and  C_17
REMARK    7  A    between atoms: C_16  and  C_18
REMARK    8  A    between atoms: C_19  and  C_20
REMARK    9  A    between atoms: C_22  and  C_29
REMARK                            x       y       z     vdW  Elec       q    Type
REMARK                         _______ _______ _______ _____ _____    ______ ____
ROOT
ATOM      1  N   UNL     1      -0.366   0.185   2.556  0.00  0.00    -0.248 N 
ATOM      2  C   UNL     1      -1.388   0.058   3.607  0.00  0.00    +0.163 C 
ATOM      3  N   UNL     1      -0.980   0.983   4.692  0.00  0.00    -0.281 NA
ATOM      4  C   UNL     1       0.476   1.160   4.437  0.00  0.00    +0.141 C 
ATOM      5  N   UNL     1       0.550   1.128   2.957  0.00  0.00    -0.221 NA
ATOM      6  H   UNL     1      -1.470   1.863   4.620  0.00  0.00    +0.125 HD
ATOM      7  H   UNL     1       1.479   0.885   2.646  0.00  0.00    +0.146 HD
ENDROOT
BRANCH   1  14
ATOM      8  C   UNL     1      -1.494   1.383   0.236  0.00  0.00    +0.046 C 
ATOM      9  C   UNL     1      -0.869   0.013   0.202  0.00  0.00    -0.027 A 
ATOM     10  C   UNL     1      -0.826  -0.698  -0.982  0.00  0.00    +0.025 A 
ATOM     11  C   UNL     1      -0.252  -1.957  -1.014  0.00  0.00    +0.041 A 
ATOM     12  C   UNL     1       0.281  -2.507   0.138  0.00  0.00    +0.022 A 
ATOM     13  C   UNL     1       0.241  -1.801   1.324  0.00  0.00    +0.026 A 
ATOM     14  C   UNL     1      -0.330  -0.535   1.359  0.00  0.00    +0.049 A 
ATOM     15 CL   UNL     1      -0.201  -2.847  -2.504  0.00  0.00    -0.084 Cl
ENDBRANCH   1  14
BRANCH   4  16
ATOM     16  C   UNL     1       0.964   2.504   4.983  0.00  0.00    +0.039 C 
BRANCH  16  17
ATOM     17  C   UNL     1       0.732   2.555   6.495  0.00  0.00    -0.014 C 
ATOM     18  C   UNL     1       1.620   1.517   7.182  0.00  0.00    +0.007 C 
ATOM     19  C   UNL     1       1.080   3.950   7.017  0.00  0.00    +0.007 C 
ENDBRANCH  16  17
ENDBRANCH   4  16
BRANCH   2  20
ATOM     20  C   UNL     1      -1.431  -1.380   4.128  0.00  0.00    +0.082 C 
BRANCH  20  21
ATOM     21  C   UNL     1      -2.502  -1.501   5.182  0.00  0.00    +0.039 A 
ATOM     22  H   UNL     1      -5.588  -2.346   5.588  0.00  0.00    +0.170 HD
ATOM     23  C   UNL     1      -3.739  -1.933   4.854  0.00  0.00    +0.026 A 
ATOM     24  N   UNL     1      -4.699  -2.036   5.824  0.00  0.00    -0.311 N 
ATOM     25  C   UNL     1      -4.423  -1.711   7.100  0.00  0.00    +0.327 A 
ATOM     26  O   UNL     1      -5.291  -1.810   7.945  0.00  0.00    -0.247 OA
ATOM     27  N   UNL     1      -3.199  -1.279   7.454  0.00  0.00    -0.275 N 
ATOM     28  C   UNL     1      -2.223  -1.168   6.530  0.00  0.00    +0.257 A 
ATOM     29  O   UNL     1      -1.113  -0.782   6.850  0.00  0.00    -0.267 OA
ATOM     30  C   UNL     1      -4.060  -2.298   3.428  0.00  0.00    +0.064 C 
ATOM     31  H   UNL     1      -3.016  -1.049   8.379  0.00  0.00    +0.173 HD
ENDBRANCH  20  21
ENDBRANCH   2  20
TORSDOF 5
