REMARK  Name = ZINC33776859
REMARK  8 active torsions:
REMARK  status: ('A' for Active; 'I' for Inactive)
REMARK    1  A    between atoms: C_1  and  C_2
REMARK    2  A    between atoms: C_5  and  C_21
REMARK    3  A    between atoms: C_6  and  C_7
REMARK    4  A    between atoms: C_6  and  C_8
REMARK    5  A    between atoms: N_23  and  C_24
REMARK    6  A    between atoms: C_31  and  C_35
REMARK    7  A    between atoms: C_32  and  C_33
REMARK    8  A    between atoms: C_32  and  C_34
REMARK                            x       y       z     vdW  Elec       q    Type
REMARK                         _______ _______ _______ _____ _____    ______ ____
ROOT
ATOM      1  C   UNL     1       0.344   1.516  -0.264  0.00  0.00    +0.018 C 
ATOM      2  C   UNL     1       0.243  -0.008  -0.177  0.00  0.00    +0.018 C 
ATOM      3  C   UNL     1      -1.182  -0.592   0.079  0.00  0.00    +0.015 C 
ATOM      4  C   UNL     1      -0.915  -2.034   0.572  0.00  0.00    +0.024 C 
ATOM      5  C   UNL     1       0.642  -2.159   0.557  0.00  0.00    +0.096 C 
ATOM      6  C   UNL     1       1.046  -0.701   0.985  0.00  0.00    -0.005 C 
ATOM      7  C   UNL     1       2.551  -0.443   0.886  0.00  0.00    +0.013 C 
ATOM      8  C   UNL     1       0.492  -0.345   2.366  0.00  0.00    +0.013 C 
ATOM      9  C   UNL     1       1.011  -2.113  -0.928  0.00  0.00    +0.079 A 
ATOM     10  C   UNL     1       0.784  -0.790  -1.377  0.00  0.00    +0.071 A 
ATOM     11  N   UNL     1       1.015  -0.443  -2.616  0.00  0.00    -0.248 NA
ATOM     12  C   UNL     1       1.501  -1.348  -3.475  0.00  0.00    +0.091 A 
ATOM     13  C   UNL     1       1.762  -1.007  -4.814  0.00  0.00    +0.051 A 
ATOM     14  C   UNL     1       2.259  -1.947  -5.665  0.00  0.00    +0.061 A 
ATOM     15  C   UNL     1       2.513  -3.248  -5.227  0.00  0.00    +0.061 A 
ATOM     16  C   UNL     1       2.271  -3.613  -3.938  0.00  0.00    +0.051 A 
ATOM     17  C   UNL     1       1.758  -2.670  -3.031  0.00  0.00    +0.091 A 
ATOM     18  N   UNL     1       1.469  -3.026  -1.744  0.00  0.00    -0.247 NA
ATOM     19 CL   UNL     1       3.146  -4.418  -6.343  0.00  0.00    -0.082 Cl
ATOM     20 CL   UNL     1       2.580  -1.521  -7.317  0.00  0.00    -0.082 Cl
ENDROOT
BRANCH   5  21
ATOM     21  C   UNL     1       1.226  -3.286   1.370  0.00  0.00    +0.226 C 
ATOM     22  O   UNL     1       1.981  -3.043   2.287  0.00  0.00    -0.275 OA
ATOM     23  N   UNL     1       0.910  -4.562   1.076  0.00  0.00    -0.311 N 
ATOM     24  H   UNL     1       0.307  -4.756   0.342  0.00  0.00    +0.149 HD
BRANCH  23  25
ATOM     25  C   UNL     1       1.479  -5.658   1.866  0.00  0.00    +0.080 C 
ATOM     26  C   UNL     1       1.493  -6.966   1.042  0.00  0.00    +0.027 C 
ATOM     27  C   UNL     1       0.589  -7.948   1.848  0.00  0.00    -0.003 C 
ATOM     28  C   UNL     1      -0.857  -7.398   1.653  0.00  0.00    +0.005 C 
ATOM     29  C   UNL     1      -0.887  -6.084   2.466  0.00  0.00    +0.009 C 
ATOM     30  C   UNL     1       0.570  -5.971   3.094  0.00  0.00    -0.008 C 
ATOM     31  C   UNL     1       0.900  -7.491   3.317  0.00  0.00    -0.025 C 
ATOM     32  C   UNL     1      -0.042  -8.140   4.332  0.00  0.00    +0.012 C 
ATOM     33  C   UNL     1       2.369  -7.708   3.686  0.00  0.00    +0.012 C 
ATOM     34  C   UNL     1       0.730  -5.043   4.299  0.00  0.00    +0.013 C 
ENDBRANCH  23  25
ENDBRANCH   5  21
TORSDOF 2
