REMARK  Name = ZINC01425897
REMARK  7 active torsions:
REMARK  status: ('A' for Active; 'I' for Inactive)
REMARK    1  A    between atoms: C_1  and  C_2
REMARK    2  A    between atoms: C_3  and  C_25
REMARK    3  A    between atoms: C_7  and  N_11
REMARK    4  A    between atoms: N_11  and  C_12
REMARK    5  A    between atoms: C_12  and  C_13
REMARK    6  A    between atoms: C_13  and  C_14
REMARK    7  A    between atoms: C_15  and  C_24
REMARK                            x       y       z     vdW  Elec       q    Type
REMARK                         _______ _______ _______ _____ _____    ______ ____
ROOT
ATOM      1  N   UNL     1       5.631   3.829  -1.477  0.00  0.00    -0.328 N 
ATOM      2  H   UNL     1       6.130   3.874  -0.646  0.00  0.00    +0.147 HD
ENDROOT
BRANCH   1   9
ATOM      3  C   UNL     1       8.174   3.519  -0.178  0.00  0.00    +0.045 C 
ATOM      4  C   UNL     1       8.654   3.427  -1.604  0.00  0.00    -0.028 A 
ATOM      5  C   UNL     1       9.956   3.249  -1.871  0.00  0.00    -0.008 A 
ATOM      6  S   UNL     1      10.014   3.205  -3.652  0.00  0.00    -0.074 S 
ATOM      7  C   UNL     1       8.288   3.427  -3.990  0.00  0.00    +0.114 A 
ATOM      8  C   UNL     1       7.713   3.536  -2.704  0.00  0.00    +0.051 A 
ATOM      9  C   UNL     1       6.303   3.717  -2.681  0.00  0.00    +0.130 A 
ATOM     10  N   UNL     1       5.641   3.781  -3.825  0.00  0.00    -0.220 NA
ATOM     11  C   UNL     1       6.247   3.678  -4.995  0.00  0.00    +0.224 A 
ATOM     12  N   UNL     1       7.551   3.503  -5.081  0.00  0.00    -0.228 NA
ATOM     13  C   UNL     1      11.099   3.117  -0.897  0.00  0.00    +0.052 C 
ENDBRANCH   1   9
BRANCH   1  14
ATOM     14  C   UNL     1       4.167   3.881  -1.457  0.00  0.00    +0.107 C 
BRANCH  14  15
ATOM     15  C   UNL     1       3.681   4.006  -0.011  0.00  0.00    +0.056 C 
BRANCH  15  16
ATOM     16  C   UNL     1       2.175   4.059   0.010  0.00  0.00    -0.018 A 
ATOM     17  C   UNL     1       1.414   5.163  -0.059  0.00  0.00    +0.017 A 
ATOM     18  N   UNL     1       0.090   4.820  -0.011  0.00  0.00    -0.358 N 
ATOM     19  H   UNL     1      -0.649   5.447  -0.044  0.00  0.00    +0.166 HD
ATOM     20  C   UNL     1      -0.036   3.453   0.092  0.00  0.00    +0.047 A 
ATOM     21  C   UNL     1       1.264   2.916   0.109  0.00  0.00    +0.003 A 
ATOM     22  C   UNL     1       1.447   1.536   0.208  0.00  0.00    +0.010 A 
ATOM     23  C   UNL     1       0.359   0.712   0.287  0.00  0.00    +0.001 A 
ATOM     24  C   UNL     1      -0.926   1.236   0.265  0.00  0.00    +0.002 A 
ATOM     25  C   UNL     1      -1.128   2.596   0.173  0.00  0.00    +0.026 A 
ATOM     26  C   UNL     1       1.940   6.570  -0.171  0.00  0.00    +0.063 C 
ENDBRANCH  15  16
ENDBRANCH  14  15
ENDBRANCH   1  14
TORSDOF 4
