REMARK  Name = ZINC44444834
REMARK  5 active torsions:
REMARK  status: ('A' for Active; 'I' for Inactive)
REMARK    1  A    between atoms: C_1  and  C_2
REMARK    2  A    between atoms: N_7  and  C_8
REMARK    3  A    between atoms: C_8  and  C_9
REMARK    4  A    between atoms: C_14  and  C_16
REMARK    5  A    between atoms: C_19  and  N_23
REMARK                            x       y       z     vdW  Elec       q    Type
REMARK                         _______ _______ _______ _____ _____    ______ ____
ROOT
ATOM      1  C   UNL     1       1.138  -1.306   4.971  0.00  0.00    +0.075 C 
ATOM      2  C   UNL     1       0.753  -2.213   3.831  0.00  0.00    +0.101 A 
ATOM      3  N   UNL     1       0.905  -2.051   2.532  0.00  0.00    -0.145 NA
ATOM      4  N   UNL     1       0.524  -2.918   1.698  0.00  0.00    -0.125 NA
ATOM      5  C   UNL     1      -0.054  -4.048   2.079  0.00  0.00    +0.191 A 
ATOM      6  S   UNL     1      -0.031  -3.822   3.856  0.00  0.00    -0.035 S 
ATOM      7  N   UNL     1      -0.534  -5.108   1.319  0.00  0.00    -0.241 N 
ATOM      8  C   UNL     1      -0.967  -6.231   1.926  0.00  0.00    +0.254 C 
ATOM      9  O   UNL     1      -0.991  -6.296   3.139  0.00  0.00    -0.270 OA
ENDROOT
BRANCH   8  10
ATOM     10  C   UNL     1      -1.412  -7.383   1.115  0.00  0.00    +0.056 A 
ATOM     11  C   UNL     1      -1.001  -7.508  -0.213  0.00  0.00    +0.017 A 
ATOM     12  C   UNL     1      -1.421  -8.585  -0.964  0.00  0.00    +0.033 A 
ATOM     13  C   UNL     1      -2.248  -9.543  -0.404  0.00  0.00    +0.128 A 
ATOM     14  C   UNL     1      -2.660  -9.428   0.911  0.00  0.00    +0.053 A 
ATOM     15  C   UNL     1      -2.243  -8.357   1.677  0.00  0.00    +0.055 A 
ATOM     16 CL   UNL     1      -2.754  -8.216   3.330  0.00  0.00    -0.083 Cl
BRANCH  13  17
ATOM     17  N   UNL     1      -2.695 -10.697  -1.217  0.00  0.00    +0.056 N 
ATOM     18  O   UNL     1      -2.337 -10.801  -2.367  0.00  0.00    -0.126 OA
ATOM     19  O   UNL     1      -3.418 -11.535  -0.731  0.00  0.00    -0.126 OA
ENDBRANCH  13  17
ENDBRANCH   8  10
BRANCH   7  20
ATOM     20  C   UNL     1      -0.569  -5.004  -0.142  0.00  0.00    +0.151 C 
BRANCH  20  21
ATOM     21  C   UNL     1       0.784  -5.358  -0.703  0.00  0.00    -0.023 A 
ATOM     22  C   UNL     1       1.199  -4.838  -1.915  0.00  0.00    +0.013 A 
ATOM     23  C   UNL     1       2.422  -5.176  -2.392  0.00  0.00    +0.045 A 
ATOM     24  S   UNL     1       3.030  -6.261  -1.111  0.00  0.00    -0.105 S 
ATOM     25  C   UNL     1       1.616  -6.186  -0.024  0.00  0.00    +0.050 A 
ENDBRANCH  20  21
ENDBRANCH   7  20
TORSDOF 4
