REMARK  Name = ZINC65486646
REMARK  7 active torsions:
REMARK  status: ('A' for Active; 'I' for Inactive)
REMARK    1  A    between atoms: C_1  and  C_2
REMARK    2  A    between atoms: C_3  and  C_9
REMARK    3  A    between atoms: C_4  and  C_8
REMARK    4  A    between atoms: N_5  and  C_7
REMARK    5  A    between atoms: C_9  and  C_10
REMARK    6  A    between atoms: C_9  and  N_11
REMARK    7  A    between atoms: C_18  and  C_19
REMARK                            x       y       z     vdW  Elec       q    Type
REMARK                         _______ _______ _______ _____ _____    ______ ____
ROOT
ATOM      1  N   UNL     1       0.901   1.319  -2.498  0.00  0.00    -0.293 N 
ATOM      2  C   UNL     1       1.411   1.371  -3.744  0.00  0.00    +0.303 C 
ATOM      3  O   UNL     1       0.976   0.635  -4.610  0.00  0.00    -0.253 OA
ATOM      4  N   UNL     1       2.402   2.237  -4.032  0.00  0.00    -0.282 N 
ATOM      5  C   UNL     1       2.955   3.247  -3.111  0.00  0.00    +0.110 C 
ATOM      6  C   UNL     1       4.386   3.521  -3.636  0.00  0.00    +0.021 C 
ATOM      7  C   UNL     1       4.176   3.440  -5.171  0.00  0.00    +0.024 C 
ATOM      8  C   UNL     1       3.116   2.328  -5.314  0.00  0.00    +0.081 C 
ATOM      9  H   UNL     1       1.248   1.906  -1.808  0.00  0.00    +0.151 HD
ENDROOT
BRANCH   8  10
ATOM     10  C   UNL     1       2.135   2.688  -6.432  0.00  0.00    +0.010 C 
ATOM     11  C   UNL     1       2.891   2.847  -7.767  0.00  0.00    +0.005 C 
ATOM     12  C   UNL     1       2.170   4.021  -8.474  0.00  0.00    +0.000 C 
ATOM     13  C   UNL     1       1.853   4.983  -7.302  0.00  0.00    +0.000 C 
ATOM     14  C   UNL     1       1.475   4.046  -6.136  0.00  0.00    +0.005 C 
ENDBRANCH   8  10
BRANCH   1  15
ATOM     15  C   UNL     1      -0.177   0.378  -2.185  0.00  0.00    +0.105 C 
ATOM     16  C   UNL     1      -1.524   1.004  -2.552  0.00  0.00    +0.033 C 
BRANCH  15  19
ATOM     17  C   UNL     1       0.152   2.475   0.167  0.00  0.00    +0.068 C 
ATOM     18  C   UNL     1      -0.011   0.985   0.327  0.00  0.00    +0.065 A 
ATOM     19  C   UNL     1      -0.155   0.060  -0.712  0.00  0.00    +0.016 A 
ATOM     20  C   UNL     1      -0.273  -1.170  -0.161  0.00  0.00    +0.041 A 
ATOM     21  N   UNL     1      -0.205  -1.028   1.179  0.00  0.00    -0.271 N 
ATOM     22  N   UNL     1      -0.035   0.334   1.461  0.00  0.00    -0.176 NA
ATOM     23  C   UNL     1      -0.289  -2.108   2.166  0.00  0.00    +0.172 C 
ATOM     24  C   UNL     1      -0.448  -2.466  -0.910  0.00  0.00    +0.065 C 
ENDBRANCH  15  19
ENDBRANCH   1  15
TORSDOF 3
