REMARK  Name = ZINC07608298
REMARK  4 active torsions:
REMARK  status: ('A' for Active; 'I' for Inactive)
REMARK    1  A    between atoms: C_1  and  C_2
REMARK    2  A    between atoms: C_2  and  C_4
REMARK    3  A    between atoms: C_2  and  N_17
REMARK    4  A    between atoms: N_6  and  C_7
REMARK                            x       y       z     vdW  Elec       q    Type
REMARK                         _______ _______ _______ _____ _____    ______ ____
ROOT
ATOM      1  C   UNL     1      -2.112   5.752  -0.958  0.00  0.00    +0.234 C 
ATOM      2  O   UNL     1      -2.637   5.143  -1.866  0.00  0.00    -0.274 OA
ATOM      3  N   UNL     1      -1.510   5.081   0.044  0.00  0.00    -0.308 N 
ATOM      4  H   UNL     1      -1.089   5.567   0.770  0.00  0.00    +0.149 HD
ENDROOT
BRANCH   3   5
ATOM      5  C   UNL     1      -1.490   3.616   0.036  0.00  0.00    +0.035 C 
ATOM      6  C   UNL     1      -0.773   3.123  -1.223  0.00  0.00    +0.029 C 
ATOM      7  C   UNL     1      -0.753   1.593  -1.232  0.00  0.00    -0.008 C 
ATOM      8  C   UNL     1      -0.013   1.086   0.008  0.00  0.00    +0.007 C 
ATOM      9  C   UNL     1      -0.729   1.579   1.267  0.00  0.00    -0.008 C 
ATOM     10  C   UNL     1      -0.750   3.109   1.275  0.00  0.00    +0.029 C 
ATOM     11  C   UNL     1      -2.164   1.050   1.278  0.00  0.00    +0.007 C 
ATOM     12  C   UNL     1      -2.904   1.556   0.038  0.00  0.00    -0.008 C 
ATOM     13  C   UNL     1      -2.188   1.063  -1.221  0.00  0.00    +0.007 C 
ATOM     14  C   UNL     1      -2.925   3.086   0.047  0.00  0.00    +0.029 C 
ENDBRANCH   3   5
BRANCH   1  16
ATOM     15  C   UNL     1      -2.848   7.752   0.309  0.00  0.00    +0.038 C 
ATOM     16  C   UNL     1      -2.132   7.259  -0.950  0.00  0.00    +0.167 C 
BRANCH  16  17
ATOM     17  N   UNL     1      -2.841   7.744  -2.136  0.00  0.00    -0.222 N 
ATOM     18  C   UNL     1      -4.121   7.455  -2.430  0.00  0.00    +0.254 C 
ATOM     19  O   UNL     1      -4.862   6.760  -1.763  0.00  0.00    -0.270 OA
ATOM     20  C   UNL     1      -4.477   8.125  -3.698  0.00  0.00    +0.049 A 
ATOM     21  C   UNL     1      -5.626   8.189  -4.470  0.00  0.00    +0.014 A 
ATOM     22  C   UNL     1      -5.625   8.925  -5.645  0.00  0.00    +0.001 A 
ATOM     23  C   UNL     1      -4.486   9.594  -6.051  0.00  0.00    +0.001 A 
ATOM     24  C   UNL     1      -3.329   9.539  -5.289  0.00  0.00    +0.014 A 
ATOM     25  C   UNL     1      -3.316   8.808  -4.112  0.00  0.00    +0.049 A 
ATOM     26  C   UNL     1      -2.295   8.534  -3.079  0.00  0.00    +0.254 C 
ATOM     27  O   UNL     1      -1.154   8.951  -3.081  0.00  0.00    -0.270 OA
ENDBRANCH  16  17
ENDBRANCH   1  16
TORSDOF 3
