REMARK  Name = ZINC09292117
REMARK  6 active torsions:
REMARK  status: ('A' for Active; 'I' for Inactive)
REMARK    1  A    between atoms: C_1  and  C_2
REMARK    2  A    between atoms: C_12  and  C_32
REMARK    3  A    between atoms: C_14  and  C_15
REMARK    4  A    between atoms: C_15  and  C_16
REMARK    5  A    between atoms: C_23  and  C_26
REMARK    6  A    between atoms: C_35  and  O_38
REMARK                            x       y       z     vdW  Elec       q    Type
REMARK                         _______ _______ _______ _____ _____    ______ ____
ROOT
ATOM      1  C   UNL     1       2.002   0.735  -2.288  0.00  0.00    +0.044 C 
ATOM      2  C   UNL     1       1.797  -0.716  -1.935  0.00  0.00    -0.049 A 
ATOM      3  C   UNL     1       2.034  -1.706  -2.877  0.00  0.00    +0.005 A 
ATOM      4  C   UNL     1       1.855  -3.033  -2.582  0.00  0.00    +0.029 A 
ATOM      5  C   UNL     1       1.419  -3.435  -1.298  0.00  0.00    +0.080 A 
ATOM      6  C   UNL     1       1.188  -2.399  -0.364  0.00  0.00    +0.041 A 
ATOM      7  C   UNL     1       1.376  -1.073  -0.667  0.00  0.00    +0.020 A 
ATOM      8  S   UNL     1       0.670  -3.297   1.078  0.00  0.00    -0.052 S 
ATOM      9  C   UNL     1       0.789  -4.937   0.376  0.00  0.00    +0.169 A 
ATOM     10  N   UNL     1       1.196  -4.688  -0.848  0.00  0.00    -0.224 NA
ATOM     11  N   UNL     1       0.522  -6.157   0.970  0.00  0.00    -0.232 N 
ATOM     12  C   UNL     1       0.647  -7.474   0.334  0.00  0.00    +0.152 C 
ATOM     13  C   UNL     1       0.247  -8.487   1.381  0.00  0.00    +0.077 C 
ATOM     14  C   UNL     1      -0.070  -7.790   2.497  0.00  0.00    +0.250 C 
ATOM     15  O   UNL     1      -0.481  -8.330   3.668  0.00  0.00    -0.282 OA
ATOM     16  C   UNL     1       0.108  -6.347   2.236  0.00  0.00    +0.293 C 
ATOM     17  O   UNL     1      -0.092  -5.463   3.045  0.00  0.00    -0.266 OA
ENDROOT
BRANCH  12  18
ATOM     18  C   UNL     1       2.072  -7.708  -0.097  0.00  0.00    -0.022 A 
ATOM     19  C   UNL     1       3.113  -7.364   0.746  0.00  0.00    +0.009 A 
ATOM     20  C   UNL     1       4.420  -7.577   0.353  0.00  0.00    +0.046 A 
ATOM     21  C   UNL     1       4.688  -8.138  -0.887  0.00  0.00    +0.117 A 
ATOM     22  C   UNL     1       3.642  -8.483  -1.730  0.00  0.00    +0.046 A 
ATOM     23  C   UNL     1       2.336  -8.273  -1.331  0.00  0.00    +0.009 A 
BRANCH  21  24
ATOM     24  O   UNL     1       5.973  -8.349  -1.276  0.00  0.00    -0.507 OA
ATOM     25  H   UNL     1       6.322  -9.217  -1.028  0.00  0.00    +0.292 HD
ENDBRANCH  21  24
ENDBRANCH  12  18
BRANCH  13  26
ATOM     26  C   UNL     1       0.211  -9.944   1.219  0.00  0.00    +0.195 C 
ATOM     27  O   UNL     1       0.953 -10.648   1.878  0.00  0.00    -0.287 OA
BRANCH  26  28
ATOM     28  C   UNL     1      -0.727 -10.556   0.258  0.00  0.00    +0.023 A 
ATOM     29  C   UNL     1      -1.659  -9.764  -0.421  0.00  0.00    +0.015 A 
ATOM     30  C   UNL     1      -2.528 -10.335  -1.319  0.00  0.00    +0.046 A 
ATOM     31  C   UNL     1      -2.491 -11.710  -1.563  0.00  0.00    +0.124 A 
ATOM     32  C   UNL     1      -1.566 -12.495  -0.879  0.00  0.00    -0.002 A 
ATOM     33  C   UNL     1      -0.686 -11.933   0.013  0.00  0.00    +0.019 A 
ATOM     34  C   UNL     1      -1.781 -13.927  -1.329  0.00  0.00    +0.083 C 
ATOM     35  C   UNL     1      -3.167 -13.842  -2.011  0.00  0.00    +0.175 C 
ATOM     36  O   UNL     1      -3.244 -12.463  -2.408  0.00  0.00    -0.488 OA
ATOM     37  C   UNL     1      -3.229 -14.765  -3.229  0.00  0.00    +0.052 C 
ENDBRANCH  26  28
ENDBRANCH  13  26
TORSDOF 4
