REMARK  Name = ZINC39394189
REMARK  7 active torsions:
REMARK  status: ('A' for Active; 'I' for Inactive)
REMARK    1  A    between atoms: C_1  and  N_2
REMARK    2  A    between atoms: C_10  and  C_12
REMARK    3  A    between atoms: C_12  and  C_13
REMARK    4  A    between atoms: C_13  and  N_14
REMARK    5  A    between atoms: N_14  and  C_15
REMARK    6  A    between atoms: C_15  and  C_16
REMARK    7  A    between atoms: C_21  and  C_22
REMARK                            x       y       z     vdW  Elec       q    Type
REMARK                         _______ _______ _______ _____ _____    ______ ____
ROOT
ATOM      1  N   UNL     1       2.501  -1.288   4.025  0.00  0.00    +0.380 N 
ATOM      2  H   UNL     1       3.318  -1.470   3.462  0.00  0.00    -0.086 HD
ATOM      3  H   UNL     1       2.510  -0.326   4.329  0.00  0.00    -0.086 HD
ENDROOT
BRANCH   1   4
ATOM      4  C   UNL     1       1.292  -1.539   3.230  0.00  0.00    -0.079 C 
BRANCH   4   5
ATOM      5  C   UNL     1       1.285  -0.618   2.008  0.00  0.00    +0.023 C 
BRANCH   5  15
ATOM      6  C   UNL     1      -0.018   1.461   0.010  0.00  0.00    +0.131 C 
ATOM      7  N   UNL     1       0.002  -0.004   0.002  0.00  0.00    -0.313 N 
ATOM      8  C   UNL     1       0.009  -0.828  -1.132  0.00  0.00    +0.052 A 
ATOM      9  C   UNL     1      -0.002  -0.504  -2.483  0.00  0.00    +0.025 A 
ATOM     10  C   UNL     1       0.007  -1.504  -3.437  0.00  0.00    +0.002 A 
ATOM     11  C   UNL     1       0.026  -2.832  -3.050  0.00  0.00    +0.002 A 
ATOM     12  C   UNL     1       0.037  -3.163  -1.709  0.00  0.00    +0.025 A 
ATOM     13  C   UNL     1       0.028  -2.164  -0.743  0.00  0.00    +0.050 A 
ATOM     14  N   UNL     1       0.035  -2.251   0.656  0.00  0.00    -0.324 N 
ATOM     15  C   UNL     1       0.025  -0.880   1.179  0.00  0.00    +0.156 C 
ATOM     16  H   UNL     1       0.048  -3.067   1.181  0.00  0.00    +0.148 HD
ENDBRANCH   5  15
ENDBRANCH   4   5
ENDBRANCH   1   4
BRANCH   1  17
ATOM     17  C   UNL     1       2.508  -2.172   5.198  0.00  0.00    -0.067 C 
BRANCH  17  18
ATOM     18  C   UNL     1       3.768  -1.910   6.027  0.00  0.00    +0.066 C 
ATOM     19  C   UNL     1       5.003  -2.375   5.282  0.00  0.00    +0.115 C 
ATOM     20  N   UNL     1       5.540  -3.295   6.015  0.00  0.00    -0.161 NA
ATOM     21  N   UNL     1       4.824  -3.529   7.185  0.00  0.00    -0.153 NA
ATOM     22  C   UNL     1       3.769  -2.761   7.281  0.00  0.00    +0.077 C 
BRANCH  22  23
ATOM     23  C   UNL     1       2.787  -2.729   8.375  0.00  0.00    +0.002 A 
ATOM     24  C   UNL     1       1.703  -1.847   8.320  0.00  0.00    +0.013 A 
ATOM     25  C   UNL     1       0.784  -1.820   9.346  0.00  0.00    +0.050 A 
ATOM     26  C   UNL     1       0.930  -2.666  10.437  0.00  0.00    +0.166 A 
ATOM     27  C   UNL     1       2.009  -3.549  10.499  0.00  0.00    +0.167 A 
ATOM     28  C   UNL     1       2.931  -3.586   9.472  0.00  0.00    +0.059 A 
ATOM     29  O   UNL     1       1.922  -4.261  11.661  0.00  0.00    -0.453 OA
ATOM     30  C   UNL     1       1.013  -3.522  12.498  0.00  0.00    +0.466 C 
ATOM     31  O   UNL     1       0.171  -2.828  11.559  0.00  0.00    -0.453 OA
ENDBRANCH  22  23
ENDBRANCH  17  18
ENDBRANCH   1  17
TORSDOF 6
