REMARK  Name = ZINC41661348
REMARK  4 active torsions:
REMARK  status: ('A' for Active; 'I' for Inactive)
REMARK    1  A    between atoms: C_1  and  C_2
REMARK    2  A    between atoms: C_2  and  C_3
REMARK    3  A    between atoms: C_2  and  N_4
REMARK    4  A    between atoms: C_14  and  C_15
REMARK                            x       y       z     vdW  Elec       q    Type
REMARK                         _______ _______ _______ _____ _____    ______ ____
ROOT
ATOM      1  N   UNL     1       1.738  -0.218  -1.103  0.00  0.00    -0.264 NA
ATOM      2  C   UNL     1       1.645  -1.684  -1.062  0.00  0.00    +0.130 C 
ATOM      3  C   UNL     1       1.877  -2.244  -2.442  0.00  0.00    +0.051 A 
ATOM      4  C   UNL     1       1.776  -1.438  -3.562  0.00  0.00    +0.130 A 
ATOM      5  C   UNL     1       1.989  -1.968  -4.835  0.00  0.00    +0.047 A 
ATOM      6  C   UNL     1       2.301  -3.288  -4.988  0.00  0.00    +0.019 A 
ATOM      7  C   UNL     1       2.408  -4.112  -3.867  0.00  0.00    +0.068 A 
ATOM      8  C   UNL     1       2.195  -3.591  -2.581  0.00  0.00    +0.147 A 
ATOM      9  O   UNL     1       2.352  -4.569  -1.662  0.00  0.00    -0.451 OA
ATOM     10  C   UNL     1       2.666  -5.754  -2.237  0.00  0.00    +0.176 C 
ATOM     11  C   UNL     1       2.887  -6.926  -1.589  0.00  0.00    +0.058 C 
ATOM     12  C   UNL     1       2.722  -5.541  -3.691  0.00  0.00    +0.231 C 
ATOM     13  O   UNL     1       2.973  -6.362  -4.556  0.00  0.00    -0.283 OA
ATOM     14  O   UNL     1       1.472  -0.118  -3.443  0.00  0.00    -0.476 OA
ATOM     15  C   UNL     1       0.910   0.311  -2.200  0.00  0.00    +0.319 C 
ENDROOT
BRANCH  11  16
ATOM     16  C   UNL     1       2.660  -7.019  -0.142  0.00  0.00    -0.018 A 
ATOM     17  C   UNL     1       2.052  -5.960   0.543  0.00  0.00    +0.012 A 
ATOM     18  C   UNL     1       1.840  -6.050   1.901  0.00  0.00    +0.050 A 
ATOM     19  C   UNL     1       2.227  -7.189   2.595  0.00  0.00    +0.166 A 
ATOM     20  C   UNL     1       2.834  -8.250   1.919  0.00  0.00    +0.167 A 
ATOM     21  C   UNL     1       3.045  -8.170   0.558  0.00  0.00    +0.057 A 
ATOM     22  O   UNL     1       3.114  -9.237   2.820  0.00  0.00    -0.453 OA
ATOM     23  C   UNL     1       3.047  -8.607   4.113  0.00  0.00    +0.466 C 
ATOM     24  O   UNL     1       2.128  -7.516   3.916  0.00  0.00    -0.453 OA
ENDBRANCH  11  16
BRANCH   1  26
ATOM     25  C   UNL     1       1.545   1.887   0.133  0.00  0.00    +0.024 C 
ATOM     26  C   UNL     1       1.345   0.371   0.184  0.00  0.00    +0.054 C 
ATOM     27  C   UNL     1      -0.128   0.060   0.458  0.00  0.00    +0.024 C 
ENDBRANCH   1  26
TORSDOF 2
