REMARK  Name = ZINC14633322
REMARK  10 active torsions:
REMARK  status: ('A' for Active; 'I' for Inactive)
REMARK    1  A    between atoms: C_1  and  C_2
REMARK    2  A    between atoms: C_2  and  N_44
REMARK    3  A    between atoms: C_3  and  C_4
REMARK    4  A    between atoms: C_3  and  N_44
REMARK    5  A    between atoms: C_5  and  C_7
REMARK    6  A    between atoms: C_5  and  C_17
REMARK    7  A    between atoms: C_5  and  N_44
REMARK    8  A    between atoms: C_7  and  N_8
REMARK    9  A    between atoms: N_8  and  S_9
REMARK   10  A    between atoms: S_9  and  C_12
REMARK                            x       y       z     vdW  Elec       q    Type
REMARK                         _______ _______ _______ _____ _____    ______ ____
ROOT
ATOM      1  C   UNL     1      -2.612  -1.384   3.869  0.00  0.00    -0.021 C 
ENDROOT
BRANCH   1   2
ATOM      2  C   UNL     1      -2.975  -0.129   4.620  0.00  0.00    -0.041 A 
ATOM      3  C   UNL     1      -4.223   0.441   4.451  0.00  0.00    +0.003 A 
ATOM      4  C   UNL     1      -4.558   1.590   5.142  0.00  0.00    +0.000 A 
ATOM      5  C   UNL     1      -3.641   2.176   5.996  0.00  0.00    +0.001 A 
ATOM      6  C   UNL     1      -2.391   1.610   6.161  0.00  0.00    +0.020 A 
ATOM      7  C   UNL     1      -2.057   0.457   5.473  0.00  0.00    +0.043 A 
ATOM      8 CL   UNL     1      -0.487  -0.253   5.680  0.00  0.00    -0.083 Cl
ENDBRANCH   1   2
BRANCH   1   9
ATOM      9  N   UNL     1      -3.851  -1.985   3.334  0.00  0.00    +0.385 N 
ATOM     10  H   UNL     1      -4.652  -1.637   3.875  0.00  0.00    -0.081 HD
BRANCH   9  12
ATOM     11  C   UNL     1      -4.575  -0.177   1.858  0.00  0.00    -0.017 C 
ATOM     12  C   UNL     1      -4.027  -1.604   1.917  0.00  0.00    -0.081 C 
ENDBRANCH   9  12
BRANCH   9  13
ATOM     13  C   UNL     1      -3.793  -3.457   3.458  0.00  0.00    -0.081 C 
ATOM     14  C   UNL     1      -4.033  -3.836   4.921  0.00  0.00    -0.017 C 
ENDBRANCH   9  13
ENDBRANCH   1   9
BRANCH   1  15
ATOM     15  C   UNL     1      -1.654  -1.037   2.728  0.00  0.00    +0.095 C 
BRANCH  15  16
ATOM     16  N   UNL     1      -1.288  -2.260   2.009  0.00  0.00    -0.191 NA
ATOM     17  H   UNL     1      -1.447  -3.127   2.414  0.00  0.00    +0.148 HD
BRANCH  16  18
ATOM     18  S   UNL     1      -0.603  -2.162   0.504  0.00  0.00    +0.065 S 
ATOM     19  O   UNL     1      -1.411  -1.273  -0.253  0.00  0.00    -0.153 OA
ATOM     20  O   UNL     1      -0.342  -3.496   0.089  0.00  0.00    -0.153 OA
BRANCH  18  21
ATOM     21  C   UNL     1       0.964  -1.379   0.695  0.00  0.00    +0.142 A 
ATOM     22  C   UNL     1       2.175  -1.939   0.933  0.00  0.00    +0.036 A 
ATOM     23  C   UNL     1       3.282  -1.120   1.048  0.00  0.00    +0.010 A 
ATOM     24  C   UNL     1       3.124   0.221   0.919  0.00  0.00    +0.047 A 
ATOM     25  S   UNL     1       1.368   0.359   0.627  0.00  0.00    -0.077 S 
ENDBRANCH  18  21
ENDBRANCH  16  18
ENDBRANCH  15  16
ENDBRANCH   1  15
TORSDOF 8
