REMARK  Name = ZINC36698098
REMARK  11 active torsions:
REMARK  status: ('A' for Active; 'I' for Inactive)
REMARK    1  A    between atoms: C_1  and  C_2
REMARK    2  A    between atoms: N_11  and  C_12
REMARK    3  A    between atoms: C_12  and  C_13
REMARK    4  A    between atoms: C_13  and  C_14
REMARK    5  A    between atoms: C_14  and  N_15
REMARK    6  A    between atoms: N_15  and  C_16
REMARK    7  A    between atoms: N_15  and  C_17
REMARK    8  A    between atoms: C_18  and  C_20
REMARK    9  A    between atoms: C_20  and  C_21
REMARK   10  A    between atoms: C_21  and  S_22
REMARK   11  A    between atoms: S_22  and  C_25
REMARK                            x       y       z     vdW  Elec       q    Type
REMARK                         _______ _______ _______ _____ _____    ______ ____
ROOT
ATOM      1  C   UNL     1      -0.018   1.503   0.010  0.00  0.00    +0.047 C 
ATOM      2  C   UNL     1       0.002  -0.004   0.002  0.00  0.00    -0.006 A 
ATOM      3  C   UNL     1       0.006  -0.676  -1.194  0.00  0.00    +0.046 A 
ATOM      4  C   UNL     1       0.025  -2.063  -1.246  0.00  0.00    +0.021 A 
ATOM      5  C   UNL     1       0.041  -2.785  -0.066  0.00  0.00    +0.019 A 
ATOM      6  C   UNL     1       0.037  -2.121   1.135  0.00  0.00    +0.041 A 
ATOM      7  C   UNL     1       0.023  -0.710   1.227  0.00  0.00    +0.085 A 
ATOM      8  N   UNL     1       0.028  -0.206   2.480  0.00  0.00    -0.224 NA
ATOM      9  C   UNL     1       0.048  -0.969   3.547  0.00  0.00    +0.168 A 
ATOM     10  S   UNL     1       0.052  -2.611   2.842  0.00  0.00    -0.052 S 
ATOM     11  N   UNL     1       0.054  -0.596   4.882  0.00  0.00    -0.250 N 
ATOM     12  C   UNL     1       0.039   0.709   5.217  0.00  0.00    +0.223 C 
ATOM     13  O   UNL     1       0.020   1.557   4.351  0.00  0.00    -0.275 OA
ATOM     14 CL   UNL     1      -0.015   0.229  -2.675  0.00  0.00    -0.083 Cl
ENDROOT
BRANCH  11  15
ATOM     15  C   UNL     1       0.078  -1.621   5.928  0.00  0.00    +0.114 C 
BRANCH  15  16
ATOM     16  C   UNL     1       1.528  -1.958   6.280  0.00  0.00    +0.001 C 
BRANCH  16  17
ATOM     17  C   UNL     1       1.553  -3.028   7.373  0.00  0.00    -0.078 C 
BRANCH  17  18
ATOM     18  N   UNL     1       2.946  -3.352   7.710  0.00  0.00    +0.376 N 
ATOM     19  C   UNL     1       2.971  -4.290   8.841  0.00  0.00    -0.097 C 
ATOM     20  C   UNL     1       3.601  -3.967   6.548  0.00  0.00    -0.097 C 
ATOM     21  H   UNL     1       3.435  -2.506   7.964  0.00  0.00    -0.083 HD
ENDBRANCH  17  18
ENDBRANCH  16  17
ENDBRANCH  15  16
ENDBRANCH  11  15
BRANCH  12  22
ATOM     22  C   UNL     1       0.046   1.114   6.669  0.00  0.00    +0.119 C 
BRANCH  22  23
ATOM     23  C   UNL     1       0.026   2.640   6.772  0.00  0.00    +0.181 C 
BRANCH  23  24
ATOM     24  S   UNL     1       0.035   3.128   8.519  0.00  0.00    -0.003 S 
ATOM     25  O   UNL     1      -1.189   2.756   9.138  0.00  0.00    -0.169 OA
ATOM     26  O   UNL     1       1.280   2.790   9.116  0.00  0.00    -0.169 OA
BRANCH  24  27
ATOM     27  C   UNL     1       0.010   4.890   8.498  0.00  0.00    +0.088 A 
ATOM     28  C   UNL     1       1.198   5.597   8.473  0.00  0.00    +0.028 A 
ATOM     29  C   UNL     1       1.179   6.979   8.456  0.00  0.00    +0.022 A 
ATOM     30  C   UNL     1      -0.029   7.655   8.464  0.00  0.00    +0.041 A 
ATOM     31  C   UNL     1      -1.217   6.946   8.489  0.00  0.00    +0.022 A 
ATOM     32  C   UNL     1      -1.197   5.564   8.500  0.00  0.00    +0.028 A 
ATOM     33 CL   UNL     1      -0.053   9.390   8.443  0.00  0.00    -0.084 Cl
ENDBRANCH  24  27
ENDBRANCH  23  24
ENDBRANCH  22  23
ENDBRANCH  12  22
TORSDOF 8
