REMARK  Name = ZINC12370965
REMARK  7 active torsions:
REMARK  status: ('A' for Active; 'I' for Inactive)
REMARK    1  A    between atoms: C_1  and  O_2
REMARK    2  A    between atoms: O_2  and  C_3
REMARK    3  A    between atoms: C_6  and  C_9
REMARK    4  A    between atoms: N_12  and  C_13
REMARK    5  A    between atoms: C_16  and  O_19
REMARK    6  A    between atoms: O_19  and  C_20
REMARK    7  A    between atoms: C_23  and  O_28
REMARK                            x       y       z     vdW  Elec       q    Type
REMARK                         _______ _______ _______ _____ _____    ______ ____
ROOT
ATOM      1  C   UNL     1      -4.987  -2.618  -0.253  0.00  0.00    +0.138 A 
ATOM      2  C   UNL     1      -5.008  -3.975  -0.237  0.00  0.00    +0.073 A 
ATOM      3  C   UNL     1      -6.228  -4.652   0.029  0.00  0.00    +0.054 A 
ATOM      4  N   UNL     1      -6.291  -5.973   0.054  0.00  0.00    -0.354 N 
ATOM      5  C   UNL     1      -7.426  -3.819   0.278  0.00  0.00    +0.044 A 
ATOM      6  C   UNL     1      -8.663  -4.396   0.548  0.00  0.00    +0.059 A 
ATOM      7  C   UNL     1      -9.760  -3.584   0.776  0.00  0.00    +0.118 A 
ATOM      8  C   UNL     1      -9.624  -2.201   0.735  0.00  0.00    +0.049 A 
ATOM      9  C   UNL     1      -8.400  -1.623   0.468  0.00  0.00    +0.050 A 
ATOM     10  C   UNL     1      -7.290  -2.424   0.238  0.00  0.00    +0.138 A 
ATOM     11  O   UNL     1      -6.082  -1.874  -0.020  0.00  0.00    -0.455 OA
ATOM     12  H   UNL     1      -7.149  -6.417   0.148  0.00  0.00    +0.166 HD
ENDROOT
BRANCH   1  16
ATOM     13  C   UNL     1      -1.313  -0.644  -1.053  0.00  0.00    +0.120 A 
ATOM     14  C   UNL     1      -2.461   0.100  -0.809  0.00  0.00    +0.046 A 
ATOM     15  C   UNL     1      -3.655  -0.536  -0.549  0.00  0.00    +0.015 A 
ATOM     16  C   UNL     1      -3.711  -1.932  -0.531  0.00  0.00    +0.018 A 
ATOM     17  C   UNL     1      -2.554  -2.677  -0.777  0.00  0.00    +0.015 A 
ATOM     18  C   UNL     1      -1.365  -2.033  -1.042  0.00  0.00    +0.046 A 
BRANCH  13  20
ATOM     19  C   UNL     1      -0.155   1.416  -1.304  0.00  0.00    +0.277 C 
ATOM     20  O   UNL     1      -0.138  -0.013  -1.308  0.00  0.00    -0.495 OA
ENDBRANCH  13  20
ENDBRANCH   1  16
BRANCH   4  21
ATOM     21  C   UNL     1      -5.149  -6.713  -0.053  0.00  0.00    +0.040 A 
ATOM     22  C   UNL     1      -4.098  -6.515   0.848  0.00  0.00    +0.029 A 
ATOM     23  C   UNL     1      -2.946  -7.265   0.735  0.00  0.00    +0.047 A 
ATOM     24  C   UNL     1      -2.829  -8.215  -0.270  0.00  0.00    +0.120 A 
ATOM     25  C   UNL     1      -3.870  -8.416  -1.167  0.00  0.00    +0.047 A 
ATOM     26  C   UNL     1      -5.028  -7.675  -1.060  0.00  0.00    +0.029 A 
BRANCH  24  27
ATOM     27  O   UNL     1      -1.692  -8.952  -0.377  0.00  0.00    -0.495 OA
ATOM     28  C   UNL     1      -1.637  -9.912  -1.434  0.00  0.00    +0.277 C 
ENDBRANCH  24  27
ENDBRANCH   4  21
BRANCH   7  29
ATOM     29  O   UNL     1     -10.973  -4.139   1.041  0.00  0.00    -0.507 OA
ATOM     30  H   UNL     1     -11.138  -4.293   1.981  0.00  0.00    +0.292 HD
ENDBRANCH   7  29
TORSDOF 5
