REMARK  Name = ZINC27520681
REMARK  7 active torsions:
REMARK  status: ('A' for Active; 'I' for Inactive)
REMARK    1  A    between atoms: C_1  and  C_2
REMARK    2  A    between atoms: C_4  and  C_32
REMARK    3  A    between atoms: C_6  and  N_8
REMARK    4  A    between atoms: C_14  and  C_15
REMARK    5  A    between atoms: C_18  and  O_21
REMARK    6  A    between atoms: O_21  and  C_22
REMARK    7  A    between atoms: C_22  and  C_23
REMARK                            x       y       z     vdW  Elec       q    Type
REMARK                         _______ _______ _______ _____ _____    ______ ____
ROOT
ATOM      1  N   UNL     1       5.650  -3.227   5.364  0.00  0.00    -0.226 NA
ATOM      2  C   UNL     1       4.666  -2.462   5.780  0.00  0.00    +0.166 C 
ATOM      3  N   UNL     1       4.263  -2.212   7.074  0.00  0.00    -0.260 N 
ATOM      4  C   UNL     1       3.245  -1.403   7.319  0.00  0.00    +0.256 C 
ATOM      5  O   UNL     1       2.880  -1.167   8.455  0.00  0.00    -0.269 OA
ATOM      6  C   UNL     1       2.571  -0.804   6.151  0.00  0.00    +0.078 C 
ATOM      7  C   UNL     1       1.514   0.046   6.110  0.00  0.00    +0.028 C 
ATOM      8  S   UNL     1       3.525  -1.493   4.806  0.00  0.00    -0.049 S 
ATOM      9  H   UNL     1       4.789  -2.687   7.915  0.00  0.00    +0.157 HD
ENDROOT
BRANCH   1  15
ATOM     10  C   UNL     1       3.971  -3.893   0.813  0.00  0.00    +0.044 C 
ATOM     11  C   UNL     1       5.107  -3.678   1.781  0.00  0.00    -0.048 A 
ATOM     12  C   UNL     1       6.407  -3.604   1.313  0.00  0.00    +0.006 A 
ATOM     13  C   UNL     1       7.456  -3.406   2.194  0.00  0.00    -0.048 A 
ATOM     14  C   UNL     1       7.211  -3.279   3.546  0.00  0.00    +0.031 A 
ATOM     15  C   UNL     1       5.900  -3.352   4.025  0.00  0.00    +0.067 A 
ATOM     16  C   UNL     1       4.848  -3.559   3.130  0.00  0.00    +0.031 A 
ATOM     17  C   UNL     1       8.868  -3.327   1.676  0.00  0.00    +0.044 C 
ENDBRANCH   1  15
BRANCH   7  18
ATOM     18  C   UNL     1       1.111   0.655   4.836  0.00  0.00    -0.024 A 
ATOM     19  C   UNL     1      -0.158   1.232   4.704  0.00  0.00    +0.011 A 
ATOM     20  C   UNL     1      -0.531   1.802   3.507  0.00  0.00    +0.046 A 
ATOM     21  C   UNL     1       0.350   1.806   2.432  0.00  0.00    +0.121 A 
ATOM     22  C   UNL     1       1.609   1.230   2.556  0.00  0.00    +0.046 A 
ATOM     23  C   UNL     1       1.994   0.661   3.749  0.00  0.00    +0.011 A 
BRANCH  21  24
ATOM     24  O   UNL     1      -0.022   2.370   1.254  0.00  0.00    -0.487 OA
BRANCH  24  25
ATOM     25  C   UNL     1       0.931   2.340   0.190  0.00  0.00    +0.266 C 
BRANCH  25  26
ATOM     26  C   UNL     1       0.345   3.007  -1.028  0.00  0.00    +0.008 A 
ATOM     27  C   UNL     1      -0.937   3.522  -0.985  0.00  0.00    +0.010 A 
ATOM     28  C   UNL     1      -1.472   4.139  -2.100  0.00  0.00    +0.020 A 
ATOM     29  C   UNL     1      -0.729   4.231  -3.263  0.00  0.00    +0.042 A 
ATOM     30  C   UNL     1       0.552   3.711  -3.309  0.00  0.00    +0.040 A 
ATOM     31  C   UNL     1       1.089   3.098  -2.191  0.00  0.00    +0.049 A 
ATOM     32 CL   UNL     1       2.697   2.446  -2.247  0.00  0.00    -0.083 Cl
ATOM     33 CL   UNL     1      -1.405   4.999  -4.666  0.00  0.00    -0.083 Cl
ENDBRANCH  25  26
ENDBRANCH  24  25
ENDBRANCH  21  24
ENDBRANCH   7  18
TORSDOF 5
