REMARK  Name = ZINC40004205
REMARK  13 active torsions:
REMARK  status: ('A' for Active; 'I' for Inactive)
REMARK    1  A    between atoms: C_1  and  C_2
REMARK    2  A    between atoms: C_2  and  C_3
REMARK    3  A    between atoms: C_2  and  C_4
REMARK    4  A    between atoms: C_2  and  C_5
REMARK    5  A    between atoms: C_7  and  C_16
REMARK    6  A    between atoms: C_9  and  C_12
REMARK    7  A    between atoms: C_10  and  O_11
REMARK    8  A    between atoms: C_12  and  C_13
REMARK    9  A    between atoms: C_12  and  C_14
REMARK   10  A    between atoms: C_12  and  C_15
REMARK   11  A    between atoms: N_20  and  N_24
REMARK   12  A    between atoms: C_25  and  C_27
REMARK   13  A    between atoms: C_32  and  O_33
REMARK                            x       y       z     vdW  Elec       q    Type
REMARK                         _______ _______ _______ _____ _____    ______ ____
ROOT
ATOM      1  C   UNL     1       2.412   0.928  -4.258  0.00  0.00    +0.028 C 
ATOM      2  C   UNL     1       2.747   2.180  -3.854  0.00  0.00    +0.079 C 
ATOM      3  C   UNL     1       3.203   3.336  -4.651  0.00  0.00    +0.275 C 
ATOM      4  O   UNL     1       3.334   3.268  -5.859  0.00  0.00    -0.267 OA
ATOM      5  N   UNL     1       3.461   4.449  -3.986  0.00  0.00    -0.169 N 
ATOM      6  C   UNL     1       3.315   4.521  -2.647  0.00  0.00    +0.138 C 
ATOM      7  S   UNL     1       3.596   5.858  -1.617  0.00  0.00    -0.026 S 
ATOM      8  S   UNL     1       2.748   2.884  -2.211  0.00  0.00    -0.059 S 
ENDROOT
BRANCH   1  11
ATOM      9  C   UNL     1       0.858  -0.466  -1.147  0.00  0.00    +0.000 A 
ATOM     10  C   UNL     1       1.420   0.423  -2.035  0.00  0.00    +0.015 A 
ATOM     11  C   UNL     1       1.812  -0.015  -3.306  0.00  0.00    -0.023 A 
ATOM     12  C   UNL     1       1.630  -1.357  -3.666  0.00  0.00    +0.015 A 
ATOM     13  C   UNL     1       1.066  -2.236  -2.770  0.00  0.00    +0.000 A 
ATOM     14  C   UNL     1       0.684  -1.797  -1.508  0.00  0.00    +0.124 A 
BRANCH   9  16
ATOM     15  C   UNL     1       0.733   1.498   0.362  0.00  0.00    +0.015 C 
ATOM     16  C   UNL     1       0.435   0.004   0.221  0.00  0.00    -0.009 C 
ATOM     17  C   UNL     1       1.209  -0.773   1.288  0.00  0.00    +0.015 C 
ATOM     18  C   UNL     1      -1.065  -0.236   0.402  0.00  0.00    +0.015 C 
ENDBRANCH   9  16
BRANCH  13  19
ATOM     19  C   UNL     1       0.869  -3.680  -3.155  0.00  0.00    -0.009 C 
ATOM     20  C   UNL     1       1.375  -3.900  -4.582  0.00  0.00    +0.015 C 
ATOM     21  C   UNL     1       1.651  -4.576  -2.193  0.00  0.00    +0.015 C 
ATOM     22  C   UNL     1      -0.619  -4.028  -3.082  0.00  0.00    +0.015 C 
ENDBRANCH  13  19
BRANCH  14  23
ATOM     23  O   UNL     1       0.134  -2.670  -0.625  0.00  0.00    -0.506 OA
ATOM     24  H   UNL     1      -0.830  -2.733  -0.683  0.00  0.00    +0.292 HD
ENDBRANCH  14  23
ENDBRANCH   1  11
BRANCH   5  25
ATOM     25  N   UNL     1       3.898   5.580  -4.688  0.00  0.00    -0.222 N 
ATOM     26  C   UNL     1       3.053   6.609  -4.902  0.00  0.00    +0.264 C 
ATOM     27  O   UNL     1       1.912   6.554  -4.486  0.00  0.00    -0.269 OA
ATOM     28  H   UNL     1       4.808   5.624  -5.020  0.00  0.00    +0.174 HD
BRANCH  26  29
ATOM     29  C   UNL     1       3.513   7.800  -5.641  0.00  0.00    +0.079 A 
ATOM     30  C   UNL     1       4.821   7.864  -6.126  0.00  0.00    +0.017 A 
ATOM     31  C   UNL     1       5.245   8.979  -6.816  0.00  0.00    +0.001 A 
ATOM     32  C   UNL     1       4.378  10.039  -7.031  0.00  0.00    +0.004 A 
ATOM     33  C   UNL     1       3.083   9.988  -6.557  0.00  0.00    +0.046 A 
ATOM     34  C   UNL     1       2.638   8.871  -5.866  0.00  0.00    +0.129 A 
BRANCH  34  35
ATOM     35  O   UNL     1       1.363   8.818  -5.405  0.00  0.00    -0.506 OA
ATOM     36  H   UNL     1       1.252   9.173  -4.512  0.00  0.00    +0.292 HD
ENDBRANCH  34  35
ENDBRANCH  26  29
ENDBRANCH   5  25
TORSDOF 7
