REMARK  Name = ZINC67083843
REMARK  4 active torsions:
REMARK  status: ('A' for Active; 'I' for Inactive)
REMARK    1  A    between atoms: C_4  and  C_7
REMARK    2  A    between atoms: C_7  and  C_14
REMARK    3  A    between atoms: C_14  and  N_15
REMARK    4  A    between atoms: C_21  and  C_24
REMARK                            x       y       z     vdW  Elec       q    Type
REMARK                         _______ _______ _______ _____ _____    ______ ____
ROOT
ATOM      1  C   UNL     1       3.740  -0.712  -0.055  0.00  0.00    +0.011 C 
ATOM      2  C   UNL     1       4.320  -0.048  -1.319  0.00  0.00    +0.013 C 
ATOM      3  C   UNL     1       5.593  -0.747  -1.830  0.00  0.00    +0.001 C 
ATOM      4  C   UNL     1       6.524  -1.136  -0.714  0.00  0.00    +0.000 C 
ATOM      5  C   UNL     1       6.228  -2.597  -0.317  0.00  0.00    +0.000 C 
ATOM      6  C   UNL     1       5.065  -2.710   0.552  0.00  0.00    +0.001 C 
ATOM      7  C   UNL     1       3.773  -2.215  -0.128  0.00  0.00    +0.013 C 
ENDROOT
BRANCH   1  11
ATOM      8  C   UNL     1      -0.307   0.561   0.443  0.00  0.00    +0.000 A 
ATOM      9  C   UNL     1       0.241  -0.358   1.318  0.00  0.00    +0.000 A 
ATOM     10  C   UNL     1       1.551  -0.770   1.157  0.00  0.00    +0.004 A 
ATOM     11  C   UNL     1       2.312  -0.263   0.120  0.00  0.00    -0.040 A 
ATOM     12  C   UNL     1       1.764   0.655  -0.755  0.00  0.00    +0.004 A 
ATOM     13  C   UNL     1       0.455   1.069  -0.593  0.00  0.00    +0.000 A 
ENDBRANCH   1  11
BRANCH   1  14
ATOM     14  C   UNL     1       4.554  -0.258   1.158  0.00  0.00    +0.117 C 
BRANCH  14  15
ATOM     15  N   UNL     1       4.691   1.201   1.136  0.00  0.00    -0.298 N 
ATOM     16  C   UNL     1       5.466   1.819   2.049  0.00  0.00    +0.302 C 
ATOM     17  O   UNL     1       5.978   1.177   2.946  0.00  0.00    -0.253 OA
ATOM     18  N   UNL     1       5.672   3.148   1.969  0.00  0.00    -0.286 N 
ATOM     19  C   UNL     1       4.962   3.957   0.969  0.00  0.00    +0.110 C 
ATOM     20  C   UNL     1       4.257   5.115   1.682  0.00  0.00    +0.037 C 
ATOM     21  C   UNL     1       5.279   5.896   2.511  0.00  0.00    +0.094 C 
ATOM     22  C   UNL     1       5.889   4.976   3.571  0.00  0.00    +0.037 C 
ATOM     23  C   UNL     1       6.608   3.817   2.883  0.00  0.00    +0.110 C 
ATOM     24  H   UNL     1       4.225   1.722   0.463  0.00  0.00    +0.150 HD
BRANCH  21  25
ATOM     25  C   UNL     1       4.612   7.030   3.171  0.00  0.00    +0.066 C 
ATOM     26  N   UNL     1       4.097   7.905   3.681  0.00  0.00    -0.196 NA
ENDBRANCH  21  25
ENDBRANCH  14  15
ENDBRANCH   1  14
TORSDOF 4
