REMARK  Name = ZINC09192684
REMARK  8 active torsions:
REMARK  status: ('A' for Active; 'I' for Inactive)
REMARK    1  A    between atoms: C_1  and  C_2
REMARK    2  A    between atoms: C_9  and  C_11
REMARK    3  A    between atoms: C_14  and  N_18
REMARK    4  A    between atoms: C_16  and  O_17
REMARK    5  A    between atoms: N_18  and  C_19
REMARK    6  A    between atoms: C_19  and  N_21
REMARK    7  A    between atoms: C_22  and  C_24
REMARK    8  A    between atoms: C_24  and  C_25
REMARK                            x       y       z     vdW  Elec       q    Type
REMARK                         _______ _______ _______ _____ _____    ______ ____
ROOT
ATOM      1  N   UNL     1       0.146  -9.120   4.404  0.00  0.00    -0.296 N 
ATOM      2  H   UNL     1       0.098  -9.959   3.920  0.00  0.00    +0.154 HD
ENDROOT
BRANCH   1   6
ATOM      3  C   UNL     1       0.043  -5.507   2.323  0.00  0.00    +0.078 A 
ATOM      4  C   UNL     1       0.860  -6.550   1.879  0.00  0.00    +0.018 A 
ATOM      5  C   UNL     1       0.891  -7.740   2.570  0.00  0.00    +0.024 A 
ATOM      6  C   UNL     1       0.110  -7.910   3.710  0.00  0.00    +0.036 A 
ATOM      7  C   UNL     1      -0.705  -6.879   4.158  0.00  0.00    +0.069 A 
ATOM      8  C   UNL     1      -0.739  -5.676   3.475  0.00  0.00    +0.131 A 
BRANCH   3  17
ATOM      9  C   UNL     1       0.828   0.228  -2.253  0.00  0.00    +0.044 C 
ATOM     10  C   UNL     1       0.362  -0.628  -1.104  0.00  0.00    -0.048 A 
ATOM     11  C   UNL     1      -0.551  -0.120  -0.192  0.00  0.00    +0.007 A 
ATOM     12  C   UNL     1      -0.987  -0.891   0.866  0.00  0.00    +0.049 A 
ATOM     13  C   UNL     1      -0.511  -2.183   1.022  0.00  0.00    +0.156 A 
ATOM     14  C   UNL     1       0.414  -2.702   0.101  0.00  0.00    +0.110 A 
ATOM     15  C   UNL     1       0.843  -1.911  -0.968  0.00  0.00    +0.035 A 
ATOM     16  N   UNL     1       0.697  -3.968   0.502  0.00  0.00    -0.209 NA
ATOM     17  C   UNL     1       0.008  -4.230   1.586  0.00  0.00    +0.232 A 
ATOM     18  O   UNL     1      -0.738  -3.161   1.927  0.00  0.00    -0.435 OA
ENDBRANCH   3  17
BRANCH   8  19
ATOM     19  O   UNL     1      -1.531  -4.665   3.914  0.00  0.00    -0.506 OA
ATOM     20  H   UNL     1      -2.425  -4.677   3.546  0.00  0.00    +0.292 HD
ENDBRANCH   8  19
ENDBRANCH   1   6
BRANCH   1  21
ATOM     21  C   UNL     1       0.250  -9.123   5.748  0.00  0.00    +0.141 C 
ATOM     22  S   UNL     1       0.227  -7.644   6.611  0.00  0.00    -0.018 S 
BRANCH  21  23
ATOM     23  N   UNL     1       0.370 -10.289   6.412  0.00  0.00    -0.268 N 
ATOM     24  C   UNL     1       0.473 -10.292   7.756  0.00  0.00    +0.219 C 
ATOM     25  O   UNL     1       0.457  -9.245   8.367  0.00  0.00    -0.275 OA
ATOM     26  H   UNL     1       0.383 -11.127   5.923  0.00  0.00    +0.156 HD
BRANCH  24  27
ATOM     27  C   UNL     1       0.608 -11.596   8.498  0.00  0.00    +0.103 C 
BRANCH  27  28
ATOM     28  C   UNL     1       0.707 -11.320  10.000  0.00  0.00    -0.020 C 
ATOM     29  C   UNL     1       1.931 -10.446  10.279  0.00  0.00    +0.011 C 
ATOM     30  C   UNL     1       2.029 -10.170  11.781  0.00  0.00    -0.010 C 
ATOM     31  C   UNL     1       2.166 -11.494  12.535  0.00  0.00    +0.007 C 
ATOM     32  C   UNL     1       0.942 -12.369  12.256  0.00  0.00    -0.010 C 
ATOM     33  C   UNL     1       0.844 -12.645  10.754  0.00  0.00    +0.011 C 
ATOM     34  C   UNL     1      -0.320 -11.643  12.725  0.00  0.00    +0.007 C 
ATOM     35  C   UNL     1      -0.458 -10.319  11.971  0.00  0.00    -0.010 C 
ATOM     36  C   UNL     1       0.766  -9.444  12.250  0.00  0.00    +0.007 C 
ATOM     37  C   UNL     1      -0.556 -10.595  10.469  0.00  0.00    +0.011 C 
ENDBRANCH  27  28
ENDBRANCH  24  27
ENDBRANCH  21  23
ENDBRANCH   1  21
TORSDOF 7
