REMARK  Name = ZINC12419047
REMARK  10 active torsions:
REMARK  status: ('A' for Active; 'I' for Inactive)
REMARK    1  A    between atoms: C_1  and  C_2
REMARK    2  A    between atoms: C_2  and  C_3
REMARK    3  A    between atoms: C_8  and  C_15
REMARK    4  A    between atoms: C_10  and  S_12
REMARK    5  A    between atoms: S_12  and  C_13
REMARK    6  A    between atoms: C_13  and  C_14
REMARK    7  A    between atoms: C_15  and  C_16
REMARK    8  A    between atoms: C_27  and  S_29
REMARK    9  A    between atoms: S_29  and  C_30
REMARK   10  A    between atoms: C_30  and  C_31
REMARK                            x       y       z     vdW  Elec       q    Type
REMARK                         _______ _______ _______ _____ _____    ______ ____
ROOT
ATOM      1  C   UNL     1      -1.526   2.426  -3.499  0.00  0.00    +0.066 C 
ATOM      2  C   UNL     1      -0.431   2.073  -2.476  0.00  0.00    -0.018 C 
ATOM      3  C   UNL     1      -0.789   1.915  -1.167  0.00  0.00    +0.041 C 
ATOM      4  C   UNL     1      -2.089   2.318  -0.730  0.00  0.00    +0.041 C 
ATOM      5  C   UNL     1      -2.920   3.011  -1.563  0.00  0.00    -0.018 C 
ATOM      6  C   UNL     1      -2.351   3.545  -2.889  0.00  0.00    +0.066 C 
ATOM      7  S   UNL     1      -3.893   3.848  -3.815  0.00  0.00    -0.105 S 
ATOM      8  C   UNL     1      -5.052   3.598  -2.480  0.00  0.00    +0.042 C 
ATOM      9  C   UNL     1      -4.284   3.223  -1.426  0.00  0.00    +0.027 C 
ATOM     10  C   UNL     1      -2.256   1.924   0.710  0.00  0.00    +0.343 C 
ATOM     11  C   UNL     1      -0.793   1.920   1.249  0.00  0.00    +0.380 C 
ATOM     12  C   UNL     1      -0.017   1.395   0.010  0.00  0.00    +0.343 C 
ATOM     13  F   UNL     1       0.002  -0.004   0.002  0.00  0.00    -0.193 F 
ATOM     14  F   UNL     1       1.288   1.900   0.000  0.00  0.00    -0.193 F 
ATOM     15  F   UNL     1      -0.657   1.048   2.334  0.00  0.00    -0.192 F 
ATOM     16  F   UNL     1      -0.379   3.212   1.591  0.00  0.00    -0.192 F 
ATOM     17  F   UNL     1      -3.032   2.866   1.394  0.00  0.00    -0.193 F 
ATOM     18  F   UNL     1      -2.826   0.650   0.811  0.00  0.00    -0.193 F 
ATOM     19  C   UNL     1       0.851   2.068  -3.038  0.00  0.00    +0.027 C 
ATOM     20  C   UNL     1       1.091   2.559  -4.279  0.00  0.00    +0.042 C 
ATOM     21  S   UNL     1      -0.519   3.009  -4.905  0.00  0.00    -0.105 S 
ENDROOT
BRANCH   1  23
ATOM     22  C   UNL     1      -1.486   0.081  -4.359  0.00  0.00    +0.005 C 
ATOM     23  C   UNL     1      -2.387   1.216  -3.869  0.00  0.00    +0.021 C 
ENDBRANCH   1  23
BRANCH   6  24
ATOM     24  C   UNL     1      -1.526   4.818  -2.694  0.00  0.00    +0.021 C 
ATOM     25  C   UNL     1      -2.366   5.862  -1.955  0.00  0.00    +0.005 C 
ENDBRANCH   6  24
BRANCH   8  26
ATOM     26  S   UNL     1      -6.802   3.793  -2.521  0.00  0.00    -0.119 S 
BRANCH  26  27
ATOM     27  C   UNL     1      -7.021   4.297  -4.246  0.00  0.00    +0.071 C 
ATOM     28  C   UNL     1      -8.508   4.531  -4.524  0.00  0.00    +0.015 C 
ENDBRANCH  26  27
ENDBRANCH   8  26
BRANCH  20  29
ATOM     29  S   UNL     1       2.646   2.718  -5.091  0.00  0.00    -0.119 S 
BRANCH  29  30
ATOM     30  C   UNL     1       2.107   3.439  -6.662  0.00  0.00    +0.071 C 
ATOM     31  C   UNL     1       3.324   3.674  -7.559  0.00  0.00    +0.015 C 
ENDBRANCH  29  30
ENDBRANCH  20  29
TORSDOF 6
