REMARK  Name = ZINC60280613
REMARK  4 active torsions:
REMARK  status: ('A' for Active; 'I' for Inactive)
REMARK    1  A    between atoms: C_2  and  C_3
REMARK    2  A    between atoms: C_3  and  N_4
REMARK    3  A    between atoms: C_6  and  C_12
REMARK    4  A    between atoms: C_8  and  C_9
REMARK                            x       y       z     vdW  Elec       q    Type
REMARK                         _______ _______ _______ _____ _____    ______ ____
ROOT
ATOM      1  N   UNL     1       1.367  -1.676   1.111  0.00  0.00    -0.275 N 
ATOM      2  C   UNL     1       1.847  -1.374   2.368  0.00  0.00    +0.101 C 
ATOM      3  C   UNL     1       1.684  -2.660   3.156  0.00  0.00    +0.172 C 
ATOM      4  N   UNL     1       1.093  -3.595   2.186  0.00  0.00    -0.363 N 
ATOM      5  C   UNL     1       0.940  -2.973   1.071  0.00  0.00    +0.080 C 
ATOM      6  N   UNL     1       2.328  -0.248   2.782  0.00  0.00    -0.388 N 
ATOM      7  H   UNL     1       2.381   0.508   2.177  0.00  0.00    +0.157 HD
ATOM      8  H   UNL     1       2.637  -0.160   3.697  0.00  0.00    +0.157 HD
ATOM      9  H   UNL     1       0.855  -4.519   2.359  0.00  0.00    +0.162 HD
ENDROOT
BRANCH   3  10
ATOM     10  C   UNL     1       0.754  -2.450   4.323  0.00  0.00    -0.017 A 
ATOM     11  C   UNL     1      -0.615  -2.460   4.127  0.00  0.00    +0.007 A 
ATOM     12  C   UNL     1      -1.469  -2.267   5.196  0.00  0.00    +0.022 A 
ATOM     13  C   UNL     1      -0.954  -2.066   6.465  0.00  0.00    +0.059 A 
ATOM     14  C   UNL     1       0.416  -2.057   6.662  0.00  0.00    +0.060 A 
ATOM     15  C   UNL     1       1.269  -2.255   5.591  0.00  0.00    +0.027 A 
ATOM     16 CL   UNL     1       1.063  -1.804   8.252  0.00  0.00    -0.082 Cl
ATOM     17 CL   UNL     1      -2.026  -1.823   7.808  0.00  0.00    -0.082 Cl
ENDBRANCH   3  10
BRANCH   5  18
ATOM     18  C   UNL     1       0.354  -3.613  -0.161  0.00  0.00    +0.051 C 
ATOM     19  C   UNL     1      -0.893  -4.482   0.020  0.00  0.00    +0.011 C 
ATOM     20  C   UNL     1       0.457  -5.135  -0.284  0.00  0.00    +0.011 C 
ENDBRANCH   5  18
BRANCH   1  21
ATOM     21  C   UNL     1       1.317  -0.740  -0.015  0.00  0.00    +0.140 C 
BRANCH  21  23
ATOM     22  C   UNL     1      -0.016   1.306   0.009  0.00  0.00    +0.005 C 
ATOM     23  C   UNL     1       0.002  -0.004   0.002  0.00  0.00    -0.015 C 
ENDBRANCH  21  23
ENDBRANCH   1  21
TORSDOF 4
