REMARK  Name = ZINC36167940
REMARK  4 active torsions:
REMARK  status: ('A' for Active; 'I' for Inactive)
REMARK    1  A    between atoms: C_1  and  C_2
REMARK    2  A    between atoms: C_5  and  N_9
REMARK    3  A    between atoms: N_9  and  C_10
REMARK    4  A    between atoms: C_10  and  C_11
REMARK                            x       y       z     vdW  Elec       q    Type
REMARK                         _______ _______ _______ _____ _____    ______ ____
ROOT
ATOM      1  C   UNL     1       0.076  -4.910   1.241  0.00  0.00    +0.140 C 
ENDROOT
BRANCH   1   2
ATOM      2  C   UNL     1       0.095  -6.389   0.955  0.00  0.00    +0.015 A 
ATOM      3  C   UNL     1      -1.075  -7.126   1.028  0.00  0.00    +0.009 A 
ATOM      4  C   UNL     1      -1.060  -8.483   0.766  0.00  0.00    +0.004 A 
ATOM      5  C   UNL     1       0.125  -9.114   0.429  0.00  0.00    +0.049 A 
ATOM      6  C   UNL     1       1.297  -8.380   0.356  0.00  0.00    +0.162 A 
ATOM      7  C   UNL     1       1.280  -7.016   0.613  0.00  0.00    +0.167 A 
ATOM      8  O   UNL     1       2.439  -6.301   0.532  0.00  0.00    -0.488 OA
ATOM      9  C   UNL     1       3.423  -6.589   1.528  0.00  0.00    +0.232 C 
ATOM     10  C   UNL     1       4.265  -7.788   1.123  0.00  0.00    +0.082 C 
ATOM     11  C   UNL     1       3.450  -9.070   1.049  0.00  0.00    +0.232 C 
ATOM     12  O   UNL     1       2.472  -8.990   0.025  0.00  0.00    -0.488 OA
ENDBRANCH   1   2
BRANCH   1  13
ATOM     13  N   UNL     1       0.059  -4.169  -0.023  0.00  0.00    -0.340 N 
ATOM     14  H   UNL     1       0.062  -4.648  -0.867  0.00  0.00    +0.146 HD
BRANCH  13  19
ATOM     15  C   UNL     1      -0.018   1.503   0.010  0.00  0.00    +0.047 C 
ATOM     16  C   UNL     1       0.002  -0.004   0.002  0.00  0.00    -0.015 A 
ATOM     17  C   UNL     1       0.006  -0.688  -1.200  0.00  0.00    +0.008 A 
ATOM     18  C   UNL     1       0.025  -2.068  -1.211  0.00  0.00    +0.023 A 
ATOM     19  C   UNL     1       0.041  -2.772  -0.014  0.00  0.00    +0.030 A 
ATOM     20  C   UNL     1       0.037  -2.085   1.193  0.00  0.00    +0.061 A 
ATOM     21  C   UNL     1       0.023  -0.702   1.198  0.00  0.00    +0.128 A 
ATOM     22  F   UNL     1       0.024  -0.031   2.371  0.00  0.00    -0.205 F 
ENDBRANCH  13  19
ENDBRANCH   1  13
TORSDOF 3
