REMARK  Name = ZINC08938458
REMARK  8 active torsions:
REMARK  status: ('A' for Active; 'I' for Inactive)
REMARK    1  A    between atoms: C_1  and  C_2
REMARK    2  A    between atoms: C_2  and  C_4
REMARK    3  A    between atoms: C_7  and  S_10
REMARK    4  A    between atoms: S_10  and  N_13
REMARK    5  A    between atoms: C_19  and  C_21
REMARK    6  A    between atoms: C_21  and  N_62
REMARK    7  A    between atoms: C_25  and  C_27
REMARK    8  A    between atoms: N_31  and  C_32
REMARK                            x       y       z     vdW  Elec       q    Type
REMARK                         _______ _______ _______ _____ _____    ______ ____
ROOT
ATOM      1  N   UNL     1       3.141   3.281   1.490  0.00  0.00    -0.174 NA
ATOM      2  C   UNL     1       3.109   1.829   1.712  0.00  0.00    +0.128 C 
ATOM      3  C   UNL     1       2.394   1.168   0.527  0.00  0.00    +0.125 C 
ATOM      4  N   UNL     1       1.128   1.876   0.288  0.00  0.00    -0.300 N 
ATOM      5  C   UNL     1       1.161   3.328   0.061  0.00  0.00    +0.125 C 
ATOM      6  C   UNL     1       1.876   3.990   1.251  0.00  0.00    +0.128 C 
ATOM      7  C   UNL     1      -0.041   1.206   0.272  0.00  0.00    +0.199 C 
ATOM      8  O   UNL     1      -0.055   0.007   0.456  0.00  0.00    -0.278 OA
ENDROOT
BRANCH   1   9
ATOM      9  S   UNL     1       4.577   4.105   1.510  0.00  0.00    +0.061 S 
ATOM     10  O   UNL     1       4.267   5.455   1.830  0.00  0.00    -0.153 OA
ATOM     11  O   UNL     1       5.481   3.328   2.284  0.00  0.00    -0.153 OA
BRANCH   9  15
ATOM     12  C   UNL     1       6.177   4.113  -2.730  0.00  0.00    +0.017 A 
ATOM     13  C   UNL     1       5.340   5.144  -2.293  0.00  0.00    +0.013 A 
ATOM     14  C   UNL     1       4.857   5.135  -1.001  0.00  0.00    +0.029 A 
ATOM     15  C   UNL     1       5.199   4.108  -0.138  0.00  0.00    +0.106 A 
ATOM     16  C   UNL     1       6.032   3.087  -0.562  0.00  0.00    +0.029 A 
ATOM     17  C   UNL     1       6.519   3.079  -1.852  0.00  0.00    +0.013 A 
BRANCH  12  19
ATOM     18  C   UNL     1       7.599   3.002  -4.574  0.00  0.00    +0.091 C 
ATOM     19  C   UNL     1       6.696   4.115  -4.107  0.00  0.00    +0.160 C 
ATOM     20  O   UNL     1       6.398   5.012  -4.866  0.00  0.00    -0.292 OA
ENDBRANCH  12  19
ENDBRANCH   9  15
ENDBRANCH   1   9
BRANCH   7  21
ATOM     21  C   UNL     1      -1.330   1.944   0.019  0.00  0.00    +0.020 C 
BRANCH  21  26
ATOM     22  C   UNL     1      -2.263   0.130  -1.301  0.00  0.00    -0.077 C 
ATOM     23  C   UNL     1      -3.672  -0.171  -1.843  0.00  0.00    -0.020 C 
ATOM     24  C   UNL     1      -4.637   0.583  -0.899  0.00  0.00    -0.011 C 
ATOM     25  C   UNL     1      -3.731   1.676  -0.279  0.00  0.00    -0.020 C 
ATOM     26  N   UNL     1      -2.455   0.971  -0.113  0.00  0.00    +0.391 N 
ATOM     27  H   UNL     1      -2.491   0.382   0.727  0.00  0.00    -0.080 HD
BRANCH  25  28
ATOM     28  C   UNL     1      -4.278   2.128   1.051  0.00  0.00    +0.005 A 
ATOM     29  C   UNL     1      -3.652   2.020   2.241  0.00  0.00    +0.021 A 
ATOM     30  C   UNL     1      -4.508   2.564   3.219  0.00  0.00    +0.019 A 
ATOM     31  C   UNL     1      -5.628   2.975   2.591  0.00  0.00    +0.085 A 
ATOM     32  N   UNL     1      -5.492   2.710   1.260  0.00  0.00    -0.355 N 
ATOM     33  C   UNL     1      -6.488   3.003   0.226  0.00  0.00    +0.148 C 
ENDBRANCH  25  28
ENDBRANCH  21  26
ENDBRANCH   7  21
TORSDOF 6
