REMARK  Name = ZINC33606386
REMARK  4 active torsions:
REMARK  status: ('A' for Active; 'I' for Inactive)
REMARK    1  A    between atoms: C_4  and  C_7
REMARK    2  A    between atoms: C_7  and  S_8
REMARK    3  A    between atoms: S_8  and  C_9
REMARK    4  A    between atoms: C_16  and  C_26
REMARK                            x       y       z     vdW  Elec       q    Type
REMARK                         _______ _______ _______ _____ _____    ______ ____
ROOT
ATOM      1  C   UNL     1       2.616   6.266  -3.513  0.00  0.00    +0.171 A 
ATOM      2  N   UNL     1       2.325   6.867  -2.325  0.00  0.00    -0.208 NA
ATOM      3  C   UNL     1       2.272   6.124  -1.175  0.00  0.00    +0.135 A 
ATOM      4  C   UNL     1       2.509   4.787  -1.233  0.00  0.00    +0.069 A 
ATOM      5  C   UNL     1       2.813   4.203  -2.484  0.00  0.00    +0.258 A 
ATOM      6  O   UNL     1       3.037   3.004  -2.565  0.00  0.00    -0.267 OA
ATOM      7  N   UNL     1       2.853   4.973  -3.582  0.00  0.00    -0.302 N 
ATOM      8  C   UNL     1       2.451   3.936   0.001  0.00  0.00    +0.092 C 
ATOM      9  C   UNL     1       2.532   4.777   1.250  0.00  0.00    +0.024 C 
ATOM     10  C   UNL     1       2.298   6.106   1.209  0.00  0.00    +0.017 C 
ATOM     11  N   UNL     1       1.980   6.722   0.029  0.00  0.00    -0.302 N 
ATOM     12  C   UNL     1       2.381   6.949   2.458  0.00  0.00    +0.051 C 
ATOM     13  C   UNL     1       1.990   6.106   3.673  0.00  0.00    +0.014 C 
ATOM     14  C   UNL     1       2.933   4.900   3.751  0.00  0.00    +0.080 C 
ATOM     15  C   UNL     1       2.856   4.136   2.458  0.00  0.00    +0.162 C 
ATOM     16  O   UNL     1       3.079   2.941   2.458  0.00  0.00    -0.292 OA
ATOM     17  H   UNL     1       1.488   7.706   0.049  0.00  0.00    +0.153 HD
ATOM     18  H   UNL     1       3.087   4.508  -4.551  0.00  0.00    +0.171 HD
ENDROOT
BRANCH   8  19
ATOM     19  C   UNL     1       1.156   3.166   0.009  0.00  0.00    -0.035 A 
ATOM     20  C   UNL     1       1.175   1.783   0.000  0.00  0.00    +0.005 A 
ATOM     21  C   UNL     1      -0.013   1.076   0.008  0.00  0.00    +0.015 A 
ATOM     22  C   UNL     1      -1.220   1.751   0.017  0.00  0.00    +0.018 A 
ATOM     23  C   UNL     1      -1.238   3.134   0.031  0.00  0.00    +0.015 A 
ATOM     24  C   UNL     1      -0.050   3.841   0.024  0.00  0.00    +0.005 A 
ATOM     25 BR   UNL     1      -2.845   0.784   0.020  0.00  0.00    -0.050 Br
ENDBRANCH   8  19
BRANCH   1  26
ATOM     26  S   UNL     1       2.678   7.238  -4.982  0.00  0.00    -0.083 S 
BRANCH  26  27
ATOM     27  C   UNL     1       3.092   5.955  -6.190  0.00  0.00    +0.112 C 
BRANCH  27  31
ATOM     28  C   UNL     1       3.397   7.703 -10.075  0.00  0.00    +0.000 A 
ATOM     29  C   UNL     1       4.513   7.624  -9.263  0.00  0.00    +0.000 A 
ATOM     30  C   UNL     1       4.414   7.058  -8.006  0.00  0.00    +0.004 A 
ATOM     31  C   UNL     1       3.199   6.572  -7.560  0.00  0.00    -0.037 A 
ATOM     32  C   UNL     1       2.085   6.646  -8.374  0.00  0.00    +0.004 A 
ATOM     33  C   UNL     1       2.182   7.217  -9.630  0.00  0.00    +0.000 A 
ENDBRANCH  27  31
ENDBRANCH  26  27
ENDBRANCH   1  26
TORSDOF 4
