REMARK  Name = ZINC66702647
REMARK  10 active torsions:
REMARK  status: ('A' for Active; 'I' for Inactive)
REMARK    1  A    between atoms: C_1  and  C_2
REMARK    2  A    between atoms: C_2  and  C_3
REMARK    3  A    between atoms: C_3  and  N_4
REMARK    4  A    between atoms: N_4  and  C_5
REMARK    5  A    between atoms: C_5  and  C_6
REMARK    6  A    between atoms: C_11  and  O_12
REMARK    7  A    between atoms: N_15  and  C_16
REMARK    8  A    between atoms: C_16  and  C_17
REMARK    9  A    between atoms: C_16  and  C_18
REMARK   10  A    between atoms: C_16  and  C_19
REMARK                            x       y       z     vdW  Elec       q    Type
REMARK                         _______ _______ _______ _____ _____    ______ ____
ROOT
ATOM      1  N   UNL     1      -1.345  -1.996   0.003  0.00  0.00    -0.281 N 
ATOM      2  C   UNL     1      -1.342  -2.663  -1.168  0.00  0.00    +0.303 C 
ATOM      3  O   UNL     1      -1.251  -3.876  -1.177  0.00  0.00    -0.253 OA
ATOM      4  N   UNL     1      -1.441  -1.986  -2.329  0.00  0.00    -0.290 N 
ATOM      5  H   UNL     1      -1.513  -1.019  -2.322  0.00  0.00    +0.151 HD
ENDROOT
BRANCH   4   6
ATOM      6  C   UNL     1      -1.438  -2.712  -3.602  0.00  0.00    +0.056 C 
ATOM      7  C   UNL     1      -0.119  -3.472  -3.753  0.00  0.00    +0.036 C 
ATOM      8  C   UNL     1      -2.604  -3.702  -3.627  0.00  0.00    +0.036 C 
BRANCH   6   9
ATOM      9  C   UNL     1      -1.586  -1.733  -4.738  0.00  0.00    -0.021 A 
ATOM     10  C   UNL     1      -1.119  -2.061  -5.997  0.00  0.00    +0.009 A 
ATOM     11  C   UNL     1      -1.252  -1.166  -7.042  0.00  0.00    +0.050 A 
ATOM     12  C   UNL     1      -1.854   0.066  -6.829  0.00  0.00    +0.162 A 
ATOM     13  C   UNL     1      -2.325   0.395  -5.564  0.00  0.00    +0.162 A 
ATOM     14  C   UNL     1      -2.193  -0.510  -4.521  0.00  0.00    +0.055 A 
ATOM     15  O   UNL     1      -2.927   1.594  -5.335  0.00  0.00    -0.485 OA
ATOM     16  C   UNL     1      -2.713   2.619  -6.312  0.00  0.00    +0.270 C 
ATOM     17  C   UNL     1      -2.916   2.005  -7.704  0.00  0.00    +0.270 C 
ATOM     18  O   UNL     1      -1.974   0.939  -7.866  0.00  0.00    -0.485 OA
ENDBRANCH   6   9
ENDBRANCH   4   6
BRANCH   1  19
ATOM     19  C   UNL     1      -1.455  -0.535   0.014  0.00  0.00    +0.109 C 
BRANCH  19  21
ATOM     20  C   UNL     1      -0.170   1.607  -0.030  0.00  0.00    +0.005 C 
ATOM     21  C   UNL     1      -0.056   0.082  -0.041  0.00  0.00    +0.016 C 
ENDBRANCH  19  21
ENDBRANCH   1  19
BRANCH   1  22
ATOM     22  C   UNL     1      -1.238  -2.732   1.266  0.00  0.00    +0.148 C 
BRANCH  22  23
ATOM     23  C   UNL     1      -2.617  -3.091   1.756  0.00  0.00    +0.011 A 
ATOM     24  C   UNL     1      -3.221  -2.330   2.739  0.00  0.00    +0.009 A 
ATOM     25  C   UNL     1      -4.486  -2.660   3.190  0.00  0.00    +0.001 A 
ATOM     26  C   UNL     1      -5.150  -3.750   2.658  0.00  0.00    +0.004 A 
ATOM     27  C   UNL     1      -4.551  -4.513   1.675  0.00  0.00    +0.046 A 
ATOM     28  C   UNL     1      -3.284  -4.182   1.217  0.00  0.00    +0.122 A 
BRANCH  28  29
ATOM     29  O   UNL     1      -2.694  -4.927   0.246  0.00  0.00    -0.506 OA
ATOM     30  H   UNL     1      -2.167  -5.666   0.582  0.00  0.00    +0.292 HD
ENDBRANCH  28  29
ENDBRANCH  22  23
ENDBRANCH   1  22
TORSDOF 7
