REMARK  Name = ZINC61522628
REMARK  5 active torsions:
REMARK  status: ('A' for Active; 'I' for Inactive)
REMARK    1  A    between atoms: C_1  and  C_2
REMARK    2  A    between atoms: C_14  and  O_19
REMARK    3  A    between atoms: O_19  and  C_20
REMARK    4  A    between atoms: C_20  and  C_21
REMARK    5  A    between atoms: C_20  and  C_22
REMARK                            x       y       z     vdW  Elec       q    Type
REMARK                         _______ _______ _______ _____ _____    ______ ____
ROOT
ATOM      1  C   UNL     1      -0.019   1.526   0.010  0.00  0.00    +0.029 C 
ATOM      2  C   UNL     1       0.002  -0.004   0.002  0.00  0.00    +0.083 C 
ATOM      3  C   UNL     1      -1.432  -0.557   0.047  0.00  0.00    +0.059 C 
ATOM      4  C   UNL     1      -1.489  -1.361   1.327  0.00  0.00    -0.024 A 
ATOM      5  C   UNL     1      -2.519  -2.086   1.896  0.00  0.00    +0.005 A 
ATOM      6  C   UNL     1      -2.323  -2.746   3.094  0.00  0.00    +0.000 A 
ATOM      7  C   UNL     1      -1.093  -2.680   3.723  0.00  0.00    +0.002 A 
ATOM      8  C   UNL     1      -0.063  -1.958   3.159  0.00  0.00    +0.024 A 
ATOM      9  C   UNL     1      -0.253  -1.288   1.949  0.00  0.00    +0.040 A 
ATOM     10  N   UNL     1       0.649  -0.510   1.215  0.00  0.00    -0.266 N 
ATOM     11  C   UNL     1       1.957  -0.256   1.580  0.00  0.00    +0.229 A 
ATOM     12  N   UNL     1       2.448  -0.771   2.703  0.00  0.00    -0.161 NA
ATOM     13  C   UNL     1       3.704  -0.525   3.050  0.00  0.00    +0.324 A 
ATOM     14  N   UNL     1       4.470   0.236   2.275  0.00  0.00    -0.164 NA
ATOM     15  C   UNL     1       3.981   0.749   1.157  0.00  0.00    +0.230 A 
ATOM     16  N   UNL     1       2.730   0.501   0.804  0.00  0.00    -0.184 NA
ATOM     17 CL   UNL     1       4.984   1.742   0.147  0.00  0.00    -0.041 Cl
ENDROOT
BRANCH  13  18
ATOM     18  O   UNL     1       4.206  -1.047   4.192  0.00  0.00    -0.460 OA
BRANCH  18  19
ATOM     19  C   UNL     1       5.566  -0.741   4.504  0.00  0.00    +0.171 C 
ATOM     20  C   UNL     1       5.622   0.540   5.339  0.00  0.00    +0.052 C 
ATOM     21  C   UNL     1       6.181  -1.895   5.298  0.00  0.00    +0.052 C 
ENDBRANCH  18  19
ENDBRANCH  13  18
TORSDOF 2
