REMARK  Name = ZINC09905822
REMARK  9 active torsions:
REMARK  status: ('A' for Active; 'I' for Inactive)
REMARK    1  A    between atoms: C_4  and  O_10
REMARK    2  A    between atoms: C_5  and  N_7
REMARK    3  A    between atoms: O_10  and  C_11
REMARK    4  A    between atoms: C_11  and  C_12
REMARK    5  A    between atoms: N_14  and  N_15
REMARK    6  A    between atoms: C_16  and  C_17
REMARK    7  A    between atoms: C_19  and  N_24
REMARK    8  A    between atoms: C_22  and  O_23
REMARK    9  A    between atoms: N_25  and  C_26
REMARK                            x       y       z     vdW  Elec       q    Type
REMARK                         _______ _______ _______ _____ _____    ______ ____
ROOT
ATOM      1  N   UNL     1       8.342  -1.041  -0.088  0.00  0.00    -0.188 NA
ATOM      2  C   UNL     1       9.534  -0.527  -0.098  0.00  0.00    +0.142 C 
ENDROOT
BRANCH   2   3
ATOM      3  C   UNL     1      10.716  -1.408  -0.115  0.00  0.00    +0.038 A 
ATOM      4  C   UNL     1      11.996  -0.859  -0.119  0.00  0.00    +0.042 A 
ATOM      5  C   UNL     1      13.109  -1.701  -0.135  0.00  0.00    +0.087 A 
ATOM      6  C   UNL     1      12.935  -3.090  -0.146  0.00  0.00    +0.033 A 
ATOM      7  C   UNL     1      11.668  -3.630  -0.141  0.00  0.00    +0.048 A 
ATOM      8  C   UNL     1      10.555  -2.802  -0.121  0.00  0.00    +0.126 A 
BRANCH   8   9
ATOM      9  O   UNL     1       9.309  -3.341  -0.111  0.00  0.00    -0.506 OA
ATOM     10  H   UNL     1       8.939  -3.492  -0.991  0.00  0.00    +0.292 HD
ENDBRANCH   8   9
BRANCH   5  11
ATOM     11  N   UNL     1      14.367  -1.169  -0.140  0.00  0.00    -0.149 NA
ATOM     12  N   UNL     1      15.396  -1.947  -0.154  0.00  0.00    -0.149 NA
BRANCH  12  13
ATOM     13  C   UNL     1      16.655  -1.415  -0.159  0.00  0.00    +0.087 A 
ATOM     14  C   UNL     1      16.832  -0.029  -0.143  0.00  0.00    +0.029 A 
ATOM     15  C   UNL     1      18.105   0.501  -0.148  0.00  0.00    +0.003 A 
ATOM     16  C   UNL     1      19.207  -0.336  -0.169  0.00  0.00    +0.015 A 
ATOM     17  C   UNL     1      19.040  -1.710  -0.186  0.00  0.00    +0.020 A 
ATOM     18  C   UNL     1      17.772  -2.255  -0.174  0.00  0.00    +0.044 A 
ATOM     19 BR   UNL     1      20.553  -2.844  -0.217  0.00  0.00    -0.050 Br
ENDBRANCH  12  13
ENDBRANCH   5  11
ENDBRANCH   2   3
BRANCH   1  22
ATOM     20  C   UNL     1       5.981  -0.737  -0.062  0.00  0.00    +0.270 C 
ATOM     21  O   UNL     1       5.839  -1.942  -0.067  0.00  0.00    -0.270 OA
ATOM     22  N   UNL     1       7.218  -0.204  -0.072  0.00  0.00    -0.204 N 
ATOM     23  H   UNL     1       7.332   0.760  -0.068  0.00  0.00    +0.177 HD
BRANCH  20  24
ATOM     24  C   UNL     1       4.772   0.164  -0.045  0.00  0.00    +0.326 C 
BRANCH  24  25
ATOM     25  O   UNL     1       3.586  -0.632  -0.037  0.00  0.00    -0.480 OA
BRANCH  25  29
ATOM     26  C   UNL     1      -0.017   1.378   0.010  0.00  0.00    +0.002 A 
ATOM     27  C   UNL     1       1.170   2.088   0.002  0.00  0.00    +0.004 A 
ATOM     28  C   UNL     1       2.377   1.417  -0.013  0.00  0.00    +0.048 A 
ATOM     29  C   UNL     1       2.399   0.030  -0.021  0.00  0.00    +0.151 A 
ATOM     30  C   UNL     1       1.207  -0.680  -0.013  0.00  0.00    +0.168 A 
ATOM     31  C   UNL     1       0.002  -0.004   0.002  0.00  0.00    +0.036 A 
BRANCH  30  32
ATOM     32  N   UNL     1       1.226  -2.160  -0.022  0.00  0.00    +0.060 N 
ATOM     33  O   UNL     1       0.188  -2.778  -0.015  0.00  0.00    -0.126 OA
ATOM     34  O   UNL     1       2.281  -2.750  -0.036  0.00  0.00    -0.126 OA
ENDBRANCH  30  32
ENDBRANCH  25  29
ENDBRANCH  24  25
ENDBRANCH  20  24
ENDBRANCH   1  22
TORSDOF 9
