REMARK  Name = ZINC58819672
REMARK  9 active torsions:
REMARK  status: ('A' for Active; 'I' for Inactive)
REMARK    1  A    between atoms: C_1  and  C_2
REMARK    2  A    between atoms: N_5  and  C_8
REMARK    3  A    between atoms: C_8  and  C_10
REMARK    4  A    between atoms: C_8  and  C_24
REMARK    5  A    between atoms: C_10  and  N_11
REMARK    6  A    between atoms: C_12  and  C_14
REMARK    7  A    between atoms: C_16  and  N_21
REMARK    8  A    between atoms: C_24  and  C_25
REMARK    9  A    between atoms: C_24  and  C_26
REMARK                            x       y       z     vdW  Elec       q    Type
REMARK                         _______ _______ _______ _____ _____    ______ ____
ROOT
ATOM      1  N   UNL     1      -2.643  -4.164   2.542  0.00  0.00    -0.313 N 
ATOM      2  C   UNL     1      -3.932  -4.551   2.613  0.00  0.00    +0.245 C 
ATOM      3  O   UNL     1      -4.405  -5.251   1.739  0.00  0.00    -0.270 OA
ATOM      4  H   UNL     1      -2.266  -3.605   3.240  0.00  0.00    +0.149 HD
ENDROOT
BRANCH   2   5
ATOM      5  C   UNL     1      -4.771  -4.124   3.752  0.00  0.00    +0.052 A 
ATOM      6  C   UNL     1      -4.233  -3.314   4.755  0.00  0.00    +0.046 A 
ATOM      7  C   UNL     1      -5.021  -2.919   5.815  0.00  0.00    +0.127 A 
ATOM      8  C   UNL     1      -6.343  -3.323   5.888  0.00  0.00    +0.034 A 
ATOM      9  C   UNL     1      -6.883  -4.125   4.899  0.00  0.00    +0.017 A 
ATOM     10  C   UNL     1      -6.107  -4.523   3.828  0.00  0.00    +0.026 A 
ATOM     11  I   UNL     1      -6.929  -5.730   2.326  0.00  0.00    -0.043 I 
BRANCH   7  12
ATOM     12  N   UNL     1      -4.451  -2.062   6.879  0.00  0.00    +0.056 N 
ATOM     13  O   UNL     1      -3.297  -1.708   6.817  0.00  0.00    -0.126 OA
ATOM     14  O   UNL     1      -5.141  -1.714   7.809  0.00  0.00    -0.126 OA
ENDBRANCH   7  12
ENDBRANCH   2   5
BRANCH   1  15
ATOM     15  C   UNL     1      -1.812  -4.587   1.413  0.00  0.00    +0.089 C 
BRANCH  15  16
ATOM     16  C   UNL     1      -0.365  -4.150   1.652  0.00  0.00    -0.049 C 
BRANCH  16  21
ATOM     17  C   UNL     1       0.390   1.498   1.883  0.00  0.00    +0.007 C 
ATOM     18  C   UNL     1       0.430   0.032   1.448  0.00  0.00    -0.018 C 
ATOM     19  C   UNL     1      -0.998  -0.475   1.225  0.00  0.00    -0.016 C 
ATOM     20  C   UNL     1      -0.956  -1.962   0.868  0.00  0.00    -0.078 C 
ATOM     21  N   UNL     1      -0.334  -2.715   1.965  0.00  0.00    +0.383 N 
ATOM     22  C   UNL     1       1.059  -2.284   2.137  0.00  0.00    -0.078 C 
ATOM     23  C   UNL     1       1.094  -0.809   2.542  0.00  0.00    -0.016 C 
ATOM     24  H   UNL     1      -0.844  -2.547   2.818  0.00  0.00    -0.081 HD
ENDBRANCH  16  21
BRANCH  16  25
ATOM     25  C   UNL     1       0.220  -4.940   2.824  0.00  0.00    -0.029 C 
ATOM     26  C   UNL     1      -0.599  -4.662   4.086  0.00  0.00    +0.005 C 
ATOM     27  C   UNL     1       0.173  -6.436   2.504  0.00  0.00    +0.005 C 
ENDBRANCH  16  25
ENDBRANCH  15  16
ENDBRANCH   1  15
TORSDOF 6
