REMARK  Name = ZINC39444119
REMARK  6 active torsions:
REMARK  status: ('A' for Active; 'I' for Inactive)
REMARK    1  A    between atoms: C_1  and  C_2
REMARK    2  A    between atoms: N_16  and  N_17
REMARK    3  A    between atoms: C_18  and  C_19
REMARK    4  A    between atoms: C_23  and  O_26
REMARK    5  A    between atoms: C_24  and  O_25
REMARK    6  A    between atoms: O_26  and  C_27
REMARK                            x       y       z     vdW  Elec       q    Type
REMARK                         _______ _______ _______ _____ _____    ______ ____
ROOT
ATOM      1  C   UNL     1      -0.018   1.503   0.010  0.00  0.00    +0.044 C 
ATOM      2  C   UNL     1       0.002  -0.004   0.002  0.00  0.00    -0.050 A 
ATOM      3  C   UNL     1       0.005  -0.672  -1.230  0.00  0.00    +0.005 A 
ATOM      4  C   UNL     1       0.017  -2.022  -1.308  0.00  0.00    +0.026 A 
ATOM      5  C   UNL     1       0.027  -2.812  -0.071  0.00  0.00    +0.046 A 
ATOM      6  N   UNL     1       0.070  -4.106   0.139  0.00  0.00    -0.358 N 
ATOM      7  C   UNL     1      -0.067  -4.355   1.565  0.00  0.00    +0.253 C 
ATOM      8  C   UNL     1       0.064  -2.998   2.235  0.00  0.00    +0.115 C 
ATOM      9  C   UNL     1       0.036  -2.075   1.218  0.00  0.00    +0.025 A 
ATOM     10  C   UNL     1       0.022  -0.662   1.184  0.00  0.00    +0.015 A 
ATOM     11  N   UNL     1       0.301  -2.882   3.544  0.00  0.00    -0.171 NA
ATOM     12  N   UNL     1       0.929  -3.880   4.089  0.00  0.00    -0.247 N 
ATOM     13  C   UNL     1       1.373  -4.934   3.364  0.00  0.00    +0.227 C 
ATOM     14  N   UNL     1       0.970  -5.207   2.143  0.00  0.00    -0.220 NA
ATOM     15  N   UNL     1       2.300  -5.777   3.943  0.00  0.00    -0.206 N 
ATOM     16  H   UNL     1       2.615  -5.605   4.844  0.00  0.00    +0.177 HD
ATOM     17  H   UNL     1       1.087  -3.869   5.046  0.00  0.00    +0.192 HD
ATOM     18  H   UNL     1       0.177  -4.786  -0.544  0.00  0.00    +0.162 HD
ENDROOT
BRANCH  15  19
ATOM     19  N   UNL     1       2.786  -6.880   3.229  0.00  0.00    -0.187 NA
ATOM     20  C   UNL     1       3.659  -7.673   3.774  0.00  0.00    +0.142 C 
BRANCH  20  21
ATOM     21  C   UNL     1       4.170  -8.833   3.024  0.00  0.00    +0.041 A 
ATOM     22  C   UNL     1       5.105  -9.692   3.609  0.00  0.00    +0.028 A 
ATOM     23  C   UNL     1       5.581 -10.777   2.904  0.00  0.00    +0.022 A 
ATOM     24  C   UNL     1       5.136 -11.022   1.615  0.00  0.00    +0.064 A 
ATOM     25  C   UNL     1       4.210 -10.179   1.022  0.00  0.00    +0.163 A 
ATOM     26  C   UNL     1       3.717  -9.085   1.723  0.00  0.00    +0.167 A 
ATOM     27 BR   UNL     1       6.846 -11.935   3.699  0.00  0.00    -0.050 Br
BRANCH  26  28
ATOM     28  O   UNL     1       2.804  -8.259   1.147  0.00  0.00    -0.503 OA
ATOM     29  H   UNL     1       3.194  -7.523   0.656  0.00  0.00    +0.292 HD
ENDBRANCH  26  28
BRANCH  25  30
ATOM     30  O   UNL     1       3.778 -10.425  -0.244  0.00  0.00    -0.491 OA
ATOM     31  C   UNL     1       4.323 -11.570  -0.904  0.00  0.00    +0.277 C 
ENDBRANCH  25  30
ENDBRANCH  20  21
ENDBRANCH  15  19
TORSDOF 4
