REMARK  Name = ZINC59385512
REMARK  9 active torsions:
REMARK  status: ('A' for Active; 'I' for Inactive)
REMARK    1  A    between atoms: C_1  and  C_2
REMARK    2  A    between atoms: C_3  and  C_17
REMARK    3  A    between atoms: C_4  and  C_10
REMARK    4  A    between atoms: N_19  and  N_20
REMARK    5  A    between atoms: C_21  and  C_22
REMARK    6  A    between atoms: C_25  and  O_30
REMARK    7  A    between atoms: C_27  and  O_28
REMARK    8  A    between atoms: O_28  and  C_29
REMARK    9  A    between atoms: O_30  and  C_31
REMARK                            x       y       z     vdW  Elec       q    Type
REMARK                         _______ _______ _______ _____ _____    ______ ____
ROOT
ATOM      1  C   UNL     1      -0.825  -1.308  -2.645  0.00  0.00    +0.061 C 
ATOM      2  C   UNL     1      -0.318  -1.336  -1.226  0.00  0.00    +0.019 C 
ATOM      3  C   UNL     1      -1.077  -0.812  -0.240  0.00  0.00    +0.057 C 
ATOM      4  C   UNL     1      -0.530  -0.861   1.172  0.00  0.00    +0.142 C 
ATOM      5  N   UNL     1       0.793  -1.480   1.355  0.00  0.00    -0.288 N 
ATOM      6  C   UNL     1       1.432  -1.960   0.270  0.00  0.00    +0.304 C 
ATOM      7  O   UNL     1       2.525  -2.473   0.410  0.00  0.00    -0.252 OA
ATOM      8  N   UNL     1       0.899  -1.895  -0.957  0.00  0.00    -0.273 N 
ATOM      9  H   UNL     1       1.196  -1.540   2.235  0.00  0.00    +0.151 HD
ATOM     10  H   UNL     1       1.408  -2.263  -1.697  0.00  0.00    +0.156 HD
ENDROOT
BRANCH   4  11
ATOM     11  C   UNL     1      -1.517  -1.615   2.026  0.00  0.00    -0.022 A 
ATOM     12  C   UNL     1      -1.619  -2.989   1.914  0.00  0.00    +0.007 A 
ATOM     13  C   UNL     1      -2.523  -3.681   2.697  0.00  0.00    +0.015 A 
ATOM     14  C   UNL     1      -3.326  -2.998   3.594  0.00  0.00    +0.018 A 
ATOM     15  C   UNL     1      -3.223  -1.624   3.706  0.00  0.00    +0.015 A 
ATOM     16  C   UNL     1      -2.315  -0.933   2.926  0.00  0.00    +0.007 A 
ATOM     17 BR   UNL     1      -4.564  -3.945   4.665  0.00  0.00    -0.050 Br
ENDBRANCH   4  11
BRANCH   3  18
ATOM     18  C   UNL     1      -2.341  -0.236  -0.517  0.00  0.00    +0.263 C 
ATOM     19  O   UNL     1      -2.465   0.975  -0.548  0.00  0.00    -0.269 OA
ATOM     20  N   UNL     1      -3.407  -1.028  -0.746  0.00  0.00    -0.203 N 
ATOM     21  H   UNL     1      -3.326  -1.990  -0.648  0.00  0.00    +0.178 HD
BRANCH  20  22
ATOM     22  N   UNL     1      -4.632  -0.463  -1.124  0.00  0.00    -0.187 NA
ATOM     23  C   UNL     1      -5.659  -1.226  -1.344  0.00  0.00    +0.142 C 
BRANCH  23  24
ATOM     24  C   UNL     1      -6.947  -0.632  -1.742  0.00  0.00    +0.036 A 
ATOM     25  C   UNL     1      -8.055  -1.450  -1.974  0.00  0.00    +0.016 A 
ATOM     26  C   UNL     1      -9.258  -0.890  -2.346  0.00  0.00    +0.046 A 
ATOM     27  C   UNL     1      -9.373   0.487  -2.491  0.00  0.00    +0.124 A 
ATOM     28  C   UNL     1      -8.278   1.308  -2.262  0.00  0.00    +0.091 A 
ATOM     29  C   UNL     1      -7.067   0.758  -1.883  0.00  0.00    +0.132 A 
BRANCH  29  30
ATOM     30  O   UNL     1      -5.996   1.561  -1.654  0.00  0.00    -0.494 OA
ATOM     31  C   UNL     1      -6.192   2.967  -1.817  0.00  0.00    +0.277 C 
ENDBRANCH  29  30
BRANCH  27  32
ATOM     32  O   UNL     1     -10.562   1.032  -2.858  0.00  0.00    -0.495 OA
ATOM     33  C   UNL     1     -11.648   0.130  -3.078  0.00  0.00    +0.277 C 
ENDBRANCH  27  32
ENDBRANCH  23  24
ENDBRANCH  20  22
ENDBRANCH   3  18
TORSDOF 6
