REMARK  Name = ZINC49544019
REMARK  9 active torsions:
REMARK  status: ('A' for Active; 'I' for Inactive)
REMARK    1  A    between atoms: C_1  and  C_2
REMARK    2  A    between atoms: C_2  and  C_3
REMARK    3  A    between atoms: C_2  and  C_4
REMARK    4  A    between atoms: C_2  and  N_5
REMARK    5  A    between atoms: C_10  and  C_17
REMARK    6  A    between atoms: C_14  and  O_16
REMARK    7  A    between atoms: C_22  and  C_23
REMARK    8  A    between atoms: C_26  and  O_29
REMARK    9  A    between atoms: O_29  and  C_30
REMARK                            x       y       z     vdW  Elec       q    Type
REMARK                         _______ _______ _______ _____ _____    ______ ____
ROOT
ATOM      1  N   UNL     1       0.294  -0.623  -1.298  0.00  0.00    -0.241 N 
ATOM      2  C   UNL     1       0.674  -1.910  -1.617  0.00  0.00    +0.160 A 
ATOM      3  C   UNL     1       1.398  -1.828  -2.776  0.00  0.00    +0.034 A 
ATOM      4  C   UNL     1       1.443  -0.475  -3.158  0.00  0.00    +0.141 A 
ATOM      5  N   UNL     1       0.785   0.233  -2.284  0.00  0.00    -0.177 NA
ATOM      6  C   UNL     1       2.068  -2.911  -3.567  0.00  0.00    +0.115 C 
ATOM      7  S   UNL     1       1.180  -4.470  -3.503  0.00  0.00    -0.138 S 
ATOM      8  C   UNL     1       1.288  -5.028  -1.797  0.00  0.00    +0.165 C 
ATOM      9  C   UNL     1       0.503  -4.195  -0.863  0.00  0.00    +0.199 C 
ATOM     10  N   UNL     1       0.323  -2.955  -0.849  0.00  0.00    -0.197 NA
ENDROOT
BRANCH   6  11
ATOM     11  C   UNL     1       2.170  -2.470  -5.005  0.00  0.00    +0.015 A 
ATOM     12  C   UNL     1       3.254  -1.917  -5.592  0.00  0.00    +0.110 A 
ATOM     13  N   UNL     1       2.945  -1.665  -6.882  0.00  0.00    -0.284 N 
ATOM     14  H   UNL     1       3.536  -1.268  -7.542  0.00  0.00    +0.188 HD
ATOM     15  N   UNL     1       1.625  -2.076  -7.103  0.00  0.00    -0.174 NA
ATOM     16  C   UNL     1       1.155  -2.567  -5.976  0.00  0.00    +0.097 A 
BRANCH  16  17
ATOM     17  C   UNL     1      -0.205  -3.123  -5.765  0.00  0.00    +0.003 A 
ATOM     18  C   UNL     1      -0.935  -2.770  -4.631  0.00  0.00    +0.013 A 
ATOM     19  C   UNL     1      -2.199  -3.288  -4.438  0.00  0.00    +0.046 A 
ATOM     20  C   UNL     1      -2.744  -4.158  -5.371  0.00  0.00    +0.120 A 
ATOM     21  C   UNL     1      -2.019  -4.511  -6.502  0.00  0.00    +0.046 A 
ATOM     22  C   UNL     1      -0.757  -3.993  -6.703  0.00  0.00    +0.013 A 
BRANCH  20  23
ATOM     23  O   UNL     1      -3.989  -4.667  -5.178  0.00  0.00    -0.495 OA
ATOM     24  C   UNL     1      -4.489  -5.557  -6.178  0.00  0.00    +0.277 C 
ENDBRANCH  20  23
ENDBRANCH  16  17
ENDBRANCH   6  11
BRANCH   1  26
ATOM     25  C   UNL     1      -0.703   1.291  -0.147  0.00  0.00    +0.036 C 
ATOM     26  C   UNL     1      -0.494  -0.225  -0.129  0.00  0.00    +0.057 C 
ATOM     27  C   UNL     1       0.251  -0.621   1.147  0.00  0.00    +0.036 C 
ATOM     28  C   UNL     1      -1.852  -0.927  -0.166  0.00  0.00    +0.036 C 
ENDBRANCH   1  26
BRANCH   9  29
ATOM     29  O   UNL     1      -0.115  -4.873   0.126  0.00  0.00    -0.495 OA
ATOM     30  H   UNL     1      -0.624  -4.313   0.728  0.00  0.00    +0.293 HD
ENDBRANCH   9  29
TORSDOF 5
