REMARK  Name = ZINC62791804
REMARK  5 active torsions:
REMARK  status: ('A' for Active; 'I' for Inactive)
REMARK    1  A    between atoms: C_4  and  O_18
REMARK    2  A    between atoms: C_5  and  C_7
REMARK    3  A    between atoms: C_7  and  C_9
REMARK    4  A    between atoms: C_7  and  O_17
REMARK    5  A    between atoms: O_18  and  C_19
REMARK                            x       y       z     vdW  Elec       q    Type
REMARK                         _______ _______ _______ _____ _____    ______ ____
ROOT
ATOM      1  C   UNL     1      -0.017   1.378   0.010  0.00  0.00    +0.001 A 
ATOM      2  C   UNL     1       1.170   2.088   0.002  0.00  0.00    +0.004 A 
ATOM      3  C   UNL     1       2.377   1.417  -0.013  0.00  0.00    +0.046 A 
ATOM      4  C   UNL     1       2.399   0.030  -0.021  0.00  0.00    +0.136 A 
ATOM      5  C   UNL     1       1.207  -0.680  -0.013  0.00  0.00    +0.027 A 
ATOM      6  C   UNL     1       0.002  -0.004   0.002  0.00  0.00    +0.010 A 
ENDROOT
BRANCH   5   7
ATOM      7  C   UNL     1       1.227  -2.187  -0.022  0.00  0.00    +0.178 C 
BRANCH   7   8
ATOM      8  C   UNL     1       1.372  -2.695   1.389  0.00  0.00    -0.013 A 
ATOM      9  C   UNL     1       0.252  -2.852   2.185  0.00  0.00    +0.009 A 
ATOM     10  C   UNL     1       0.383  -3.318   3.479  0.00  0.00    +0.040 A 
ATOM     11  C   UNL     1       1.635  -3.630   3.980  0.00  0.00    +0.142 A 
ATOM     12  C   UNL     1       2.757  -3.473   3.182  0.00  0.00    +0.076 A 
ATOM     13  C   UNL     1       2.623  -3.010   1.885  0.00  0.00    +0.029 A 
ATOM     14 CL   UNL     1       4.329  -3.862   3.806  0.00  0.00    -0.081 Cl
ATOM     15  F   UNL     1       1.764  -4.086   5.245  0.00  0.00    -0.204 F 
ENDBRANCH   7   8
BRANCH   7  16
ATOM     16  O   UNL     1       0.006  -2.676  -0.582  0.00  0.00    -0.382 OA
ATOM     17  H   UNL     1      -0.785  -2.403  -0.098  0.00  0.00    +0.211 HD
ENDBRANCH   7  16
ENDBRANCH   5   7
BRANCH   4  18
ATOM     18  O   UNL     1       3.586  -0.632  -0.037  0.00  0.00    -0.405 OA
BRANCH  18  19
ATOM     19  C   UNL     1       4.772   0.164  -0.045  0.00  0.00    +0.575 C 
ATOM     20  F   UNL     1       4.804   0.965   1.101  0.00  0.00    -0.133 F 
ATOM     21  F   UNL     1       5.894  -0.672  -0.061  0.00  0.00    -0.133 F 
ATOM     22  F   UNL     1       4.781   0.977  -1.183  0.00  0.00    -0.133 F 
ENDBRANCH  18  19
ENDBRANCH   4  18
TORSDOF 5
