REMARK  Name = ZINC06396170
REMARK  8 active torsions:
REMARK  status: ('A' for Active; 'I' for Inactive)
REMARK    1  A    between atoms: C_1  and  C_2
REMARK    2  A    between atoms: C_2  and  C_3
REMARK    3  A    between atoms: C_3  and  C_4
REMARK    4  A    between atoms: C_3  and  C_5
REMARK    5  A    between atoms: C_3  and  C_6
REMARK    6  A    between atoms: C_15  and  O_27
REMARK    7  A    between atoms: C_17  and  C_20
REMARK    8  A    between atoms: C_21  and  C_22
REMARK                            x       y       z     vdW  Elec       q    Type
REMARK                         _______ _______ _______ _____ _____    ______ ____
ROOT
ATOM      1  C   UNL     1      -1.413  -2.063   0.004  0.00  0.00    -0.000 C 
ATOM      2  C   UNL     1      -2.848  -2.596   0.015  0.00  0.00    +0.009 C 
ATOM      3  C   UNL     1      -2.845  -4.104  -0.242  0.00  0.00    +0.037 C 
ATOM      4  C   UNL     1      -1.888  -4.768   0.742  0.00  0.00    -0.023 A 
ATOM      5  C   UNL     1      -0.943  -4.044   1.385  0.00  0.00    -0.004 A 
ATOM      6  S   UNL     1      -0.086  -5.217   2.404  0.00  0.00    -0.078 S 
ATOM      7  C   UNL     1      -0.963  -6.625   1.985  0.00  0.00    +0.080 A 
ATOM      8  C   UNL     1      -1.913  -6.186   1.054  0.00  0.00    +0.068 A 
ATOM      9  C   UNL     1      -2.831  -7.208   0.487  0.00  0.00    +0.220 C 
ATOM     10  N   UNL     1      -2.860  -8.380   1.061  0.00  0.00    -0.223 NA
ATOM     11  C   UNL     1      -2.106  -8.739   2.256  0.00  0.00    +0.217 C 
ATOM     12  N   UNL     1      -0.875  -7.936   2.383  0.00  0.00    -0.313 N 
ATOM     13  C   UNL     1      -0.686  -2.575   1.257  0.00  0.00    +0.046 C 
ATOM     14  H   UNL     1       0.042  -8.396   2.779  0.00  0.00    +0.149 HD
ENDROOT
BRANCH   1  15
ATOM     15  C   UNL     1      -1.433  -0.534   0.013  0.00  0.00    -0.032 C 
ATOM     16  C   UNL     1      -2.149  -0.040   1.272  0.00  0.00    +0.011 C 
ATOM     17  C   UNL     1      -2.173  -0.027  -1.227  0.00  0.00    +0.011 C 
BRANCH  15  19
ATOM     18  C   UNL     1      -0.019   1.526   0.010  0.00  0.00    +0.004 C 
ATOM     19  C   UNL     1       0.002  -0.004   0.002  0.00  0.00    +0.003 C 
ENDBRANCH  15  19
ENDBRANCH   1  15
BRANCH  11  20
ATOM     20  C   UNL     1      -2.970  -8.511   3.469  0.00  0.00    +0.022 C 
ATOM     21  C   UNL     1      -3.262  -9.525   4.278  0.00  0.00    +0.045 C 
BRANCH  21  22
ATOM     22  C   UNL     1      -4.105  -9.303   5.462  0.00  0.00    +0.127 A 
ATOM     23  C   UNL     1      -4.483 -10.250   6.365  0.00  0.00    +0.049 A 
ATOM     24  C   UNL     1      -5.277  -9.599   7.328  0.00  0.00    +0.042 A 
ATOM     25  C   UNL     1      -5.352  -8.302   6.968  0.00  0.00    +0.195 A 
ATOM     26  O   UNL     1      -4.643  -8.127   5.840  0.00  0.00    -0.464 OA
ENDBRANCH  21  22
ENDBRANCH  11  20
BRANCH   9  27
ATOM     27  O   UNL     1      -3.609  -6.933  -0.585  0.00  0.00    -0.492 OA
ATOM     28  H   UNL     1      -4.281  -7.704  -0.989  0.00  0.00    +0.294 HD
ENDBRANCH   9  27
TORSDOF 5
