REMARK  Name = ZINC01436384
REMARK  8 active torsions:
REMARK  status: ('A' for Active; 'I' for Inactive)
REMARK    1  A    between atoms: C_1  and  C_2
REMARK    2  A    between atoms: C_2  and  C_3
REMARK    3  A    between atoms: C_6  and  C_9
REMARK    4  A    between atoms: C_11  and  C_30
REMARK    5  A    between atoms: C_12  and  N_29
REMARK    6  A    between atoms: N_13  and  C_21
REMARK    7  A    between atoms: C_24  and  O_27
REMARK    8  A    between atoms: O_27  and  C_28
REMARK                            x       y       z     vdW  Elec       q    Type
REMARK                         _______ _______ _______ _____ _____    ______ ____
ROOT
ATOM      1  C   UNL     1      -2.704   2.141   2.997  0.00  0.00    +0.097 C 
ATOM      2  C   UNL     1      -1.785   1.261   3.792  0.00  0.00    +0.077 C 
ATOM      3  C   UNL     1      -0.473   1.138   3.463  0.00  0.00    +0.107 C 
ATOM      4  N   UNL     1       0.034   1.819   2.380  0.00  0.00    -0.260 N 
ATOM      5  C   UNL     1      -0.802   2.290   1.401  0.00  0.00    +0.024 C 
ATOM      6  C   UNL     1      -2.119   2.460   1.645  0.00  0.00    +0.025 C 
ATOM      7  C   UNL     1      -2.984   2.939   0.646  0.00  0.00    +0.162 C 
ATOM      8  O   UNL     1      -4.168   3.064   0.891  0.00  0.00    -0.292 OA
ATOM      9  C   UNL     1      -2.472   3.302  -0.721  0.00  0.00    +0.080 C 
ATOM     10  C   UNL     1      -1.009   3.742  -0.604  0.00  0.00    +0.014 C 
ATOM     11  C   UNL     1      -0.213   2.610   0.049  0.00  0.00    +0.052 C 
ENDROOT
BRANCH   1  15
ATOM     12  C   UNL     1      -3.354   5.781   5.136  0.00  0.00    -0.048 A 
ATOM     13  C   UNL     1      -4.419   4.945   4.855  0.00  0.00    +0.004 A 
ATOM     14  C   UNL     1      -4.208   3.767   4.163  0.00  0.00    +0.005 A 
ATOM     15  C   UNL     1      -2.934   3.425   3.751  0.00  0.00    -0.035 A 
ATOM     16  C   UNL     1      -1.869   4.259   4.036  0.00  0.00    +0.005 A 
ATOM     17  C   UNL     1      -2.080   5.440   4.724  0.00  0.00    +0.004 A 
BRANCH  12  19
ATOM     18  C   UNL     1      -3.444   6.805   7.392  0.00  0.00    +0.009 C 
ATOM     19  C   UNL     1      -3.584   7.065   5.891  0.00  0.00    +0.032 C 
ENDBRANCH  12  19
ENDBRANCH   1  15
BRANCH   4  20
ATOM     20  C   UNL     1       1.415   2.032   2.277  0.00  0.00    +0.040 A 
ATOM     21  C   UNL     1       2.216   1.097   1.635  0.00  0.00    +0.027 A 
ATOM     22  C   UNL     1       3.576   1.310   1.530  0.00  0.00    +0.047 A 
ATOM     23  C   UNL     1       4.144   2.453   2.074  0.00  0.00    +0.120 A 
ATOM     24  C   UNL     1       3.345   3.385   2.720  0.00  0.00    +0.047 A 
ATOM     25  C   UNL     1       1.984   3.176   2.822  0.00  0.00    +0.027 A 
BRANCH  23  26
ATOM     26  O   UNL     1       5.484   2.659   1.975  0.00  0.00    -0.495 OA
ATOM     27  C   UNL     1       6.246   1.659   1.297  0.00  0.00    +0.277 C 
ENDBRANCH  23  26
ENDBRANCH   4  20
BRANCH   3  28
ATOM     28  N   UNL     1       0.349   0.332   4.213  0.00  0.00    -0.345 N 
ATOM     29  H   UNL     1       0.016  -0.079   5.026  0.00  0.00    +0.144 HD
ATOM     30  H   UNL     1       1.263   0.173   3.928  0.00  0.00    +0.144 HD
ENDBRANCH   3  28
BRANCH   2  31
ATOM     31  C   UNL     1      -2.300   0.539   4.916  0.00  0.00    +0.099 C 
ATOM     32  N   UNL     1      -2.708  -0.034   5.808  0.00  0.00    -0.191 NA
ENDBRANCH   2  31
TORSDOF 6
