REMARK  Name = ZINC01414962
REMARK  7 active torsions:
REMARK  status: ('A' for Active; 'I' for Inactive)
REMARK    1  A    between atoms: C_1  and  C_2
REMARK    2  A    between atoms: C_3  and  C_29
REMARK    3  A    between atoms: C_6  and  N_7
REMARK    4  A    between atoms: N_7  and  S_8
REMARK    5  A    between atoms: S_8  and  C_11
REMARK    6  A    between atoms: C_14  and  N_17
REMARK    7  A    between atoms: N_17  and  C_18
REMARK                            x       y       z     vdW  Elec       q    Type
REMARK                         _______ _______ _______ _____ _____    ______ ____
ROOT
ATOM      1  C   UNL     1      -4.554  -1.960   1.002  0.00  0.00    +0.109 A 
ATOM      2  C   UNL     1      -3.876  -1.973   2.207  0.00  0.00    +0.030 A 
ATOM      3  C   UNL     1      -2.582  -1.497   2.279  0.00  0.00    +0.025 A 
ATOM      4  C   UNL     1      -1.961  -1.005   1.138  0.00  0.00    +0.030 A 
ATOM      5  C   UNL     1      -2.646  -0.989  -0.071  0.00  0.00    +0.025 A 
ATOM      6  C   UNL     1      -3.938  -1.472  -0.136  0.00  0.00    +0.030 A 
ENDROOT
BRANCH   1   7
ATOM      7  S   UNL     1      -6.205  -2.569   0.915  0.00  0.00    +0.075 S 
ATOM      8  O   UNL     1      -6.426  -2.953  -0.435  0.00  0.00    -0.150 OA
ATOM      9  O   UNL     1      -6.362  -3.474   2.000  0.00  0.00    -0.150 OA
BRANCH   7  10
ATOM     10  N   UNL     1      -7.215  -1.291   1.216  0.00  0.00    -0.183 N 
ATOM     11  H   UNL     1      -7.772  -1.290   2.010  0.00  0.00    +0.177 HD
BRANCH  10  17
ATOM     12  C   UNL     1      -9.030   1.235   1.526  0.00  0.00    +0.051 C 
ATOM     13  C   UNL     1      -8.043   0.890   0.440  0.00  0.00    +0.035 A 
ATOM     14  C   UNL     1      -7.709   1.646  -0.701  0.00  0.00    +0.085 A 
ATOM     15  N   UNL     1      -6.818   0.955  -1.356  0.00  0.00    -0.081 NA
ATOM     16  O   UNL     1      -6.558  -0.086  -0.799  0.00  0.00    -0.338 OA
ATOM     17  C   UNL     1      -7.263  -0.227   0.335  0.00  0.00    +0.240 A 
ATOM     18  C   UNL     1      -8.274   2.987  -1.091  0.00  0.00    +0.069 C 
ENDBRANCH  10  17
ENDBRANCH   7  10
ENDBRANCH   1   7
BRANCH   4  19
ATOM     19  N   UNL     1      -0.652  -0.522   1.206  0.00  0.00    -0.306 N 
ATOM     20  H   UNL     1      -0.175  -0.530   2.051  0.00  0.00    +0.150 HD
BRANCH  19  21
ATOM     21  C   UNL     1       0.002  -0.004   0.002  0.00  0.00    +0.296 C 
ATOM     22  C   UNL     1       1.454  -0.410  -0.014  0.00  0.00    +0.025 A 
ATOM     23  C   UNL     1       2.094  -1.628  -0.027  0.00  0.00    +0.010 A 
ATOM     24  C   UNL     1       3.478  -1.681  -0.040  0.00  0.00    +0.000 A 
ATOM     25  C   UNL     1       4.220  -0.513  -0.041  0.00  0.00    +0.001 A 
ATOM     26  C   UNL     1       3.589   0.713  -0.028  0.00  0.00    +0.015 A 
ATOM     27  C   UNL     1       2.194   0.775  -0.015  0.00  0.00    +0.067 A 
ATOM     28  C   UNL     1       1.246   1.905   0.000  0.00  0.00    +0.342 C 
ATOM     29  O   UNL     1       1.563   3.077   0.003  0.00  0.00    -0.245 OA
ATOM     30  O   UNL     1      -0.018   1.450   0.010  0.00  0.00    -0.435 OA
ENDBRANCH  19  21
ENDBRANCH   4  19
TORSDOF 5
