REMARK  Name = ZINC12657599
REMARK  9 active torsions:
REMARK  status: ('A' for Active; 'I' for Inactive)
REMARK    1  A    between atoms: C_1  and  C_2
REMARK    2  A    between atoms: C_2  and  O_3
REMARK    3  A    between atoms: O_3  and  C_4
REMARK    4  A    between atoms: N_6  and  N_7
REMARK    5  A    between atoms: C_8  and  C_9
REMARK    6  A    between atoms: C_8  and  C_10
REMARK    7  A    between atoms: C_15  and  C_33
REMARK    8  A    between atoms: C_25  and  C_32
REMARK    9  A    between atoms: C_28  and  O_31
REMARK                            x       y       z     vdW  Elec       q    Type
REMARK                         _______ _______ _______ _____ _____    ______ ____
ROOT
ATOM      1  C   UNL     1      -1.083   3.902  -2.353  0.00  0.00    -0.023 C 
ATOM      2  C   UNL     1      -0.998   5.114  -1.776  0.00  0.00    -0.021 C 
ATOM      3  C   UNL     1      -0.832   4.955  -0.264  0.00  0.00    +0.032 C 
ATOM      4  C   UNL     1      -0.158   3.574  -0.196  0.00  0.00    +0.007 C 
ATOM      5  C   UNL     1      -0.997   2.854  -1.273  0.00  0.00    -0.002 C 
ATOM      6  C   UNL     1      -0.352   1.541  -1.641  0.00  0.00    +0.012 C 
ATOM      7  C   UNL     1       0.548   1.086  -0.470  0.00  0.00    +0.005 C 
ATOM      8  C   UNL     1      -0.174   1.353   0.846  0.00  0.00    +0.003 C 
ATOM      9  C   UNL     1      -0.226   2.846   1.140  0.00  0.00    +0.001 C 
ATOM     10  C   UNL     1       1.001   3.310   1.931  0.00  0.00    +0.031 C 
ATOM     11  C   UNL     1       1.414   2.356   2.997  0.00  0.00    -0.027 C 
ATOM     12  C   UNL     1       1.101   1.097   3.018  0.00  0.00    -0.065 C 
ATOM     13  C   UNL     1       0.235   0.455   1.980  0.00  0.00    -0.008 C 
ATOM     14  C   UNL     1       0.902  -0.825   1.475  0.00  0.00    +0.014 C 
ATOM     15  C   UNL     1       1.314  -1.724   2.639  0.00  0.00    +0.032 C 
ATOM     16  C   UNL     1       2.300  -0.997   3.552  0.00  0.00    +0.119 C 
ATOM     17  C   UNL     1       1.627   0.240   4.155  0.00  0.00    +0.062 C 
ATOM     18  C   UNL     1      -1.070   0.036   2.680  0.00  0.00    +0.016 C 
ATOM     19  C   UNL     1      -2.434   2.613  -0.797  0.00  0.00    +0.016 C 
ENDROOT
BRANCH   1  21
ATOM     20  N   UNL     1      -0.189   3.419  -4.522  0.00  0.00    -0.182 NA
ATOM     21  C   UNL     1      -1.237   3.638  -3.785  0.00  0.00    +0.060 C 
ATOM     22  C   UNL     1      -2.611   3.619  -4.404  0.00  0.00    +0.067 C 
BRANCH  20  25
ATOM     23  C   UNL     1       2.159   3.065  -4.680  0.00  0.00    +0.420 C 
ATOM     24  O   UNL     1       3.265   3.052  -4.176  0.00  0.00    -0.225 OA
ATOM     25  N   UNL     1       1.085   3.404  -3.941  0.00  0.00    -0.172 N 
ATOM     26  H   UNL     1       1.195   3.639  -3.006  0.00  0.00    +0.181 HD
BRANCH  23  27
ATOM     27  O   UNL     1       2.007   2.740  -5.979  0.00  0.00    -0.450 OA
BRANCH  27  29
ATOM     28  C   UNL     1       2.839   2.049  -8.161  0.00  0.00    +0.048 C 
ATOM     29  C   UNL     1       3.208   2.385  -6.714  0.00  0.00    +0.230 C 
ENDBRANCH  27  29
ENDBRANCH  23  27
ENDBRANCH  20  25
ENDBRANCH   1  21
BRANCH  16  30
ATOM     30  O   UNL     1       2.709  -1.873   4.604  0.00  0.00    -0.391 OA
ATOM     31  H   UNL     1       3.339  -1.477   5.223  0.00  0.00    +0.210 HD
ENDBRANCH  16  30
TORSDOF 5
