REMARK  Name = ZINC15018066
REMARK  4 active torsions:
REMARK  status: ('A' for Active; 'I' for Inactive)
REMARK    1  A    between atoms: C_1  and  O_2
REMARK    2  A    between atoms: O_2  and  C_3
REMARK    3  A    between atoms: C_3  and  C_5
REMARK    4  A    between atoms: C_8  and  C_11
REMARK                            x       y       z     vdW  Elec       q    Type
REMARK                         _______ _______ _______ _____ _____    ______ ____
ROOT
ATOM      1  C   UNL     1       0.002  -0.004   0.002  0.00  0.00    +0.107 C 
ATOM      2  C   UNL     1       0.969  -0.499   1.065  0.00  0.00    +0.049 C 
ATOM      3  C   UNL     1       0.614   0.098   2.448  0.00  0.00    +0.036 C 
ATOM      4  C   UNL     1       1.985   0.084   3.162  0.00  0.00    +0.161 C 
ATOM      5  O   UNL     1       2.998   0.019   2.151  0.00  0.00    -0.372 OA
ATOM      6  C   UNL     1       2.387   0.055   0.844  0.00  0.00    +0.155 C 
ATOM      7  C   UNL     1       2.368   1.483   0.369  0.00  0.00    +0.003 A 
ATOM      8  C   UNL     1       3.567   2.181   0.345  0.00  0.00    +0.023 A 
ATOM      9  C   UNL     1       3.608   3.506  -0.031  0.00  0.00    +0.018 A 
ATOM     10  C   UNL     1       2.446   4.150  -0.420  0.00  0.00    +0.017 A 
ATOM     11  C   UNL     1       1.247   3.467  -0.404  0.00  0.00    +0.024 A 
ATOM     12  C   UNL     1       1.209   2.137   0.002  0.00  0.00    +0.033 A 
ATOM     13  N   UNL     1      -0.018   1.463   0.010  0.00  0.00    -0.336 N 
ATOM     14 BR   UNL     1       5.254   4.438  -0.053  0.00  0.00    -0.050 Br
ATOM     15  H   UNL     1      -0.856   1.951   0.017  0.00  0.00    +0.147 HD
ENDROOT
BRANCH   1  19
ATOM     16  C   UNL     1       1.268  -1.394  -3.839  0.00  0.00    +0.059 A 
ATOM     17  C   UNL     1       0.239  -2.049  -3.160  0.00  0.00    +0.015 A 
ATOM     18  C   UNL     1      -0.165  -1.596  -1.922  0.00  0.00    +0.006 A 
ATOM     19  C   UNL     1       0.448  -0.494  -1.352  0.00  0.00    -0.027 A 
ATOM     20  C   UNL     1       1.465   0.164  -2.021  0.00  0.00    +0.006 A 
ATOM     21  C   UNL     1       1.882  -0.282  -3.258  0.00  0.00    +0.015 A 
BRANCH  16  22
ATOM     22  C   UNL     1       1.706  -1.874  -5.166  0.00  0.00    +0.339 C 
ATOM     23  O   UNL     1       1.170  -2.841  -5.669  0.00  0.00    -0.245 OA
BRANCH  22  25
ATOM     24  C   UNL     1       3.077  -1.766  -7.117  0.00  0.00    +0.280 C 
ATOM     25  O   UNL     1       2.699  -1.239  -5.818  0.00  0.00    -0.464 OA
ENDBRANCH  22  25
ENDBRANCH  16  22
ENDBRANCH   1  19
TORSDOF 3
