REMARK  Name = ZINC09009120
REMARK  7 active torsions:
REMARK  status: ('A' for Active; 'I' for Inactive)
REMARK    1  A    between atoms: C_1  and  N_2
REMARK    2  A    between atoms: N_11  and  C_27
REMARK    3  A    between atoms: C_17  and  C_20
REMARK    4  A    between atoms: C_20  and  C_21
REMARK    5  A    between atoms: C_27  and  C_28
REMARK    6  A    between atoms: C_28  and  S_29
REMARK    7  A    between atoms: S_29  and  C_30
REMARK                            x       y       z     vdW  Elec       q    Type
REMARK                         _______ _______ _______ _____ _____    ______ ____
ROOT
ATOM      1  C   UNL     1      -3.291   2.020   5.084  0.00  0.00    +0.155 C 
ATOM      2  N   UNL     1      -3.045   1.291   3.837  0.00  0.00    -0.280 N 
ATOM      3  C   UNL     1      -2.039   1.707   2.979  0.00  0.00    +0.170 A 
ATOM      4  C   UNL     1      -1.827   0.997   1.802  0.00  0.00    +0.153 A 
ATOM      5  C   UNL     1      -2.635  -0.118   1.518  0.00  0.00    +0.280 A 
ATOM      6  O   UNL     1      -2.466  -0.755   0.493  0.00  0.00    -0.265 OA
ATOM      7  N   UNL     1      -3.598  -0.476   2.392  0.00  0.00    -0.273 N 
ATOM      8  H   UNL     1      -4.174  -1.268   2.193  0.00  0.00    +0.173 HD
ATOM      9  C   UNL     1      -3.795   0.217   3.527  0.00  0.00    +0.331 A 
ATOM     10  O   UNL     1      -4.673  -0.134   4.292  0.00  0.00    -0.246 OA
ATOM     11  N   UNL     1      -0.776   1.628   1.150  0.00  0.00    -0.305 N 
ATOM     12  C   UNL     1      -0.395   2.668   1.937  0.00  0.00    +0.201 A 
ATOM     13  N   UNL     1      -1.155   2.705   3.012  0.00  0.00    -0.196 NA
ATOM     14  N   UNL     1       0.624   3.549   1.653  0.00  0.00    -0.301 N 
ATOM     15  C   UNL     1       1.691   3.461   2.657  0.00  0.00    +0.108 C 
ATOM     16  C   UNL     1       2.867   4.343   2.233  0.00  0.00    +0.023 C 
ATOM     17  C   UNL     1       2.389   5.791   2.095  0.00  0.00    -0.004 C 
ATOM     18  C   UNL     1       1.245   5.848   1.078  0.00  0.00    +0.023 C 
ATOM     19  C   UNL     1       0.116   4.921   1.536  0.00  0.00    +0.108 C 
ENDROOT
BRANCH  17  20
ATOM     20  C   UNL     1       3.545   6.669   1.613  0.00  0.00    +0.038 C 
BRANCH  20  21
ATOM     21  C   UNL     1       4.619   6.711   2.669  0.00  0.00    -0.047 A 
ATOM     22  C   UNL     1       4.592   7.691   3.643  0.00  0.00    +0.003 A 
ATOM     23  C   UNL     1       5.574   7.727   4.615  0.00  0.00    +0.000 A 
ATOM     24  C   UNL     1       6.589   6.788   4.607  0.00  0.00    +0.000 A 
ATOM     25  C   UNL     1       6.618   5.810   3.631  0.00  0.00    +0.000 A 
ATOM     26  C   UNL     1       5.633   5.772   2.661  0.00  0.00    +0.003 A 
ENDBRANCH  20  21
ENDBRANCH  17  20
BRANCH  11  27
ATOM     27  C   UNL     1      -0.188   1.242  -0.135  0.00  0.00    +0.136 C 
BRANCH  27  28
ATOM     28  C   UNL     1      -0.952   1.925  -1.271  0.00  0.00    +0.100 C 
BRANCH  28  29
ATOM     29  S   UNL     1      -0.225   1.449  -2.859  0.00  0.00    -0.065 S 
BRANCH  29  30
ATOM     30  C   UNL     1      -1.268   2.351  -3.956  0.00  0.00    +0.258 A 
ATOM     31  N   UNL     1      -2.265   3.115  -3.585  0.00  0.00    -0.203 NA
ATOM     32  C   UNL     1      -2.840   3.651  -4.696  0.00  0.00    +0.110 A 
ATOM     33  C   UNL     1      -3.913   4.519  -4.902  0.00  0.00    +0.031 A 
ATOM     34  C   UNL     1      -4.264   4.880  -6.185  0.00  0.00    +0.002 A 
ATOM     35  C   UNL     1      -3.556   4.387  -7.270  0.00  0.00    +0.004 A 
ATOM     36  C   UNL     1      -2.492   3.528  -7.081  0.00  0.00    +0.048 A 
ATOM     37  C   UNL     1      -2.127   3.155  -5.798  0.00  0.00    +0.156 A 
ATOM     38  O   UNL     1      -1.160   2.352  -5.297  0.00  0.00    -0.431 OA
ENDBRANCH  29  30
ENDBRANCH  28  29
ENDBRANCH  27  28
ENDBRANCH  11  27
TORSDOF 6
