REMARK  Name = ZINC08448836
REMARK  8 active torsions:
REMARK  status: ('A' for Active; 'I' for Inactive)
REMARK    1  A    between atoms: C_1  and  C_2
REMARK    2  A    between atoms: C_5  and  C_8
REMARK    3  A    between atoms: C_8  and  O_10
REMARK    4  A    between atoms: O_10  and  C_11
REMARK    5  A    between atoms: C_12  and  O_33
REMARK    6  A    between atoms: C_14  and  C_18
REMARK    7  A    between atoms: C_29  and  N_58
REMARK    8  A    between atoms: O_33  and  C_34
REMARK                            x       y       z     vdW  Elec       q    Type
REMARK                         _______ _______ _______ _____ _____    ______ ____
ROOT
ATOM      1  C   UNL     1       0.468   6.262   6.195  0.00  0.00    +0.187 A 
ATOM      2  C   UNL     1      -0.738   6.726   5.677  0.00  0.00    +0.164 A 
ATOM      3  C   UNL     1      -1.757   5.831   5.394  0.00  0.00    +0.056 A 
ATOM      4  C   UNL     1      -1.576   4.481   5.626  0.00  0.00    -0.005 A 
ATOM      5  C   UNL     1      -0.381   4.019   6.146  0.00  0.00    +0.026 A 
ATOM      6  C   UNL     1       0.643   4.906   6.426  0.00  0.00    +0.064 A 
ATOM      7 BR   UNL     1       2.279   4.270   7.130  0.00  0.00    -0.046 Br
ENDROOT
BRANCH   4   8
ATOM      8  C   UNL     1      -2.686   3.509   5.318  0.00  0.00    +0.190 C 
ATOM      9  N   UNL     1      -2.101   2.208   4.949  0.00  0.00    -0.316 N 
ATOM     10  C   UNL     1      -1.689   2.064   3.649  0.00  0.00    +0.080 A 
ATOM     11  C   UNL     1      -2.202   2.838   2.596  0.00  0.00    +0.068 A 
ATOM     12  C   UNL     1      -1.661   2.551   1.280  0.00  0.00    -0.027 A 
ATOM     13  C   UNL     1      -0.724   1.574   1.230  0.00  0.00    -0.021 A 
ATOM     14  S   UNL     1      -0.549   1.025   2.905  0.00  0.00    -0.080 S 
ATOM     15  C   UNL     1      -0.013   1.086   0.008  0.00  0.00    -0.036 C 
ATOM     16  C   UNL     1      -1.005   3.020  -1.061  0.00  0.00    -0.074 C 
ATOM     17  C   UNL     1      -2.078   3.271   0.002  0.00  0.00    +0.018 C 
ATOM     18  C   UNL     1       0.005   1.281  -2.410  0.00  0.00    -0.096 C 
ATOM     19  C   UNL     1      -3.234   3.847   2.928  0.00  0.00    +0.248 C 
ATOM     20  O   UNL     1      -3.816   4.469   2.059  0.00  0.00    -0.270 OA
ATOM     21  N   UNL     1      -3.504   4.048   4.235  0.00  0.00    -0.289 N 
ATOM     22  H   UNL     1      -2.011   1.488   5.593  0.00  0.00    +0.149 HD
ATOM     23  H   UNL     1      -4.282   4.578   4.467  0.00  0.00    +0.151 HD
ATOM     24  N   UNL     1      -0.761   1.568  -1.178  0.00  0.00    +0.381 N 
ATOM     25  H   UNL     1      -1.663   1.080  -1.225  0.00  0.00    -0.082 HD
ENDBRANCH   4   8
BRANCH   2  26
ATOM     26  O   UNL     1      -0.914   8.055   5.450  0.00  0.00    -0.491 OA
ATOM     27  C   UNL     1      -2.177   8.459   4.917  0.00  0.00    +0.277 C 
ENDBRANCH   2  26
BRANCH   1  28
ATOM     28  O   UNL     1       1.471   7.136   6.475  0.00  0.00    -0.417 OA
BRANCH  28  29
ATOM     29  C   UNL     1       1.496   7.663   7.715  0.00  0.00    +0.345 C 
ATOM     30  O   UNL     1       0.645   7.351   8.524  0.00  0.00    -0.245 OA
BRANCH  29  35
ATOM     31  C   UNL     1       5.628  11.390   9.176  0.00  0.00    +0.044 C 
ATOM     32  C   UNL     1       4.545  10.414   8.794  0.00  0.00    -0.050 A 
ATOM     33  C   UNL     1       3.578  10.061   9.718  0.00  0.00    +0.004 A 
ATOM     34  C   UNL     1       2.584   9.168   9.374  0.00  0.00    +0.015 A 
ATOM     35  C   UNL     1       2.557   8.620   8.090  0.00  0.00    +0.059 A 
ATOM     36  C   UNL     1       3.539   8.976   7.164  0.00  0.00    +0.015 A 
ATOM     37  C   UNL     1       4.524   9.874   7.519  0.00  0.00    +0.004 A 
ENDBRANCH  29  35
ENDBRANCH  28  29
ENDBRANCH   1  28
TORSDOF 5
