REMARK  Name = ZINC63354542
REMARK  6 active torsions:
REMARK  status: ('A' for Active; 'I' for Inactive)
REMARK    1  A    between atoms: C_4  and  C_7
REMARK    2  A    between atoms: C_15  and  C_17
REMARK    3  A    between atoms: N_19  and  N_20
REMARK    4  A    between atoms: C_21  and  C_22
REMARK    5  A    between atoms: C_24  and  N_29
REMARK    6  A    between atoms: C_27  and  O_28
REMARK                            x       y       z     vdW  Elec       q    Type
REMARK                         _______ _______ _______ _____ _____    ______ ____
ROOT
ATOM      1  C   UNL     1       3.853  -0.667  -0.139  0.00  0.00    -0.000 C 
ATOM      2  C   UNL     1       5.172  -0.250  -0.187  0.00  0.00    +0.005 A 
ATOM      3  C   UNL     1       5.767   1.026  -0.347  0.00  0.00    +0.025 A 
ATOM      4  C   UNL     1       7.117   1.140  -0.357  0.00  0.00    +0.019 A 
ATOM      5  C   UNL     1       7.950   0.024  -0.213  0.00  0.00    +0.017 A 
ATOM      6  C   UNL     1       7.453  -1.225  -0.057  0.00  0.00    +0.027 A 
ATOM      7  C   UNL     1       6.047  -1.428  -0.036  0.00  0.00    +0.044 A 
ATOM      8  N   UNL     1       5.327  -2.520   0.100  0.00  0.00    -0.370 N 
ATOM      9  C   UNL     1       3.904  -2.166   0.057  0.00  0.00    +0.199 C 
ATOM     10 BR   UNL     1       7.896   2.850  -0.571  0.00  0.00    -0.050 Br
ATOM     11  H   UNL     1       5.680  -3.416   0.213  0.00  0.00    +0.161 HD
ENDROOT
BRANCH   1  15
ATOM     12  C   UNL     1       0.391   1.753  -0.456  0.00  0.00    +0.000 A 
ATOM     13  C   UNL     1       1.333   1.764  -1.471  0.00  0.00    +0.001 A 
ATOM     14  C   UNL     1       2.463   0.980  -1.377  0.00  0.00    +0.008 A 
ATOM     15  C   UNL     1       2.656   0.170  -0.249  0.00  0.00    -0.019 A 
ATOM     16  C   UNL     1       1.696   0.165   0.773  0.00  0.00    +0.008 A 
ATOM     17  C   UNL     1       0.573   0.956   0.661  0.00  0.00    +0.001 A 
ENDBRANCH   1  15
BRANCH   9  18
ATOM     18  C   UNL     1       3.234  -2.864  -1.098  0.00  0.00    +0.259 C 
ATOM     19  O   UNL     1       3.900  -3.296  -2.015  0.00  0.00    -0.271 OA
ATOM     20  N   UNL     1       1.894  -3.007  -1.113  0.00  0.00    -0.205 N 
ATOM     21  H   UNL     1       1.355  -2.600  -0.417  0.00  0.00    +0.177 HD
BRANCH  20  22
ATOM     22  N   UNL     1       1.279  -3.745  -2.133  0.00  0.00    -0.188 NA
ATOM     23  C   UNL     1      -0.011  -3.884  -2.147  0.00  0.00    +0.142 C 
BRANCH  23  24
ATOM     24  C   UNL     1      -0.657  -4.660  -3.220  0.00  0.00    +0.038 A 
ATOM     25  C   UNL     1      -2.046  -4.806  -3.242  0.00  0.00    +0.045 A 
ATOM     26  C   UNL     1      -2.645  -5.534  -4.249  0.00  0.00    +0.127 A 
ATOM     27  C   UNL     1      -1.875  -6.120  -5.239  0.00  0.00    +0.036 A 
ATOM     28  C   UNL     1      -0.500  -5.982  -5.229  0.00  0.00    +0.048 A 
ATOM     29  C   UNL     1       0.118  -5.250  -4.228  0.00  0.00    +0.126 A 
BRANCH  26  30
ATOM     30  N   UNL     1      -4.117  -5.688  -4.272  0.00  0.00    +0.056 N 
ATOM     31  O   UNL     1      -4.792  -5.178  -3.409  0.00  0.00    -0.126 OA
ATOM     32  O   UNL     1      -4.644  -6.325  -5.154  0.00  0.00    -0.126 OA
ENDBRANCH  26  30
BRANCH  29  33
ATOM     33  O   UNL     1       1.468  -5.110  -4.220  0.00  0.00    -0.506 OA
ATOM     34  H   UNL     1       1.933  -5.803  -3.731  0.00  0.00    +0.292 HD
ENDBRANCH  29  33
ENDBRANCH  23  24
ENDBRANCH  20  22
ENDBRANCH   9  18
TORSDOF 6
