REMARK  Name = ZINC36207847
REMARK  12 active torsions:
REMARK  status: ('A' for Active; 'I' for Inactive)
REMARK    1  A    between atoms: C_1  and  O_2
REMARK    2  A    between atoms: O_2  and  C_3
REMARK    3  A    between atoms: C_6  and  C_9
REMARK    4  A    between atoms: C_18  and  C_20
REMARK    5  A    between atoms: C_20  and  N_21
REMARK    6  A    between atoms: N_21  and  C_22
REMARK    7  A    between atoms: N_21  and  C_28
REMARK    8  A    between atoms: C_22  and  C_23
REMARK    9  A    between atoms: C_28  and  C_29
REMARK   10  A    between atoms: C_29  and  C_31
REMARK   11  A    between atoms: C_29  and  O_38
REMARK   12  A    between atoms: C_31  and  N_32
REMARK                            x       y       z     vdW  Elec       q    Type
REMARK                         _______ _______ _______ _____ _____    ______ ____
ROOT
ATOM      1  C   UNL     1      -6.498  -6.997  -2.884  0.00  0.00    -0.003 C 
ENDROOT
BRANCH   1  11
ATOM      2  C   UNL     1      -5.242  -3.744   1.625  0.00  0.00    +0.004 A 
ATOM      3  C   UNL     1      -6.344  -3.367   2.316  0.00  0.00    +0.056 A 
ATOM      4  S   UNL     1      -7.678  -4.130   1.413  0.00  0.00    -0.076 S 
ATOM      5  C   UNL     1      -6.734  -4.928   0.140  0.00  0.00    +0.116 A 
ATOM      6  C   UNL     1      -5.407  -4.581   0.442  0.00  0.00    +0.080 A 
ATOM      7  C   UNL     1      -4.413  -5.099  -0.447  0.00  0.00    +0.260 A 
ATOM      8  O   UNL     1      -3.232  -4.856  -0.265  0.00  0.00    -0.267 OA
ATOM      9  N   UNL     1      -4.801  -5.859  -1.488  0.00  0.00    -0.312 N 
ATOM     10  H   UNL     1      -4.131  -6.214  -2.093  0.00  0.00    +0.170 HD
ATOM     11  C   UNL     1      -6.111  -6.141  -1.705  0.00  0.00    +0.094 A 
ATOM     12  N   UNL     1      -7.041  -5.691  -0.906  0.00  0.00    -0.229 NA
BRANCH   2  16
ATOM     13  C   UNL     1      -1.372  -2.496   2.872  0.00  0.00    +0.120 A 
ATOM     14  C   UNL     1      -2.391  -1.563   2.740  0.00  0.00    +0.046 A 
ATOM     15  C   UNL     1      -3.647  -1.965   2.336  0.00  0.00    +0.012 A 
ATOM     16  C   UNL     1      -3.893  -3.309   2.059  0.00  0.00    -0.016 A 
ATOM     17  C   UNL     1      -2.866  -4.244   2.193  0.00  0.00    +0.012 A 
ATOM     18  C   UNL     1      -1.611  -3.835   2.593  0.00  0.00    +0.046 A 
BRANCH  13  20
ATOM     19  C   UNL     1       0.042  -0.706   3.542  0.00  0.00    +0.277 C 
ATOM     20  O   UNL     1      -0.135  -2.098   3.271  0.00  0.00    -0.495 OA
ENDBRANCH  13  20
ENDBRANCH   2  16
ENDBRANCH   1  11
BRANCH   1  21
ATOM     21  N   UNL     1      -7.958  -7.161  -2.911  0.00  0.00    +0.391 N 
ATOM     22  H   UNL     1      -8.276  -7.495  -2.013  0.00  0.00    -0.080 HD
BRANCH  21  23
ATOM     23  C   UNL     1      -8.591  -5.869  -3.205  0.00  0.00    -0.002 C 
BRANCH  23  24
ATOM     24  C   UNL     1     -10.088  -6.007  -3.102  0.00  0.00    +0.089 A 
ATOM     25  C   UNL     1     -10.810  -5.917  -1.972  0.00  0.00    +0.042 A 
ATOM     26  C   UNL     1     -12.164  -6.108  -2.334  0.00  0.00    +0.041 A 
ATOM     27  C   UNL     1     -12.187  -6.305  -3.664  0.00  0.00    +0.195 A 
ATOM     28  O   UNL     1     -10.927  -6.237  -4.125  0.00  0.00    -0.470 OA
ENDBRANCH  23  24
ENDBRANCH  21  23
BRANCH  21  29
ATOM     29  C   UNL     1      -8.322  -8.133  -3.951  0.00  0.00    -0.045 C 
BRANCH  29  30
ATOM     30  C   UNL     1      -7.824  -9.522  -3.547  0.00  0.00    +0.112 C 
BRANCH  30  31
ATOM     31  O   UNL     1      -6.398  -9.557  -3.620  0.00  0.00    -0.392 OA
ATOM     32  H   UNL     1      -6.044  -9.372  -4.501  0.00  0.00    +0.210 HD
ENDBRANCH  30  31
BRANCH  30  33
ATOM     33  C   UNL     1      -8.409 -10.569  -4.497  0.00  0.00    +0.114 C 
BRANCH  33  34
ATOM     34  N   UNL     1      -7.919 -11.902  -4.119  0.00  0.00    -0.296 NA
ATOM     35  C   UNL     1      -8.061 -12.851  -5.233  0.00  0.00    +0.112 C 
ATOM     36  C   UNL     1      -7.485 -14.207  -4.817  0.00  0.00    +0.175 C 
ATOM     37  O   UNL     1      -8.149 -14.658  -3.634  0.00  0.00    -0.377 OA
ATOM     38  C   UNL     1      -8.031 -13.758  -2.529  0.00  0.00    +0.175 C 
ATOM     39  C   UNL     1      -8.612 -12.397  -2.921  0.00  0.00    +0.112 C 
ENDBRANCH  33  34
ENDBRANCH  30  33
ENDBRANCH  29  30
ENDBRANCH  21  29
ENDBRANCH   1  21
TORSDOF 11
