REMARK  Name = ZINC10039444
REMARK  5 active torsions:
REMARK  status: ('A' for Active; 'I' for Inactive)
REMARK    1  A    between atoms: C_4  and  N_7
REMARK    2  A    between atoms: C_16  and  C_30
REMARK    3  A    between atoms: N_31  and  N_32
REMARK    4  A    between atoms: C_33  and  C_35
REMARK    5  A    between atoms: C_40  and  O_41
REMARK                            x       y       z     vdW  Elec       q    Type
REMARK                         _______ _______ _______ _____ _____    ______ ____
ROOT
ATOM      1  N   UNL     1       3.436  -0.587  -0.611  0.00  0.00    -0.210 N 
ATOM      2  C   UNL     1       4.612   0.050  -0.565  0.00  0.00    +0.231 C 
ATOM      3  O   UNL     1       4.775   1.239  -0.735  0.00  0.00    -0.274 OA
ATOM      4  C   UNL     1       5.708  -0.951  -0.266  0.00  0.00    +0.101 C 
ATOM      5  C   UNL     1       4.955  -2.288  -0.148  0.00  0.00    +0.109 C 
ATOM      6  C   UNL     1       3.510  -1.905  -0.384  0.00  0.00    +0.232 C 
ATOM      7  O   UNL     1       2.569  -2.670  -0.373  0.00  0.00    -0.274 OA
ATOM      8  C   UNL     1       5.407  -3.279  -1.241  0.00  0.00    +0.070 C 
ATOM      9  C   UNL     1       5.198  -2.551  -2.560  0.00  0.00    -0.027 A 
ATOM     10  C   UNL     1       4.415  -3.002  -3.584  0.00  0.00    +0.005 A 
ATOM     11  C   UNL     1       4.313  -2.234  -4.737  0.00  0.00    +0.000 A 
ATOM     12  C   UNL     1       4.993  -1.035  -4.842  0.00  0.00    +0.000 A 
ATOM     13  C   UNL     1       5.787  -0.582  -3.796  0.00  0.00    +0.004 A 
ATOM     14  C   UNL     1       5.882  -1.342  -2.666  0.00  0.00    -0.035 A 
ATOM     15  C   UNL     1       6.704  -0.961  -1.444  0.00  0.00    +0.062 C 
ATOM     16  C   UNL     1       7.598  -2.169  -1.210  0.00  0.00    -0.035 A 
ATOM     17  C   UNL     1       6.916  -3.393  -1.085  0.00  0.00    -0.027 A 
ATOM     18  C   UNL     1       7.590  -4.558  -0.859  0.00  0.00    +0.005 A 
ATOM     19  C   UNL     1       8.973  -4.518  -0.735  0.00  0.00    +0.000 A 
ATOM     20  C   UNL     1       9.651  -3.317  -0.838  0.00  0.00    +0.000 A 
ATOM     21  C   UNL     1       8.958  -2.122  -1.092  0.00  0.00    +0.004 A 
ENDROOT
BRANCH   1  25
ATOM     22  C   UNL     1      -0.162   1.373  -1.377  0.00  0.00    +0.000 A 
ATOM     23  C   UNL     1       0.069   0.817  -0.133  0.00  0.00    +0.002 A 
ATOM     24  C   UNL     1       1.260   0.167   0.124  0.00  0.00    +0.024 A 
ATOM     25  C   UNL     1       2.225   0.072  -0.869  0.00  0.00    +0.044 A 
ATOM     26  C   UNL     1       1.990   0.631  -2.117  0.00  0.00    +0.024 A 
ATOM     27  C   UNL     1       0.797   1.280  -2.368  0.00  0.00    +0.002 A 
ENDBRANCH   1  25
BRANCH   8  28
ATOM     28  C   UNL     1       4.703  -4.609  -1.161  0.00  0.00    +0.120 C 
ATOM     29  N   UNL     1       3.920  -4.860  -0.180  0.00  0.00    -0.191 NA
BRANCH  29  30
ATOM     30  N   UNL     1       3.265  -6.097  -0.105  0.00  0.00    -0.203 N 
ATOM     31  C   UNL     1       2.441  -6.362   0.927  0.00  0.00    +0.267 C 
ATOM     32  O   UNL     1       2.266  -5.527   1.795  0.00  0.00    -0.268 OA
ATOM     33  H   UNL     1       3.405  -6.762  -0.797  0.00  0.00    +0.178 HD
BRANCH  31  34
ATOM     34  C   UNL     1       1.752  -7.663   1.006  0.00  0.00    +0.080 A 
ATOM     35  C   UNL     1       1.955  -8.627   0.015  0.00  0.00    +0.017 A 
ATOM     36  C   UNL     1       1.308  -9.841   0.094  0.00  0.00    +0.001 A 
ATOM     37  C   UNL     1       0.456 -10.111   1.153  0.00  0.00    +0.004 A 
ATOM     38  C   UNL     1       0.247  -9.168   2.139  0.00  0.00    +0.046 A 
ATOM     39  C   UNL     1       0.894  -7.943   2.078  0.00  0.00    +0.129 A 
BRANCH  39  40
ATOM     40  O   UNL     1       0.693  -7.017   3.049  0.00  0.00    -0.506 OA
ATOM     41  H   UNL     1      -0.045  -6.417   2.874  0.00  0.00    +0.292 HD
ENDBRANCH  39  40
ENDBRANCH  31  34
ENDBRANCH  29  30
ENDBRANCH   8  28
TORSDOF 5
