REMARK  Name = ZINC00662997
REMARK  6 active torsions:
REMARK  status: ('A' for Active; 'I' for Inactive)
REMARK    1  A    between atoms: C_1  and  C_2
REMARK    2  A    between atoms: C_8  and  C_24
REMARK    3  A    between atoms: C_10  and  C_22
REMARK    4  A    between atoms: C_10  and  C_23
REMARK    5  A    between atoms: N_11  and  S_12
REMARK    6  A    between atoms: S_12  and  C_15
REMARK                            x       y       z     vdW  Elec       q    Type
REMARK                         _______ _______ _______ _____ _____    ______ ____
ROOT
ATOM      1  C   UNL     1       2.097  -3.766  -0.948  0.00  0.00    +0.044 C 
ATOM      2  C   UNL     1       2.158  -2.310  -0.563  0.00  0.00    -0.050 A 
ATOM      3  C   UNL     1       3.368  -1.746  -0.197  0.00  0.00    +0.005 A 
ATOM      4  C   UNL     1       3.441  -0.411   0.157  0.00  0.00    +0.025 A 
ATOM      5  C   UNL     1       2.296   0.364   0.144  0.00  0.00    +0.060 A 
ATOM      6  C   UNL     1       1.066  -0.205  -0.223  0.00  0.00    +0.001 A 
ATOM      7  C   UNL     1       1.005  -1.548  -0.578  0.00  0.00    +0.013 A 
ATOM      8  C   UNL     1      -0.139   0.648  -0.220  0.00  0.00    -0.043 C 
ATOM      9  C   UNL     1      -0.009   1.968  -0.181  0.00  0.00    +0.004 C 
ATOM     10  C   UNL     1       1.350   2.615  -0.157  0.00  0.00    +0.070 C 
ATOM     11  N   UNL     1       2.321   1.718   0.483  0.00  0.00    -0.193 N 
ATOM     12  C   UNL     1       1.798   2.910  -1.589  0.00  0.00    +0.038 C 
ATOM     13  C   UNL     1       1.274   3.926   0.629  0.00  0.00    +0.038 C 
ATOM     14  C   UNL     1      -1.510   0.022  -0.260  0.00  0.00    +0.044 C 
ENDROOT
BRANCH  11  15
ATOM     15  S   UNL     1       3.418   2.299   1.579  0.00  0.00    +0.075 S 
ATOM     16  O   UNL     1       2.788   3.381   2.252  0.00  0.00    -0.150 OA
ATOM     17  O   UNL     1       3.938   1.171   2.270  0.00  0.00    -0.150 OA
BRANCH  15  18
ATOM     18  C   UNL     1       4.756   2.988   0.662  0.00  0.00    +0.109 A 
ATOM     19  C   UNL     1       5.883   2.229   0.408  0.00  0.00    +0.030 A 
ATOM     20  C   UNL     1       6.931   2.767  -0.316  0.00  0.00    +0.017 A 
ATOM     21  C   UNL     1       6.855   4.069  -0.777  0.00  0.00    +0.018 A 
ATOM     22  C   UNL     1       5.729   4.830  -0.518  0.00  0.00    +0.017 A 
ATOM     23  C   UNL     1       4.680   4.289   0.201  0.00  0.00    +0.030 A 
ATOM     24 BR   UNL     1       8.291   4.808  -1.762  0.00  0.00    -0.050 Br
ENDBRANCH  15  18
ENDBRANCH  11  15
TORSDOF 2
