REMARK  Name = ZINC13471092
REMARK  15 active torsions:
REMARK  status: ('A' for Active; 'I' for Inactive)
REMARK    1  A    between atoms: C_1  and  N_69
REMARK    2  A    between atoms: C_5  and  C_7
REMARK    3  A    between atoms: C_8  and  O_12
REMARK    4  A    between atoms: O_12  and  C_13
REMARK    5  A    between atoms: C_13  and  C_14
REMARK    6  A    between atoms: C_14  and  C_15
REMARK    7  A    between atoms: C_15  and  C_16
REMARK    8  A    between atoms: C_16  and  C_17
REMARK    9  A    between atoms: C_17  and  C_18
REMARK   10  A    between atoms: C_18  and  C_19
REMARK   11  A    between atoms: C_19  and  C_20
REMARK   12  A    between atoms: C_20  and  O_21
REMARK   13  A    between atoms: O_21  and  C_22
REMARK   14  A    between atoms: C_23  and  C_27
REMARK   15  A    between atoms: C_32  and  N_71
REMARK                            x       y       z     vdW  Elec       q    Type
REMARK                         _______ _______ _______ _____ _____    ______ ____
ROOT
ATOM      1  C   UNL     1       0.232   3.308  -6.328  0.00  0.00    +0.000 C 
ENDROOT
BRANCH   1   2
ATOM      2  C   UNL     1       1.098   2.987  -5.108  0.00  0.00    +0.003 C 
BRANCH   2   3
ATOM      3  C   UNL     1       0.501   3.656  -3.868  0.00  0.00    +0.041 C 
BRANCH   3   4
ATOM      4  C   UNL     1       1.367   3.335  -2.648  0.00  0.00    +0.231 C 
BRANCH   4   5
ATOM      5  O   UNL     1       0.809   3.960  -1.491  0.00  0.00    -0.475 OA
BRANCH   5   7
ATOM      6  C   UNL     1       1.028   4.325   0.889  0.00  0.00    +0.137 A 
ATOM      7  C   UNL     1       1.463   3.773  -0.314  0.00  0.00    +0.250 A 
ATOM      8  N   UNL     1       2.559   3.050  -0.211  0.00  0.00    -0.154 NA
ATOM      9  S   UNL     1       2.936   3.159   1.448  0.00  0.00    +0.119 S 
ATOM     10  N   UNL     1       1.753   4.066   1.958  0.00  0.00    -0.187 NA
BRANCH   6  15
ATOM     11  C   UNL     1      -3.180   6.055  -1.109  0.00  0.00    -0.096 C 
ATOM     12  C   UNL     1      -2.251   7.015   0.914  0.00  0.00    -0.075 C 
ATOM     13  C   UNL     1      -1.688   6.622   2.282  0.00  0.00    +0.009 C 
ATOM     14  C   UNL     1      -0.475   5.752   2.102  0.00  0.00    -0.025 C 
ATOM     15  C   UNL     1      -0.188   5.161   0.962  0.00  0.00    -0.037 C 
ATOM     16  C   UNL     1      -1.042   5.292  -0.266  0.00  0.00    -0.041 C 
ATOM     17  N   UNL     1      -2.381   5.784   0.108  0.00  0.00    +0.381 N 
ATOM     18  H   UNL     1      -2.858   5.066   0.667  0.00  0.00    -0.082 HD
ENDBRANCH   6  15
ENDBRANCH   5   7
ENDBRANCH   4   5
ENDBRANCH   3   4
ENDBRANCH   2   3
ENDBRANCH   1   2
BRANCH   1  19
ATOM     19  C   UNL     1       0.829   2.639  -7.567  0.00  0.00    +0.000 C 
BRANCH  19  20
ATOM     20  C   UNL     1      -0.037   2.960  -8.787  0.00  0.00    +0.003 C 
BRANCH  20  21
ATOM     21  C   UNL     1       0.559   2.291 -10.027  0.00  0.00    +0.041 C 
BRANCH  21  22
ATOM     22  C   UNL     1      -0.307   2.611 -11.246  0.00  0.00    +0.231 C 
BRANCH  22  23
ATOM     23  O   UNL     1       0.251   1.987 -12.404  0.00  0.00    -0.475 OA
BRANCH  23  24
ATOM     24  C   UNL     1      -0.402   2.173 -13.581  0.00  0.00    +0.250 A 
ATOM     25  C   UNL     1       0.032   1.622 -14.784  0.00  0.00    +0.137 A 
ATOM     26  N   UNL     1      -0.694   1.880 -15.852  0.00  0.00    -0.187 NA
ATOM     27  S   UNL     1      -1.877   2.786 -15.343  0.00  0.00    +0.119 S 
ATOM     28  N   UNL     1      -1.505   2.887 -13.682  0.00  0.00    -0.154 NA
BRANCH  25  29
ATOM     29  C   UNL     1       1.250   0.787 -14.858  0.00  0.00    -0.037 C 
ATOM     30  C   UNL     1       1.674   0.401 -16.041  0.00  0.00    -0.025 C 
ATOM     31  C   UNL     1       2.900  -0.450 -16.226  0.00  0.00    +0.009 C 
ATOM     32  C   UNL     1       3.739  -0.434 -14.945  0.00  0.00    -0.075 C 
ATOM     33  C   UNL     1       1.941   0.415 -13.578  0.00  0.00    -0.041 C 
ATOM     34  C   UNL     1       3.633  -1.010 -12.593  0.00  0.00    -0.096 C 
ATOM     35  N   UNL     1       2.840  -0.731 -13.812  0.00  0.00    +0.381 N 
ATOM     36  H   UNL     1       2.276  -1.558 -14.040  0.00  0.00    -0.082 HD
ENDBRANCH  25  29
ENDBRANCH  23  24
ENDBRANCH  22  23
ENDBRANCH  21  22
ENDBRANCH  20  21
ENDBRANCH  19  20
ENDBRANCH   1  19
TORSDOF 13
