REMARK  Name = ZINC03770426
REMARK  11 active torsions:
REMARK  status: ('A' for Active; 'I' for Inactive)
REMARK    1  A    between atoms: C_1  and  C_2
REMARK    2  A    between atoms: C_5  and  N_9
REMARK    3  A    between atoms: C_6  and  C_8
REMARK    4  A    between atoms: C_10  and  C_12
REMARK    5  A    between atoms: C_17  and  C_20
REMARK    6  A    between atoms: C_20  and  C_21
REMARK    7  A    between atoms: C_21  and  O_23
REMARK    8  A    between atoms: O_23  and  C_24
REMARK    9  A    between atoms: C_25  and  N_38
REMARK   10  A    between atoms: C_26  and  C_36
REMARK   11  A    between atoms: C_27  and  C_29
REMARK                            x       y       z     vdW  Elec       q    Type
REMARK                         _______ _______ _______ _____ _____    ______ ____
ROOT
ATOM      1  C   UNL     1      -0.102   1.327  -0.016  0.00  0.00    +0.055 C 
ATOM      2  C   UNL     1       1.135   1.886  -0.039  0.00  0.00    +0.086 C 
ATOM      3  N   UNL     1       2.316   1.167  -0.068  0.00  0.00    -0.220 N 
ATOM      4  C   UNL     1       3.490   1.834  -0.089  0.00  0.00    +0.239 C 
ATOM      5  O   UNL     1       4.548   1.244  -0.115  0.00  0.00    -0.274 OA
ATOM      6  C   UNL     1       3.433   3.344  -0.079  0.00  0.00    +0.150 C 
ATOM      7  S   UNL     1       1.618   3.603  -0.039  0.00  0.00    -0.096 S 
ATOM      8  C   UNL     1       2.254  -0.234  -0.074  0.00  0.00    +0.110 C 
ATOM      9  C   UNL     1       1.102  -0.938  -0.054  0.00  0.00    +0.077 C 
ATOM     10  C   UNL     1      -0.212  -0.184  -0.022  0.00  0.00    +0.100 C 
ENDROOT
BRANCH  10  11
ATOM     11  C   UNL     1      -1.020  -0.594  -1.226  0.00  0.00    -0.032 A 
ATOM     12  C   UNL     1      -0.584  -0.262  -2.496  0.00  0.00    +0.005 A 
ATOM     13  C   UNL     1      -1.322  -0.641  -3.602  0.00  0.00    +0.003 A 
ATOM     14  C   UNL     1      -2.501  -1.343  -3.439  0.00  0.00    +0.038 A 
ATOM     15  C   UNL     1      -2.941  -1.671  -2.168  0.00  0.00    +0.124 A 
ATOM     16  C   UNL     1      -2.199  -1.296  -1.061  0.00  0.00    +0.043 A 
ATOM     17  F   UNL     1      -4.094  -2.357  -2.008  0.00  0.00    -0.205 F 
ENDBRANCH  10  11
BRANCH   1  19
ATOM     18  N   UNL     1      -2.474   1.559   0.025  0.00  0.00    -0.281 N 
ATOM     19  C   UNL     1      -1.254   2.131   0.008  0.00  0.00    +0.248 C 
ATOM     20  O   UNL     1      -1.149   3.345   0.012  0.00  0.00    -0.270 OA
ATOM     21  H   UNL     1      -2.558   0.596   0.103  0.00  0.00    +0.155 HD
BRANCH  18  26
ATOM     22  C   UNL     1      -7.123   4.786  -0.364  0.00  0.00    +0.044 C 
ATOM     23  C   UNL     1      -5.888   3.929  -0.260  0.00  0.00    -0.050 A 
ATOM     24  C   UNL     1      -4.740   4.288  -0.943  0.00  0.00    +0.005 A 
ATOM     25  C   UNL     1      -3.607   3.504  -0.851  0.00  0.00    +0.024 A 
ATOM     26  C   UNL     1      -3.620   2.355  -0.071  0.00  0.00    +0.037 A 
ATOM     27  C   UNL     1      -4.777   1.994   0.609  0.00  0.00    -0.029 A 
ATOM     28  C   UNL     1      -5.905   2.785   0.517  0.00  0.00    +0.008 A 
ATOM     29  C   UNL     1      -4.798   0.745   1.451  0.00  0.00    +0.045 C 
ENDBRANCH  18  26
ENDBRANCH   1  19
BRANCH   8  30
ATOM     30  N   UNL     1       3.437  -0.932  -0.103  0.00  0.00    -0.345 N 
ATOM     31  H   UNL     1       3.461  -1.831  -0.468  0.00  0.00    +0.144 HD
ATOM     32  H   UNL     1       4.248  -0.527   0.241  0.00  0.00    +0.144 HD
ENDBRANCH   8  30
BRANCH   9  33
ATOM     33  C   UNL     1       1.122  -2.369  -0.063  0.00  0.00    +0.099 C 
ATOM     34  N   UNL     1       1.138  -3.505  -0.070  0.00  0.00    -0.191 NA
ENDBRANCH   9  33
BRANCH   6  35
ATOM     35  C   UNL     1       4.103   3.916   1.173  0.00  0.00    +0.144 C 
BRANCH  35  36
ATOM     36  C   UNL     1       4.134   5.420   1.084  0.00  0.00    +0.308 C 
ATOM     37  O   UNL     1       3.668   5.977   0.118  0.00  0.00    -0.251 OA
BRANCH  36  38
ATOM     38  O   UNL     1       4.678   6.140   2.077  0.00  0.00    -0.468 OA
ATOM     39  C   UNL     1       4.673   7.584   1.924  0.00  0.00    +0.280 C 
ENDBRANCH  36  38
ENDBRANCH  35  36
ENDBRANCH   6  35
TORSDOF 8
