REMARK  Name = ZINC19793139
REMARK  10 active torsions:
REMARK  status: ('A' for Active; 'I' for Inactive)
REMARK    1  A    between atoms: C_1  and  C_2
REMARK    2  A    between atoms: C_4  and  O_10
REMARK    3  A    between atoms: C_6  and  C_9
REMARK    4  A    between atoms: O_10  and  C_11
REMARK    5  A    between atoms: C_17  and  O_37
REMARK    6  A    between atoms: C_18  and  C_26
REMARK    7  A    between atoms: C_21  and  C_22
REMARK    8  A    between atoms: C_26  and  N_27
REMARK    9  A    between atoms: C_29  and  C_36
REMARK   10  A    between atoms: C_32  and  C_35
REMARK                            x       y       z     vdW  Elec       q    Type
REMARK                         _______ _______ _______ _____ _____    ______ ____
ROOT
ATOM      1  C   UNL     1      -1.984  -2.864   5.809  0.00  0.00    +0.222 A 
ATOM      2  C   UNL     1      -3.222  -2.392   5.286  0.00  0.00    +0.235 A 
ATOM      3  O   UNL     1      -4.251  -3.033   5.413  0.00  0.00    -0.283 OA
ATOM      4  C   UNL     1      -3.207  -1.096   4.585  0.00  0.00    +0.068 A 
ATOM      5  C   UNL     1      -4.369  -0.551   4.038  0.00  0.00    +0.019 A 
ATOM      6  C   UNL     1      -4.316   0.652   3.394  0.00  0.00    +0.046 A 
ATOM      7  C   UNL     1      -3.108   1.340   3.286  0.00  0.00    +0.125 A 
ATOM      8  C   UNL     1      -1.945   0.810   3.819  0.00  0.00    +0.051 A 
ATOM      9  C   UNL     1      -1.983  -0.412   4.476  0.00  0.00    +0.147 A 
ATOM     10  O   UNL     1      -0.866  -0.948   5.007  0.00  0.00    -0.447 OA
ATOM     11  C   UNL     1      -0.869  -2.125   5.647  0.00  0.00    +0.254 A 
ENDROOT
BRANCH  11  12
ATOM     12  C   UNL     1       0.429  -2.644   6.209  0.00  0.00    +0.454 C 
ATOM     13  F   UNL     1       1.076  -3.424   5.244  0.00  0.00    -0.163 F 
ATOM     14  F   UNL     1       1.248  -1.567   6.563  0.00  0.00    -0.163 F 
ATOM     15  F   UNL     1       0.169  -3.424   7.341  0.00  0.00    -0.163 F 
ENDBRANCH  11  12
BRANCH   7  16
ATOM     16  O   UNL     1      -3.072   2.538   2.649  0.00  0.00    -0.506 OA
ATOM     17  H   UNL     1      -2.122   3.085   2.561  0.00  0.00    +0.292 HD
ENDBRANCH   7  16
BRANCH   1  18
ATOM     18  O   UNL     1      -1.929  -4.053   6.469  0.00  0.00    -0.448 OA
BRANCH  18  22
ATOM     19  C   UNL     1      -1.289  -8.889   6.314  0.00  0.00    +0.045 C 
ATOM     20  C   UNL     1      -1.361  -7.548   5.632  0.00  0.00    -0.028 A 
ATOM     21  C   UNL     1      -1.614  -6.409   6.372  0.00  0.00    +0.051 A 
ATOM     22  C   UNL     1      -1.680  -5.174   5.742  0.00  0.00    +0.129 A 
ATOM     23  C   UNL     1      -1.497  -5.087   4.370  0.00  0.00    +0.051 A 
ATOM     24  C   UNL     1      -1.239  -6.227   3.634  0.00  0.00    -0.028 A 
ATOM     25  C   UNL     1      -1.173  -7.457   4.264  0.00  0.00    +0.047 A 
ATOM     26 CL   UNL     1      -0.855  -8.890   3.336  0.00  0.00    -0.083 Cl
ATOM     27  C   UNL     1      -1.034  -6.131   2.144  0.00  0.00    +0.045 C 
ENDBRANCH  18  22
ENDBRANCH   1  18
BRANCH   8  28
ATOM     28  C   UNL     1      -0.645   1.561   3.691  0.00  0.00    +0.127 C 
BRANCH  28  29
ATOM     29  N   UNL     1       0.036   1.154   2.454  0.00  0.00    -0.293 NA
ATOM     30  C   UNL     1      -0.724   1.581   1.270  0.00  0.00    +0.116 C 
ATOM     31  C   UNL     1      -0.013   1.086   0.008  0.00  0.00    +0.130 C 
ATOM     32  O   UNL     1       1.329   1.582  -0.002  0.00  0.00    -0.371 OA
ATOM     33  C   UNL     1       2.098   1.185   1.136  0.00  0.00    +0.130 C 
ATOM     34  C   UNL     1       1.407   1.681   2.410  0.00  0.00    +0.116 C 
ATOM     35  C   UNL     1       2.206  -0.341   1.173  0.00  0.00    +0.039 C 
ATOM     36  C   UNL     1      -0.754   1.593  -1.230  0.00  0.00    +0.039 C 
ENDBRANCH  28  29
ENDBRANCH   8  28
TORSDOF 6
