REMARK  Name = ZINC37316407
REMARK  5 active torsions:
REMARK  status: ('A' for Active; 'I' for Inactive)
REMARK    1  A    between atoms: C_1  and  C_2
REMARK    2  A    between atoms: C_2  and  C_3
REMARK    3  A    between atoms: C_3  and  C_5
REMARK    4  A    between atoms: C_3  and  N_12
REMARK    5  A    between atoms: N_12  and  C_13
REMARK                            x       y       z     vdW  Elec       q    Type
REMARK                         _______ _______ _______ _____ _____    ______ ____
ROOT
ATOM      1  N   UNL     1      -0.055  -0.114  -2.441  0.00  0.00    -0.337 N 
ATOM      2  H   UNL     1      -0.683  -0.740  -2.833  0.00  0.00    +0.147 HD
ENDROOT
BRANCH   1   3
ATOM      3  C   UNL     1       0.113   1.155  -3.005  0.00  0.00    +0.030 A 
ATOM      4  C   UNL     1       1.018   2.050  -2.445  0.00  0.00    +0.026 A 
ATOM      5  C   UNL     1       1.188   3.304  -2.997  0.00  0.00    +0.050 A 
ATOM      6  C   UNL     1       0.455   3.675  -4.114  0.00  0.00    +0.157 A 
ATOM      7  C   UNL     1      -0.454   2.778  -4.677  0.00  0.00    +0.089 A 
ATOM      8  C   UNL     1      -0.619   1.518  -4.126  0.00  0.00    +0.052 A 
ATOM      9  N   UNL     1      -1.029   3.427  -5.769  0.00  0.00    -0.288 N 
ATOM     10  H   UNL     1      -1.700   3.061  -6.365  0.00  0.00    +0.172 HD
ATOM     11  C   UNL     1      -0.481   4.656  -5.846  0.00  0.00    +0.419 A 
ATOM     12  O   UNL     1      -0.752   5.495  -6.683  0.00  0.00    -0.223 OA
ATOM     13  O   UNL     1       0.411   4.811  -4.854  0.00  0.00    -0.408 OA
ENDBRANCH   1   3
BRANCH   1  14
ATOM     14  C   UNL     1       0.718  -0.497  -1.257  0.00  0.00    +0.100 C 
BRANCH  14  15
ATOM     15  C   UNL     1       0.847  -1.998  -1.206  0.00  0.00    -0.026 A 
ATOM     16  C   UNL     1      -0.227  -2.796  -1.552  0.00  0.00    +0.005 A 
ATOM     17  C   UNL     1      -0.109  -4.173  -1.506  0.00  0.00    +0.001 A 
ATOM     18  C   UNL     1       1.083  -4.752  -1.112  0.00  0.00    +0.015 A 
ATOM     19  C   UNL     1       2.158  -3.954  -0.766  0.00  0.00    +0.018 A 
ATOM     20  C   UNL     1       2.041  -2.576  -0.818  0.00  0.00    +0.020 A 
ATOM     21 BR   UNL     1       3.789  -4.745  -0.228  0.00  0.00    -0.050 Br
ENDBRANCH  14  15
BRANCH  14  23
ATOM     22  C   UNL     1      -0.019   1.526   0.010  0.00  0.00    +0.006 C 
ATOM     23  C   UNL     1       0.002  -0.004   0.002  0.00  0.00    +0.023 C 
ENDBRANCH  14  23
ENDBRANCH   1  14
TORSDOF 4
