REMARK  Name = ZINC02311558
REMARK  4 active torsions:
REMARK  status: ('A' for Active; 'I' for Inactive)
REMARK    1  A    between atoms: C_1  and  C_2
REMARK    2  A    between atoms: C_2  and  O_3
REMARK    3  A    between atoms: C_8  and  C_22
REMARK    4  A    between atoms: C_11  and  C_15
REMARK                            x       y       z     vdW  Elec       q    Type
REMARK                         _______ _______ _______ _____ _____    ______ ____
ROOT
ATOM      1  C   UNL     1       0.034   1.372  -2.536  0.00  0.00    +0.107 C 
ATOM      2  C   UNL     1       0.166  -0.080  -2.153  0.00  0.00    +0.164 C 
ATOM      3  N   UNL     1      -0.128  -0.463  -0.947  0.00  0.00    -0.298 N 
ATOM      4  C   UNL     1      -0.170  -1.800  -0.643  0.00  0.00    +0.251 A 
ATOM      5  N   UNL     1      -0.029  -2.788  -1.506  0.00  0.00    -0.129 NA
ATOM      6  N   UNL     1      -0.136  -3.973  -0.779  0.00  0.00    -0.219 N 
ATOM      7  C   UNL     1      -0.047  -5.357  -1.237  0.00  0.00    +0.165 C 
ATOM      8  C   UNL     1      -0.513  -6.284  -0.147  0.00  0.00    +0.028 C 
ATOM      9  C   UNL     1      -0.714  -5.895   1.104  0.00  0.00    +0.039 C 
ATOM     10  N   UNL     1      -0.510  -4.570   1.512  0.00  0.00    -0.283 N 
ATOM     11  C   UNL     1      -0.347  -3.620   0.514  0.00  0.00    +0.220 A 
ATOM     12  N   UNL     1      -0.357  -2.318   0.585  0.00  0.00    -0.178 NA
ATOM     13  H   UNL     1      -0.318   0.197  -0.261  0.00  0.00    +0.171 HD
ATOM     14  H   UNL     1      -0.484  -4.327   2.450  0.00  0.00    +0.155 HD
ENDROOT
BRANCH   9  15
ATOM     15  C   UNL     1      -1.167  -6.891   2.102  0.00  0.00    -0.004 A 
ATOM     16  C   UNL     1      -1.372  -8.217   1.723  0.00  0.00    +0.011 A 
ATOM     17  C   UNL     1      -1.794  -9.141   2.657  0.00  0.00    +0.020 A 
ATOM     18  C   UNL     1      -2.015  -8.754   3.967  0.00  0.00    +0.041 A 
ATOM     19  C   UNL     1      -1.813  -7.438   4.349  0.00  0.00    +0.020 A 
ATOM     20  C   UNL     1      -1.385  -6.507   3.425  0.00  0.00    +0.011 A 
ATOM     21 CL   UNL     1      -2.548  -9.921   5.137  0.00  0.00    -0.084 Cl
ENDBRANCH   9  15
BRANCH   7  22
ATOM     22  C   UNL     1       1.383  -5.678  -1.588  0.00  0.00    -0.019 A 
ATOM     23  C   UNL     1       2.369  -5.585  -0.623  0.00  0.00    +0.006 A 
ATOM     24  C   UNL     1       3.681  -5.879  -0.945  0.00  0.00    +0.000 A 
ATOM     25  C   UNL     1       4.007  -6.267  -2.232  0.00  0.00    +0.000 A 
ATOM     26  C   UNL     1       3.021  -6.360  -3.196  0.00  0.00    +0.000 A 
ATOM     27  C   UNL     1       1.708  -6.070  -2.873  0.00  0.00    +0.006 A 
ENDBRANCH   7  22
BRANCH   2  28
ATOM     28  O   UNL     1       0.590  -0.981  -3.062  0.00  0.00    -0.497 OA
ATOM     29  H   UNL     1       0.744  -1.864  -2.699  0.00  0.00    +0.293 HD
ENDBRANCH   2  28
TORSDOF 3
