REMARK  Name = ZINC20058977
REMARK  6 active torsions:
REMARK  status: ('A' for Active; 'I' for Inactive)
REMARK    1  A    between atoms: C_1  and  C_2
REMARK    2  A    between atoms: C_9  and  C_11
REMARK    3  A    between atoms: C_12  and  C_36
REMARK    4  A    between atoms: C_16  and  C_18
REMARK    5  A    between atoms: C_21  and  O_24
REMARK    6  A    between atoms: C_28  and  C_31
REMARK                            x       y       z     vdW  Elec       q    Type
REMARK                         _______ _______ _______ _____ _____    ______ ____
ROOT
ATOM      1  C   UNL     1      -4.745  -4.141   1.375  0.00  0.00    +0.043 C 
ATOM      2  C   UNL     1      -4.140  -3.676   2.481  0.00  0.00    +0.014 C 
ATOM      3  N   UNL     1      -2.873  -3.166   2.416  0.00  0.00    -0.321 N 
ATOM      4  C   UNL     1      -2.348  -2.750   1.222  0.00  0.00    +0.016 C 
ATOM      5  C   UNL     1      -2.883  -3.171   0.055  0.00  0.00    +0.024 C 
ATOM      6  C   UNL     1      -4.054  -4.121   0.043  0.00  0.00    +0.090 C 
ATOM      7  C   UNL     1      -2.362  -2.741  -1.178  0.00  0.00    +0.162 C 
ATOM      8  O   UNL     1      -2.862  -3.145  -2.209  0.00  0.00    -0.292 OA
ATOM      9  C   UNL     1      -1.199  -1.790  -1.244  0.00  0.00    +0.091 C 
ATOM     10  C   UNL     1      -1.202  -0.910   0.011  0.00  0.00    +0.068 C 
ATOM     11  C   UNL     1      -1.162  -1.819   1.241  0.00  0.00    +0.062 C 
ATOM     12  C   UNL     1      -4.863  -3.719   3.803  0.00  0.00    +0.061 C 
ATOM     13  H   UNL     1      -2.265  -3.085   3.329  0.00  0.00    +0.152 HD
ENDROOT
BRANCH   1  22
ATOM     14  C   UNL     1     -11.725  -7.547   0.895  0.00  0.00    +0.045 C 
ATOM     15  C   UNL     1     -10.372  -6.908   0.717  0.00  0.00    -0.032 A 
ATOM     16  C   UNL     1      -9.756  -6.906  -0.528  0.00  0.00    +0.008 A 
ATOM     17  C   UNL     1      -8.514  -6.308  -0.649  0.00  0.00    +0.044 A 
ATOM     18  C   UNL     1      -7.929  -5.732   0.473  0.00  0.00    +0.125 A 
ATOM     19  N   UNL     1      -8.546  -5.760   1.644  0.00  0.00    -0.240 NA
ATOM     20  C   UNL     1      -9.732  -6.318   1.788  0.00  0.00    +0.116 A 
ATOM     21  N   UNL     1      -6.679  -5.127   0.366  0.00  0.00    -0.267 N 
ATOM     22  C   UNL     1      -6.060  -4.658   1.468  0.00  0.00    +0.248 C 
ATOM     23  O   UNL     1      -6.632  -4.679   2.542  0.00  0.00    -0.270 OA
ATOM     24  H   UNL     1      -6.197  -5.032  -0.618  0.00  0.00    +0.157 HD
ENDBRANCH   1  22
BRANCH   6  25
ATOM     25  C   UNL     1      -3.563  -5.508  -0.280  0.00  0.00    -0.035 A 
ATOM     26  C   UNL     1      -2.634  -6.120   0.541  0.00  0.00    +0.008 A 
ATOM     27  C   UNL     1      -2.186  -7.394   0.250  0.00  0.00    +0.046 A 
ATOM     28  C   UNL     1      -2.661  -8.056  -0.873  0.00  0.00    +0.117 A 
ATOM     29  C   UNL     1      -3.590  -7.438  -1.698  0.00  0.00    +0.046 A 
ATOM     30  C   UNL     1      -4.038  -6.166  -1.399  0.00  0.00    +0.008 A 
BRANCH  28  31
ATOM     31  O   UNL     1      -2.218  -9.306  -1.164  0.00  0.00    -0.507 OA
ATOM     32  H   UNL     1      -2.595  -9.830  -2.055  0.00  0.00    +0.292 HD
ENDBRANCH  28  31
ENDBRANCH   6  25
BRANCH  10  33
ATOM     33  C   UNL     1       0.010  -0.014   0.004  0.00  0.00    +0.109 A 
ATOM     34  C   UNL     1      -0.006   1.331   0.011  0.00  0.00    +0.045 A 
ATOM     35  C   UNL     1       1.342   1.757   0.001  0.00  0.00    +0.041 A 
ATOM     36  C   UNL     1       2.101   0.647  -0.012  0.00  0.00    +0.195 A 
ATOM     37  O   UNL     1       1.289  -0.423  -0.011  0.00  0.00    -0.468 OA
ENDBRANCH  10  33
TORSDOF 4
