REMARK  Name = ZINC25990590
REMARK  13 active torsions:
REMARK  status: ('A' for Active; 'I' for Inactive)
REMARK    1  A    between atoms: C_1  and  C_2
REMARK    2  A    between atoms: C_2  and  C_4
REMARK    3  A    between atoms: C_2  and  C_11
REMARK    4  A    between atoms: C_4  and  C_5
REMARK    5  A    between atoms: C_5  and  C_6
REMARK    6  A    between atoms: C_6  and  C_7
REMARK    7  A    between atoms: C_7  and  C_8
REMARK    8  A    between atoms: C_7  and  C_9
REMARK    9  A    between atoms: C_7  and  O_10
REMARK   10  A    between atoms: C_17  and  C_35
REMARK   11  A    between atoms: C_22  and  C_23
REMARK   12  A    between atoms: C_26  and  O_34
REMARK   13  A    between atoms: C_29  and  O_33
REMARK                            x       y       z     vdW  Elec       q    Type
REMARK                         _______ _______ _______ _____ _____    ______ ____
ROOT
ATOM      1  C   UNL     1      -0.052   1.212  -0.083  0.00  0.00    -0.002 C 
ATOM      2  C   UNL     1      -0.796   1.673   1.180  0.00  0.00    +0.005 C 
ATOM      3  C   UNL     1      -1.911   2.628   0.725  0.00  0.00    +0.009 C 
ATOM      4  C   UNL     1      -2.103   2.359  -0.780  0.00  0.00    +0.021 C 
ATOM      5  C   UNL     1      -0.726   1.899  -1.283  0.00  0.00    -0.022 C 
ATOM      6  C   UNL     1       0.108   3.105  -1.710  0.00  0.00    +0.008 C 
ATOM      7  C   UNL     1      -0.547   3.752  -2.930  0.00  0.00    +0.005 C 
ATOM      8  C   UNL     1      -1.896   4.343  -2.550  0.00  0.00    +0.031 C 
ATOM      9  C   UNL     1      -2.580   3.587  -1.468  0.00  0.00    -0.066 C 
ATOM     10  C   UNL     1      -3.760   4.067  -1.077  0.00  0.00    -0.000 C 
ATOM     11  C   UNL     1      -0.883   0.910  -2.440  0.00  0.00    +0.012 C 
ENDROOT
BRANCH  10  12
ATOM     12  C   UNL     1      -4.303   5.274  -1.704  0.00  0.00    +0.004 C 
ATOM     13  C   UNL     1      -5.498   5.761  -1.309  0.00  0.00    -0.040 C 
ATOM     14  C   UNL     1      -6.094   7.007  -1.932  0.00  0.00    +0.067 C 
ATOM     15  C   UNL     1      -6.599   7.915  -0.806  0.00  0.00    +0.122 C 
ATOM     16  C   UNL     1      -7.621   7.164   0.047  0.00  0.00    +0.067 C 
ATOM     17  C   UNL     1      -6.934   6.009   0.783  0.00  0.00    +0.147 C 
ATOM     18  C   UNL     1      -6.292   5.100  -0.252  0.00  0.00    -0.023 C 
ATOM     19  C   UNL     1      -6.432   3.775  -0.208  0.00  0.00    +0.015 C 
BRANCH  17  20
ATOM     20  O   UNL     1      -5.935   6.526   1.664  0.00  0.00    -0.387 OA
ATOM     21  H   UNL     1      -5.335   5.839   2.279  0.00  0.00    +0.210 HD
ENDBRANCH  17  20
BRANCH  15  22
ATOM     22  O   UNL     1      -7.213   9.076  -1.372  0.00  0.00    -0.391 OA
ATOM     23  H   UNL     1      -7.637   9.849  -0.714  0.00  0.00    +0.210 HD
ENDBRANCH  15  22
ENDBRANCH  10  12
BRANCH   1  25
ATOM     24  C   UNL     1       2.019   1.125   1.312  0.00  0.00    +0.008 C 
ATOM     25  C   UNL     1       1.419   1.627  -0.003  0.00  0.00    -0.010 C 
BRANCH  25  26
ATOM     26  C   UNL     1       2.185   1.017  -1.179  0.00  0.00    +0.003 C 
BRANCH  26  27
ATOM     27  C   UNL     1       3.616   1.558  -1.189  0.00  0.00    +0.003 C 
BRANCH  27  28
ATOM     28  C   UNL     1       4.383   0.949  -2.365  0.00  0.00    +0.034 C 
BRANCH  28  29
ATOM     29  C   UNL     1       5.814   1.490  -2.376  0.00  0.00    +0.061 C 
ATOM     30  C   UNL     1       6.543   0.979  -3.620  0.00  0.00    +0.041 C 
ATOM     31  C   UNL     1       5.781   3.019  -2.396  0.00  0.00    +0.041 C 
BRANCH  29  32
ATOM     32  O   UNL     1       6.501   1.043  -1.205  0.00  0.00    -0.389 OA
ATOM     33  H   UNL     1       7.548   1.334  -1.037  0.00  0.00    +0.210 HD
ENDBRANCH  29  32
ENDBRANCH  28  29
ENDBRANCH  27  28
ENDBRANCH  26  27
ENDBRANCH  25  26
ENDBRANCH   1  25
TORSDOF 9
