REMARK  Name = ZINC04233492
REMARK  7 active torsions:
REMARK  status: ('A' for Active; 'I' for Inactive)
REMARK    1  A    between atoms: C_1  and  O_2
REMARK    2  A    between atoms: O_2  and  C_3
REMARK    3  A    between atoms: C_3  and  C_5
REMARK    4  A    between atoms: C_8  and  C_11
REMARK    5  A    between atoms: C_11  and  N_13
REMARK    6  A    between atoms: N_15  and  C_23
REMARK    7  A    between atoms: C_23  and  C_24
REMARK                            x       y       z     vdW  Elec       q    Type
REMARK                         _______ _______ _______ _____ _____    ______ ____
ROOT
ATOM      1  N   UNL     1      -0.016   1.325   0.009  0.00  0.00    -0.152 NA
ATOM      2  C   UNL     1       0.002  -0.004   0.002  0.00  0.00    +0.168 A 
ATOM      3  N   UNL     1      -1.053  -0.862   0.007  0.00  0.00    -0.310 N 
ATOM      4  C   UNL     1      -0.837  -2.227  -0.002  0.00  0.00    +0.058 A 
ATOM      5  C   UNL     1      -1.788  -3.260   0.000  0.00  0.00    +0.027 A 
ATOM      6  C   UNL     1      -1.395  -4.577  -0.012  0.00  0.00    +0.002 A 
ATOM      7  C   UNL     1      -0.055  -4.927  -0.026  0.00  0.00    +0.001 A 
ATOM      8  C   UNL     1       0.904  -3.929  -0.029  0.00  0.00    +0.017 A 
ATOM      9  C   UNL     1       0.512  -2.611  -0.017  0.00  0.00    +0.039 A 
ATOM     10  S   UNL     1       1.377  -1.061  -0.024  0.00  0.00    -0.052 S 
ENDROOT
BRANCH   1  11
ATOM     11  C   UNL     1       1.132   2.009   0.002  0.00  0.00    +0.269 C 
ATOM     12  O   UNL     1       2.195   1.414  -0.011  0.00  0.00    -0.268 OA
BRANCH  11  16
ATOM     13  C   UNL     1       1.074   6.264   0.024  0.00  0.00    +0.059 A 
ATOM     14  C   UNL     1       2.292   5.582   0.009  0.00  0.00    +0.016 A 
ATOM     15  C   UNL     1       2.310   4.205   0.003  0.00  0.00    +0.014 A 
ATOM     16  C   UNL     1       1.112   3.491   0.010  0.00  0.00    +0.039 A 
ATOM     17  C   UNL     1      -0.106   4.172   0.020  0.00  0.00    +0.014 A 
ATOM     18  C   UNL     1      -0.125   5.550   0.032  0.00  0.00    +0.016 A 
BRANCH  13  19
ATOM     19  C   UNL     1       1.054   7.743   0.031  0.00  0.00    +0.339 C 
ATOM     20  O   UNL     1       2.098   8.364   0.023  0.00  0.00    -0.245 OA
BRANCH  19  22
ATOM     21  C   UNL     1      -0.065   9.851   0.051  0.00  0.00    +0.280 C 
ATOM     22  O   UNL     1      -0.121   8.400   0.045  0.00  0.00    -0.464 OA
ENDBRANCH  19  22
ENDBRANCH  13  19
ENDBRANCH  11  16
ENDBRANCH   1  11
BRANCH   3  23
ATOM     23  C   UNL     1      -2.421  -0.339   0.023  0.00  0.00    +0.212 C 
BRANCH  23  24
ATOM     24  C   UNL     1      -2.893  -0.155  -1.359  0.00  0.00    -0.084 C 
ATOM     25  C   UNL     1      -3.269  -0.009  -2.462  0.00  0.00    +0.005 C 
ENDBRANCH  23  24
ENDBRANCH   3  23
TORSDOF 6
