REMARK  Name = ZINC04513649
REMARK  9 active torsions:
REMARK  status: ('A' for Active; 'I' for Inactive)
REMARK    1  A    between atoms: C_1  and  C_2
REMARK    2  A    between atoms: C_5  and  C_9
REMARK    3  A    between atoms: C_6  and  C_8
REMARK    4  A    between atoms: N_14  and  C_17
REMARK    5  A    between atoms: C_17  and  C_19
REMARK    6  A    between atoms: C_17  and  C_20
REMARK    7  A    between atoms: C_20  and  C_21
REMARK    8  A    between atoms: C_20  and  C_22
REMARK    9  A    between atoms: N_23  and  C_27
REMARK                            x       y       z     vdW  Elec       q    Type
REMARK                         _______ _______ _______ _____ _____    ______ ____
ROOT
ATOM      1  C   UNL     1      -1.037  -0.046   0.465  0.00  0.00    +0.142 C 
ATOM      2  C   UNL     1      -0.789  -0.435   1.908  0.00  0.00    +0.058 C 
ATOM      3  C   UNL     1      -1.775  -1.084   2.560  0.00  0.00    +0.042 C 
ATOM      4  C   UNL     1      -1.261  -1.343   3.959  0.00  0.00    +0.159 C 
ATOM      5  N   UNL     1       0.092  -0.768   3.977  0.00  0.00    -0.289 N 
ATOM      6  C   UNL     1       0.321  -0.250   2.757  0.00  0.00    +0.247 C 
ATOM      7  O   UNL     1       1.353   0.307   2.428  0.00  0.00    -0.270 OA
ATOM      8  N   UNL     1      -2.957  -1.380   1.943  0.00  0.00    -0.260 N 
ATOM      9  C   UNL     1      -3.229  -1.061   0.671  0.00  0.00    +0.307 C 
ATOM     10  O   UNL     1      -4.309  -1.367   0.206  0.00  0.00    -0.252 OA
ATOM     11  N   UNL     1      -2.343  -0.410  -0.109  0.00  0.00    -0.288 N 
ATOM     12  C   UNL     1      -3.983  -2.086   2.714  0.00  0.00    +0.139 C 
ATOM     13  H   UNL     1      -2.561  -0.188  -1.028  0.00  0.00    +0.151 HD
ENDROOT
BRANCH   1  18
ATOM     14  C   UNL     1      -0.441   5.686   0.038  0.00  0.00    +0.044 C 
ATOM     15  C   UNL     1      -0.596   4.191   0.149  0.00  0.00    -0.050 A 
ATOM     16  C   UNL     1      -0.785   3.606   1.388  0.00  0.00    +0.004 A 
ATOM     17  C   UNL     1      -0.933   2.236   1.489  0.00  0.00    +0.006 A 
ATOM     18  C   UNL     1      -0.881   1.449   0.353  0.00  0.00    -0.020 A 
ATOM     19  C   UNL     1      -0.692   2.034  -0.884  0.00  0.00    -0.045 A 
ATOM     20  C   UNL     1      -0.549   3.405  -0.986  0.00  0.00    +0.007 A 
ATOM     21  C   UNL     1      -0.642   1.177  -2.123  0.00  0.00    +0.044 C 
ENDBRANCH   1  18
BRANCH   5  22
ATOM     22  C   UNL     1       1.018  -0.760   5.112  0.00  0.00    +0.076 C 
ATOM     23  C   UNL     1       2.292  -1.519   4.736  0.00  0.00    +0.028 C 
BRANCH  22  24
ATOM     24  C   UNL     1       1.371   0.684   5.472  0.00  0.00    +0.003 C 
ATOM     25  C   UNL     1       0.090   1.460   5.784  0.00  0.00    +0.009 C 
ATOM     26  C   UNL     1       2.286   0.695   6.699  0.00  0.00    +0.009 C 
ENDBRANCH  22  24
ENDBRANCH   5  22
TORSDOF 3
