REMARK  Name = ZINC14831829
REMARK  11 active torsions:
REMARK  status: ('A' for Active; 'I' for Inactive)
REMARK    1  A    between atoms: C_1  and  C_2
REMARK    2  A    between atoms: C_2  and  C_3
REMARK    3  A    between atoms: C_3  and  C_5
REMARK    4  A    between atoms: C_3  and  C_6
REMARK    5  A    between atoms: C_9  and  O_13
REMARK    6  A    between atoms: O_13  and  C_14
REMARK    7  A    between atoms: C_14  and  C_15
REMARK    8  A    between atoms: N_17  and  C_18
REMARK    9  A    between atoms: C_19  and  C_26
REMARK   10  A    between atoms: C_21  and  C_25
REMARK   11  A    between atoms: C_23  and  C_24
REMARK                            x       y       z     vdW  Elec       q    Type
REMARK                         _______ _______ _______ _____ _____    ______ ____
ROOT
ATOM      1  C   UNL     1       3.815   5.936  -0.307  0.00  0.00    +0.324 C 
ENDROOT
BRANCH   1   2
ATOM      2  C   UNL     1       2.506   5.191  -0.265  0.00  0.00    +0.255 C 
ATOM      3  O   UNL     1       1.477   5.755  -0.569  0.00  0.00    -0.272 OA
ATOM      4  N   UNL     1       2.479   3.897   0.111  0.00  0.00    -0.282 N 
ATOM      5  H   UNL     1       3.291   3.465   0.422  0.00  0.00    +0.155 HD
BRANCH   4   6
ATOM      6  C   UNL     1       1.282   3.176   0.052  0.00  0.00    +0.039 A 
ATOM      7  C   UNL     1       1.211   2.003  -0.688  0.00  0.00    -0.029 A 
ATOM      8  C   UNL     1       0.027   1.294  -0.743  0.00  0.00    +0.008 A 
ATOM      9  C   UNL     1      -1.088   1.752  -0.067  0.00  0.00    -0.050 A 
ATOM     10  C   UNL     1      -1.019   2.917   0.676  0.00  0.00    +0.008 A 
ATOM     11  C   UNL     1       0.161   3.631   0.735  0.00  0.00    -0.029 A 
ATOM     12  C   UNL     1       0.234   4.904   1.540  0.00  0.00    +0.045 C 
ATOM     13  C   UNL     1      -2.380   0.979  -0.134  0.00  0.00    +0.044 C 
ATOM     14  C   UNL     1       2.424   1.505  -1.431  0.00  0.00    +0.045 C 
ENDBRANCH   4   6
ENDBRANCH   1   2
BRANCH   1  15
ATOM     15  O   UNL     1       3.584   7.281  -0.733  0.00  0.00    -0.482 OA
BRANCH  15  19
ATOM     16  C   UNL     1       6.879   9.749  -1.014  0.00  0.00    -0.043 A 
ATOM     17  C   UNL     1       7.032   8.436  -0.608  0.00  0.00    +0.007 A 
ATOM     18  C   UNL     1       5.930   7.609  -0.507  0.00  0.00    +0.047 A 
ATOM     19  C   UNL     1       4.669   8.094  -0.825  0.00  0.00    +0.135 A 
ATOM     20  C   UNL     1       4.518   9.412  -1.232  0.00  0.00    +0.060 A 
ATOM     21  C   UNL     1       5.623  10.237  -1.325  0.00  0.00    +0.022 A 
ATOM     22 BR   UNL     1       2.801  10.079  -1.659  0.00  0.00    -0.047 Br
BRANCH  16  23
ATOM     23  C   UNL     1       8.082  10.650  -1.116  0.00  0.00    +0.016 C 
ATOM     24  C   UNL     1       8.754  10.761   0.254  0.00  0.00    +0.012 C 
BRANCH  23  26
ATOM     25  C   UNL     1      10.236  11.039  -2.322  0.00  0.00    +0.004 C 
ATOM     26  C   UNL     1       9.073  10.064  -2.124  0.00  0.00    +0.004 C 
ENDBRANCH  23  26
ENDBRANCH  16  23
ENDBRANCH  15  19
ENDBRANCH   1  15
TORSDOF 6
