REMARK  Name = ZINC06154202
REMARK  12 active torsions:
REMARK  status: ('A' for Active; 'I' for Inactive)
REMARK    1  A    between atoms: C_1  and  C_2
REMARK    2  A    between atoms: C_5  and  S_8
REMARK    3  A    between atoms: S_8  and  N_11
REMARK    4  A    between atoms: C_12  and  C_13
REMARK    5  A    between atoms: N_19  and  C_20
REMARK    6  A    between atoms: C_22  and  C_30
REMARK    7  A    between atoms: C_23  and  O_29
REMARK    8  A    between atoms: C_24  and  C_26
REMARK    9  A    between atoms: C_26  and  C_27
REMARK   10  A    between atoms: C_26  and  C_28
REMARK   11  A    between atoms: C_30  and  C_31
REMARK   12  A    between atoms: C_30  and  C_32
REMARK                            x       y       z     vdW  Elec       q    Type
REMARK                         _______ _______ _______ _____ _____    ______ ____
ROOT
ATOM      1  N   UNL     1       3.032  -6.847   0.241  0.00  0.00    -0.113 NA
ATOM      2  C   UNL     1       1.769  -6.572   0.406  0.00  0.00    +0.152 C 
ATOM      3  N   UNL     1       0.820  -7.188  -0.381  0.00  0.00    -0.298 N 
ATOM      4  H   UNL     1       0.980  -8.081  -0.724  0.00  0.00    +0.154 HD
ENDROOT
BRANCH   2   5
ATOM      5  C   UNL     1       1.354  -5.597   1.440  0.00  0.00    +0.017 A 
ATOM      6  C   UNL     1       0.034  -5.573   1.890  0.00  0.00    +0.011 A 
ATOM      7  C   UNL     1      -0.348  -4.662   2.854  0.00  0.00    +0.001 A 
ATOM      8  C   UNL     1       0.576  -3.774   3.374  0.00  0.00    +0.000 A 
ATOM      9  C   UNL     1       1.887  -3.792   2.932  0.00  0.00    +0.001 A 
ATOM     10  C   UNL     1       2.282  -4.702   1.973  0.00  0.00    +0.011 A 
ENDBRANCH   2   5
BRANCH   3  11
ATOM     11  C   UNL     1      -0.374  -6.524  -0.686  0.00  0.00    +0.033 A 
ATOM     12  C   UNL     1      -0.375  -5.149  -0.882  0.00  0.00    +0.030 A 
ATOM     13  C   UNL     1      -1.554  -4.496  -1.183  0.00  0.00    -0.001 A 
ATOM     14  C   UNL     1      -2.737  -5.212  -1.288  0.00  0.00    +0.124 A 
ATOM     15  C   UNL     1      -2.737  -6.585  -1.093  0.00  0.00    -0.001 A 
ATOM     16  C   UNL     1      -1.558  -7.241  -0.799  0.00  0.00    +0.030 A 
BRANCH  15  17
ATOM     17  C   UNL     1      -4.023  -7.362  -1.208  0.00  0.00    +0.016 C 
ATOM     18  C   UNL     1      -3.889  -8.409  -2.317  0.00  0.00    +0.012 C 
ATOM     19  C   UNL     1      -4.317  -8.062   0.121  0.00  0.00    +0.012 C 
ENDBRANCH  15  17
BRANCH  13  20
ATOM     20  C   UNL     1      -1.555  -3.004  -1.395  0.00  0.00    +0.016 C 
ATOM     21  C   UNL     1      -1.038  -2.309  -0.134  0.00  0.00    +0.012 C 
ATOM     22  C   UNL     1      -0.648  -2.656  -2.577  0.00  0.00    +0.012 C 
ENDBRANCH  13  20
BRANCH  14  23
ATOM     23  O   UNL     1      -3.897  -4.568  -1.584  0.00  0.00    -0.506 OA
ATOM     24  H   UNL     1      -4.082  -4.503  -2.531  0.00  0.00    +0.292 HD
ENDBRANCH  14  23
ENDBRANCH   3  11
BRANCH   1  25
ATOM     25  S   UNL     1       3.506  -7.853  -0.986  0.00  0.00    +0.100 S 
ATOM     26  O   UNL     1       3.094  -7.238  -2.199  0.00  0.00    -0.146 OA
ATOM     27  O   UNL     1       3.095  -9.163  -0.619  0.00  0.00    -0.146 OA
BRANCH  25  32
ATOM     28  C   UNL     1       9.539  -7.893  -1.035  0.00  0.00    +0.044 C 
ATOM     29  C   UNL     1       8.032  -7.883  -1.023  0.00  0.00    -0.050 A 
ATOM     30  C   UNL     1       7.342  -8.731  -0.177  0.00  0.00    +0.005 A 
ATOM     31  C   UNL     1       5.960  -8.722  -0.165  0.00  0.00    +0.029 A 
ATOM     32  C   UNL     1       5.268  -7.864  -1.000  0.00  0.00    +0.113 A 
ATOM     33  C   UNL     1       5.957  -7.016  -1.845  0.00  0.00    +0.029 A 
ATOM     34  C   UNL     1       7.340  -7.022  -1.853  0.00  0.00    +0.005 A 
ENDBRANCH  25  32
ENDBRANCH   1  25
TORSDOF 7
