REMARK  Name = ZINC39916008
REMARK  13 active torsions:
REMARK  status: ('A' for Active; 'I' for Inactive)
REMARK    1  A    between atoms: C_1  and  C_2
REMARK    2  A    between atoms: C_7  and  O_8
REMARK    3  A    between atoms: O_8  and  C_9
REMARK    4  A    between atoms: C_9  and  C_10
REMARK    5  A    between atoms: C_10  and  C_11
REMARK    6  A    between atoms: C_11  and  N_12
REMARK    7  A    between atoms: C_20  and  S_21
REMARK    8  A    between atoms: S_21  and  C_22
REMARK    9  A    between atoms: C_24  and  O_37
REMARK   10  A    between atoms: C_26  and  O_36
REMARK   11  A    between atoms: C_28  and  O_35
REMARK   12  A    between atoms: C_30  and  C_33
REMARK   13  A    between atoms: C_33  and  O_34
REMARK                            x       y       z     vdW  Elec       q    Type
REMARK                         _______ _______ _______ _____ _____    ______ ____
ROOT
ATOM      1  N   UNL     1       0.070   0.146   7.239  0.00  0.00    -0.318 N 
ATOM      2  C   UNL     1       1.185   0.662   7.880  0.00  0.00    +0.069 A 
ATOM      3  C   UNL     1       2.551   0.544   7.675  0.00  0.00    +0.028 A 
ATOM      4  C   UNL     1       3.430   1.201   8.512  0.00  0.00    +0.002 A 
ATOM      5  C   UNL     1       2.956   1.979   9.557  0.00  0.00    +0.002 A 
ATOM      6  C   UNL     1       1.602   2.107   9.775  0.00  0.00    +0.030 A 
ATOM      7  C   UNL     1       0.699   1.449   8.937  0.00  0.00    +0.090 A 
ATOM      8  N   UNL     1      -0.657   1.382   8.896  0.00  0.00    -0.222 NA
ATOM      9  C   UNL     1      -1.030   0.622   7.895  0.00  0.00    +0.172 A 
ENDROOT
BRANCH   1  10
ATOM     10  C   UNL     1       0.071  -0.738   6.071  0.00  0.00    +0.127 C 
BRANCH  10  11
ATOM     11  C   UNL     1       0.047   0.104   4.793  0.00  0.00    +0.063 C 
BRANCH  11  12
ATOM     12  C   UNL     1       0.048  -0.820   3.574  0.00  0.00    +0.231 C 
BRANCH  12  13
ATOM     13  O   UNL     1       0.025  -0.033   2.381  0.00  0.00    -0.492 OA
BRANCH  13  20
ATOM     14  C   UNL     1      -0.018   1.503   0.010  0.00  0.00    +0.047 C 
ATOM     15  C   UNL     1       0.002  -0.004   0.002  0.00  0.00    -0.009 A 
ATOM     16  C   UNL     1       0.006  -0.689  -1.198  0.00  0.00    +0.007 A 
ATOM     17  C   UNL     1       0.024  -2.071  -1.206  0.00  0.00    +0.000 A 
ATOM     18  C   UNL     1       0.039  -2.772  -0.014  0.00  0.00    +0.004 A 
ATOM     19  C   UNL     1       0.036  -2.092   1.188  0.00  0.00    +0.046 A 
ATOM     20  C   UNL     1       0.023  -0.705   1.199  0.00  0.00    +0.123 A 
ENDBRANCH  13  20
ENDBRANCH  12  13
ENDBRANCH  11  12
ENDBRANCH  10  11
ENDBRANCH   1  10
BRANCH   9  21
ATOM     21  S   UNL     1      -2.700   0.262   7.464  0.00  0.00    -0.054 S 
BRANCH  21  22
ATOM     22  C   UNL     1      -3.676   1.172   8.693  0.00  0.00    +0.214 C 
ATOM     23  C   UNL     1      -5.145   0.752   8.591  0.00  0.00    +0.185 C 
ATOM     24  C   UNL     1      -5.971   1.569   9.589  0.00  0.00    +0.177 C 
ATOM     25  C   UNL     1      -5.772   3.060   9.302  0.00  0.00    +0.176 C 
ATOM     26  C   UNL     1      -4.279   3.391   9.376  0.00  0.00    +0.176 C 
ATOM     27  O   UNL     1      -3.565   2.575   8.445  0.00  0.00    -0.355 OA
BRANCH  25  28
ATOM     28  O   UNL     1      -6.266   3.364   7.996  0.00  0.00    -0.386 OA
ATOM     29  H   UNL     1      -7.206   3.175   7.877  0.00  0.00    +0.210 HD
ENDBRANCH  25  28
BRANCH  24  30
ATOM     30  O   UNL     1      -7.354   1.234   9.452  0.00  0.00    -0.386 OA
ATOM     31  H   UNL     1      -7.551   0.301   9.614  0.00  0.00    +0.210 HD
ENDBRANCH  24  30
BRANCH  23  32
ATOM     32  O   UNL     1      -5.620   0.994   7.265  0.00  0.00    -0.386 OA
ATOM     33  H   UNL     1      -5.138   0.511   6.580  0.00  0.00    +0.210 HD
ENDBRANCH  23  32
BRANCH  26  34
ATOM     34  C   UNL     1      -4.066   4.866   9.031  0.00  0.00    +0.190 C 
BRANCH  34  35
ATOM     35  O   UNL     1      -2.689   5.204   9.213  0.00  0.00    -0.392 OA
ATOM     36  H   UNL     1      -2.481   6.126   9.012  0.00  0.00    +0.210 HD
ENDBRANCH  34  35
ENDBRANCH  26  34
ENDBRANCH  21  22
ENDBRANCH   9  21
TORSDOF 12
