REMARK  Name = ZINC60016874
REMARK  11 active torsions:
REMARK  status: ('A' for Active; 'I' for Inactive)
REMARK    1  A    between atoms: C_1  and  C_2
REMARK    2  A    between atoms: C_3  and  C_32
REMARK    3  A    between atoms: C_5  and  C_7
REMARK    4  A    between atoms: C_10  and  N_13
REMARK    5  A    between atoms: C_14  and  C_16
REMARK    6  A    between atoms: C_16  and  C_18
REMARK    7  A    between atoms: C_16  and  N_21
REMARK    8  A    between atoms: C_18  and  C_19
REMARK    9  A    between atoms: C_18  and  C_20
REMARK   10  A    between atoms: N_21  and  S_22
REMARK   11  A    between atoms: S_22  and  C_25
REMARK                            x       y       z     vdW  Elec       q    Type
REMARK                         _______ _______ _______ _____ _____    ______ ____
ROOT
ATOM      1  N   UNL     1       0.569  -6.472   4.184  0.00  0.00    -0.284 N 
ATOM      2  C   UNL     1       0.336  -6.465   5.512  0.00  0.00    +0.236 C 
ATOM      3  O   UNL     1       0.064  -5.425   6.074  0.00  0.00    -0.274 OA
ATOM      4  H   UNL     1       0.727  -7.311   3.724  0.00  0.00    +0.155 HD
ENDROOT
BRANCH   1   8
ATOM      5  C   UNL     1       0.606  -2.888   2.056  0.00  0.00    +0.037 A 
ATOM      6  C   UNL     1       1.480  -3.919   1.706  0.00  0.00    +0.015 A 
ATOM      7  C   UNL     1       1.466  -5.102   2.411  0.00  0.00    +0.024 A 
ATOM      8  C   UNL     1       0.581  -5.271   3.471  0.00  0.00    +0.033 A 
ATOM      9  C   UNL     1      -0.291  -4.246   3.822  0.00  0.00    +0.024 A 
ATOM     10  C   UNL     1      -0.277  -3.058   3.124  0.00  0.00    +0.015 A 
BRANCH   5  15
ATOM     11  C   UNL     1      -0.494   1.743   0.565  0.00  0.00    +0.069 C 
ATOM     12  C   UNL     1       0.150   0.384   0.650  0.00  0.00    +0.080 A 
ATOM     13  C   UNL     1       1.126  -0.081  -0.150  0.00  0.00    +0.125 A 
ATOM     14  O   UNL     1       1.418  -1.332   0.258  0.00  0.00    -0.440 OA
ATOM     15  C   UNL     1       0.619  -1.618   1.301  0.00  0.00    +0.228 A 
ATOM     16  N   UNL     1      -0.143  -0.576   1.541  0.00  0.00    -0.214 NA
ATOM     17  C   UNL     1       1.774   0.659  -1.292  0.00  0.00    +0.088 C 
ENDBRANCH   5  15
ENDBRANCH   1   8
BRANCH   2  18
ATOM     18  C   UNL     1       0.414  -7.748   6.297  0.00  0.00    +0.165 C 
BRANCH  18  19
ATOM     19  C   UNL     1      -0.816  -8.607   5.995  0.00  0.00    +0.010 C 
ATOM     20  C   UNL     1      -2.083  -7.791   6.258  0.00  0.00    +0.009 C 
ATOM     21  C   UNL     1      -0.785  -9.044   4.529  0.00  0.00    +0.009 C 
ENDBRANCH  18  19
BRANCH  18  22
ATOM     22  N   UNL     1       0.457  -7.443   7.729  0.00  0.00    -0.178 NA
ATOM     23  H   UNL     1      -0.040  -6.687   8.079  0.00  0.00    +0.149 HD
BRANCH  22  24
ATOM     24  S   UNL     1       1.355  -8.387   8.751  0.00  0.00    +0.059 S 
ATOM     25  O   UNL     1       1.217  -7.827  10.049  0.00  0.00    -0.153 OA
ATOM     26  O   UNL     1       1.013  -9.736   8.463  0.00  0.00    -0.153 OA
BRANCH  24  27
ATOM     27  C   UNL     1       3.045  -8.188   8.294  0.00  0.00    +0.107 A 
ATOM     28  C   UNL     1       3.609  -9.024   7.348  0.00  0.00    +0.028 A 
ATOM     29  C   UNL     1       4.934  -8.869   6.989  0.00  0.00    +0.003 A 
ATOM     30  C   UNL     1       5.698  -7.877   7.576  0.00  0.00    +0.020 A 
ATOM     31  C   UNL     1       5.135  -7.040   8.523  0.00  0.00    +0.043 A 
ATOM     32  C   UNL     1       3.806  -7.193   8.877  0.00  0.00    +0.048 A 
ATOM     33 CL   UNL     1       6.093  -5.795   9.261  0.00  0.00    -0.083 Cl
ENDBRANCH  24  27
ENDBRANCH  22  24
ENDBRANCH  18  22
ENDBRANCH   2  18
TORSDOF 7
