REMARK  Name = ZINC61432451
REMARK  5 active torsions:
REMARK  status: ('A' for Active; 'I' for Inactive)
REMARK    1  A    between atoms: C_4  and  C_7
REMARK    2  A    between atoms: C_12  and  O_18
REMARK    3  A    between atoms: O_18  and  C_19
REMARK    4  A    between atoms: C_19  and  C_21
REMARK    5  A    between atoms: C_21  and  C_22
REMARK                            x       y       z     vdW  Elec       q    Type
REMARK                         _______ _______ _______ _____ _____    ______ ____
ROOT
ATOM      1  C   UNL     1       3.752  -0.558  -0.046  0.00  0.00    +0.064 A 
ATOM      2  C   UNL     1       4.642  -0.406   0.970  0.00  0.00    +0.208 A 
ATOM      3  O   UNL     1       5.806  -1.056   1.013  0.00  0.00    -0.462 OA
ATOM      4  C   UNL     1       6.320  -1.665  -0.074  0.00  0.00    +0.142 A 
ATOM      5  C   UNL     1       7.652  -2.057  -0.102  0.00  0.00    +0.093 A 
ATOM      6  C   UNL     1       8.159  -2.690  -1.224  0.00  0.00    +0.135 A 
ATOM      7  C   UNL     1       7.347  -2.939  -2.328  0.00  0.00    +0.047 A 
ATOM      8  C   UNL     1       6.036  -2.556  -2.318  0.00  0.00    +0.019 A 
ATOM      9  C   UNL     1       5.511  -1.915  -1.197  0.00  0.00    +0.065 A 
ATOM     10  C   UNL     1       4.102  -1.475  -1.147  0.00  0.00    +0.200 A 
ATOM     11  O   UNL     1       3.280  -1.844  -1.968  0.00  0.00    -0.286 OA
ENDROOT
BRANCH   1  15
ATOM     12  C   UNL     1       0.052   1.537  -0.042  0.00  0.00    +0.000 A 
ATOM     13  C   UNL     1       1.241   2.238  -0.139  0.00  0.00    +0.001 A 
ATOM     14  C   UNL     1       2.445   1.563  -0.141  0.00  0.00    +0.009 A 
ATOM     15  C   UNL     1       2.461   0.173  -0.044  0.00  0.00    -0.011 A 
ATOM     16  C   UNL     1       1.261  -0.528   0.053  0.00  0.00    +0.009 A 
ATOM     17  C   UNL     1       0.063   0.157   0.054  0.00  0.00    +0.001 A 
ENDBRANCH   1  15
BRANCH   6  18
ATOM     18  O   UNL     1       9.463  -3.071  -1.248  0.00  0.00    -0.425 OA
BRANCH  18  19
ATOM     19  C   UNL     1       9.840  -4.078  -0.444  0.00  0.00    +0.318 C 
ATOM     20  O   UNL     1       9.013  -4.684   0.194  0.00  0.00    -0.250 OA
BRANCH  19  21
ATOM     21  C   UNL     1      11.296  -4.453  -0.338  0.00  0.00    +0.180 C 
BRANCH  21  22
ATOM     22  C   UNL     1      11.450  -5.604   0.622  0.00  0.00    +0.102 A 
ATOM     23  C   UNL     1      11.664  -5.505   2.068  0.00  0.00    +0.045 A 
ATOM     24  C   UNL     1      11.786  -4.432   2.955  0.00  0.00    +0.013 A 
ATOM     25  C   UNL     1      11.986  -4.671   4.285  0.00  0.00    +0.001 A 
ATOM     26  C   UNL     1      12.070  -5.971   4.763  0.00  0.00    +0.004 A 
ATOM     27  C   UNL     1      11.953  -7.043   3.905  0.00  0.00    +0.049 A 
ATOM     28  C   UNL     1      11.749  -6.822   2.548  0.00  0.00    +0.168 A 
ATOM     29  O   UNL     1      11.599  -7.641   1.488  0.00  0.00    -0.354 OA
ATOM     30  N   UNL     1      11.413  -6.865   0.320  0.00  0.00    -0.082 NA
ENDBRANCH  21  22
ENDBRANCH  19  21
ENDBRANCH  18  19
ENDBRANCH   6  18
TORSDOF 5
