REMARK  Name = ZINC33010260
REMARK  7 active torsions:
REMARK  status: ('A' for Active; 'I' for Inactive)
REMARK    1  A    between atoms: C_1  and  C_2
REMARK    2  A    between atoms: C_5  and  C_29
REMARK    3  A    between atoms: C_12  and  C_26
REMARK    4  A    between atoms: C_15  and  N_20
REMARK    5  A    between atoms: C_21  and  C_23
REMARK    6  A    between atoms: C_23  and  C_24
REMARK    7  A    between atoms: C_23  and  C_25
REMARK                            x       y       z     vdW  Elec       q    Type
REMARK                         _______ _______ _______ _____ _____    ______ ____
ROOT
ATOM      1  C   UNL     1      -1.974   4.859  -0.635  0.00  0.00    +0.009 C 
ATOM      2  C   UNL     1      -1.796   3.352  -0.444  0.00  0.00    +0.004 C 
ATOM      3  C   UNL     1      -1.063   3.087   0.874  0.00  0.00    +0.009 C 
ATOM      4  C   UNL     1      -0.836   1.581   1.029  0.00  0.00    +0.004 C 
ATOM      5  C   UNL     1      -0.041   1.064  -0.173  0.00  0.00    +0.109 C 
ATOM      6  N   UNL     1      -0.784   1.340  -1.408  0.00  0.00    -0.316 N 
ATOM      7  C   UNL     1      -0.974   2.783  -1.603  0.00  0.00    +0.109 C 
ATOM      8  C   UNL     1      -0.155   0.769  -2.506  0.00  0.00    +0.100 A 
ATOM      9  C   UNL     1      -0.731   0.928  -3.773  0.00  0.00    +0.057 A 
ATOM     10  C   UNL     1      -0.109   0.366  -4.880  0.00  0.00    +0.075 A 
ATOM     11  C   UNL     1       1.128  -0.382  -4.648  0.00  0.00    +0.014 A 
ATOM     12  C   UNL     1       1.822  -0.988  -5.699  0.00  0.00    +0.034 A 
ATOM     13  C   UNL     1       2.984  -1.682  -5.433  0.00  0.00    +0.034 A 
ATOM     14  C   UNL     1       3.468  -1.782  -4.124  0.00  0.00    +0.025 A 
ATOM     15  C   UNL     1       2.808  -1.201  -3.087  0.00  0.00    +0.028 A 
ATOM     16  C   UNL     1       1.621  -0.485  -3.323  0.00  0.00    +0.049 A 
ATOM     17  N   UNL     1       0.957   0.094  -2.318  0.00  0.00    -0.343 N 
ATOM     18  C   UNL     1      -2.186   0.864   1.094  0.00  0.00    +0.009 C 
ATOM     19  H   UNL     1       1.373  -0.009  -1.305  0.00  0.00    +0.167 HD
ENDROOT
BRANCH  13  20
ATOM     20  N   UNL     1       3.683  -2.291  -6.480  0.00  0.00    -0.285 N 
ATOM     21  C   UNL     1       4.347  -3.444  -6.266  0.00  0.00    +0.220 C 
ATOM     22  O   UNL     1       4.262  -4.003  -5.193  0.00  0.00    -0.275 OA
ATOM     23  H   UNL     1       3.692  -1.829  -7.478  0.00  0.00    +0.155 HD
BRANCH  21  24
ATOM     24  C   UNL     1       5.195  -4.040  -7.360  0.00  0.00    +0.069 C 
ATOM     25  C   UNL     1       6.293  -3.048  -7.751  0.00  0.00    +0.017 C 
ATOM     26  C   UNL     1       5.834  -5.337  -6.861  0.00  0.00    +0.017 C 
ENDBRANCH  21  24
ENDBRANCH  13  20
BRANCH  10  27
ATOM     27  C   UNL     1      -0.677   0.511  -6.236  0.00  0.00    +0.387 C 
ATOM     28  O   UNL     1      -0.170  -0.075  -7.172  0.00  0.00    -0.241 OA
ATOM     29  O   UNL     1      -1.756   1.292  -6.435  0.00  0.00    -0.241 OA
ENDBRANCH  10  27
TORSDOF 3
