REMARK  Name = ZINC59186816
REMARK  10 active torsions:
REMARK  status: ('A' for Active; 'I' for Inactive)
REMARK    1  A    between atoms: C_1  and  O_2
REMARK    2  A    between atoms: O_2  and  C_3
REMARK    3  A    between atoms: C_5  and  C_20
REMARK    4  A    between atoms: C_8  and  O_9
REMARK    5  A    between atoms: O_9  and  C_10
REMARK    6  A    between atoms: C_10  and  C_11
REMARK    7  A    between atoms: C_14  and  N_17
REMARK    8  A    between atoms: N_21  and  N_22
REMARK    9  A    between atoms: C_23  and  C_25
REMARK   10  A    between atoms: C_30  and  O_31
REMARK                            x       y       z     vdW  Elec       q    Type
REMARK                         _______ _______ _______ _____ _____    ______ ____
ROOT
ATOM      1  C   UNL     1       0.606  -0.608  -1.056  0.00  0.00    +0.162 A 
ATOM      2  C   UNL     1       1.171   0.159  -2.059  0.00  0.00    +0.059 A 
ATOM      3  C   UNL     1       1.791  -0.465  -3.145  0.00  0.00    -0.002 A 
ATOM      4  C   UNL     1       1.837  -1.860  -3.212  0.00  0.00    +0.013 A 
ATOM      5  C   UNL     1       1.271  -2.617  -2.208  0.00  0.00    +0.050 A 
ATOM      6  C   UNL     1       0.661  -1.998  -1.127  0.00  0.00    +0.162 A 
ENDROOT
BRANCH   1   8
ATOM      7  C   UNL     1      -0.017   1.425   0.010  0.00  0.00    +0.277 C 
ATOM      8  O   UNL     1       0.002  -0.004   0.002  0.00  0.00    -0.491 OA
ENDBRANCH   1   8
BRANCH   3   9
ATOM      9  C   UNL     1       2.394   0.347  -4.217  0.00  0.00    +0.138 C 
ATOM     10  N   UNL     1       2.970  -0.234  -5.225  0.00  0.00    -0.187 NA
BRANCH  10  11
ATOM     11  N   UNL     1       3.543   0.538  -6.244  0.00  0.00    -0.203 N 
ATOM     12  C   UNL     1       4.141  -0.065  -7.291  0.00  0.00    +0.267 C 
ATOM     13  O   UNL     1       4.182  -1.279  -7.351  0.00  0.00    -0.268 OA
ATOM     14  H   UNL     1       3.510   1.506  -6.197  0.00  0.00    +0.178 HD
BRANCH  12  15
ATOM     15  C   UNL     1       4.745   0.747  -8.364  0.00  0.00    +0.081 A 
ATOM     16  C   UNL     1       4.705   2.142  -8.296  0.00  0.00    +0.032 A 
ATOM     17  C   UNL     1       5.271   2.896  -9.302  0.00  0.00    +0.019 A 
ATOM     18  C   UNL     1       5.880   2.275 -10.382  0.00  0.00    +0.019 A 
ATOM     19  C   UNL     1       5.926   0.898 -10.461  0.00  0.00    +0.047 A 
ATOM     20  C   UNL     1       5.367   0.124  -9.454  0.00  0.00    +0.129 A 
ATOM     21 BR   UNL     1       5.216   4.784  -9.210  0.00  0.00    -0.050 Br
BRANCH  20  22
ATOM     22  O   UNL     1       5.417  -1.230  -9.528  0.00  0.00    -0.506 OA
ATOM     23  H   UNL     1       4.664  -1.627  -9.985  0.00  0.00    +0.292 HD
ENDBRANCH  20  22
ENDBRANCH  12  15
ENDBRANCH  10  11
ENDBRANCH   3   9
BRANCH   6  24
ATOM     24  O   UNL     1       0.110  -2.749  -0.138  0.00  0.00    -0.484 OA
BRANCH  24  25
ATOM     25  C   UNL     1       0.202  -4.169  -0.274  0.00  0.00    +0.264 C 
BRANCH  25  26
ATOM     26  C   UNL     1      -0.458  -4.830   0.909  0.00  0.00    -0.010 A 
ATOM     27  C   UNL     1       0.280  -5.118   2.041  0.00  0.00    +0.009 A 
ATOM     28  C   UNL     1      -0.326  -5.725   3.126  0.00  0.00    +0.033 A 
ATOM     29  C   UNL     1      -1.670  -6.044   3.078  0.00  0.00    +0.126 A 
ATOM     30  C   UNL     1      -2.408  -5.755   1.945  0.00  0.00    +0.033 A 
ATOM     31  C   UNL     1      -1.804  -5.145   0.862  0.00  0.00    +0.009 A 
BRANCH  29  32
ATOM     32  N   UNL     1      -2.318  -6.694   4.238  0.00  0.00    +0.056 N 
ATOM     33  O   UNL     1      -1.672  -6.947   5.229  0.00  0.00    -0.126 OA
ATOM     34  O   UNL     1      -3.493  -6.973   4.196  0.00  0.00    -0.126 OA
ENDBRANCH  29  32
ENDBRANCH  25  26
ENDBRANCH  24  25
ENDBRANCH   6  24
TORSDOF 9
