REMARK  Name = ZINC12258293
REMARK  12 active torsions:
REMARK  status: ('A' for Active; 'I' for Inactive)
REMARK    1  A    between atoms: C_1  and  C_2
REMARK    2  A    between atoms: C_3  and  C_34
REMARK    3  A    between atoms: N_4  and  C_29
REMARK    4  A    between atoms: C_5  and  N_9
REMARK    5  A    between atoms: C_6  and  C_7
REMARK    6  A    between atoms: C_10  and  C_12
REMARK    7  A    between atoms: C_12  and  O_13
REMARK    8  A    between atoms: O_13  and  C_14
REMARK    9  A    between atoms: C_14  and  C_16
REMARK   10  A    between atoms: C_16  and  C_17
REMARK   11  A    between atoms: C_17  and  C_18
REMARK   12  A    between atoms: C_18  and  C_19
REMARK                            x       y       z     vdW  Elec       q    Type
REMARK                         _______ _______ _______ _____ _____    ______ ____
ROOT
ATOM      1  N   UNL     1      -0.992   2.403  -0.193  0.00  0.00    -0.268 N 
ATOM      2  C   UNL     1      -0.735   3.726  -0.209  0.00  0.00    +0.256 C 
ATOM      3  O   UNL     1       0.411   4.121  -0.219  0.00  0.00    -0.272 OA
ATOM      4  H   UNL     1      -1.908   2.086  -0.210  0.00  0.00    +0.156 HD
ENDROOT
BRANCH   1   9
ATOM      5  C   UNL     1       3.336   0.047   0.929  0.00  0.00    +0.047 C 
ATOM      6  C   UNL     1       1.999   0.403   0.333  0.00  0.00    -0.011 A 
ATOM      7  C   UNL     1       1.310  -0.309  -0.574  0.00  0.00    +0.022 A 
ATOM      8  N   UNL     1       0.142   0.342  -0.868  0.00  0.00    -0.329 N 
ATOM      9  C   UNL     1       0.055   1.494  -0.153  0.00  0.00    +0.124 A 
ATOM     10  C   UNL     1       1.197   1.597   0.629  0.00  0.00    +0.095 A 
ATOM     11  C   UNL     1       1.752  -1.619  -1.172  0.00  0.00    +0.064 C 
BRANCH   8  12
ATOM     12  C   UNL     1      -0.868  -0.134  -1.817  0.00  0.00    +0.089 C 
ATOM     13  C   UNL     1      -1.166   0.959  -2.864  0.00  0.00    +0.025 C 
ATOM     14  C   UNL     1      -2.689   0.835  -3.119  0.00  0.00    +0.002 C 
ATOM     15  C   UNL     1      -3.248   0.520  -1.708  0.00  0.00    +0.002 C 
ATOM     16  C   UNL     1      -2.191  -0.413  -1.083  0.00  0.00    +0.025 C 
ENDBRANCH   8  12
BRANCH  10  17
ATOM     17  C   UNL     1       1.526   2.652   1.539  0.00  0.00    +0.103 C 
ATOM     18  N   UNL     1       1.787   3.490   2.261  0.00  0.00    -0.191 NA
ENDBRANCH  10  17
ENDBRANCH   1   9
BRANCH   2  19
ATOM     19  C   UNL     1      -1.873   4.714  -0.216  0.00  0.00    +0.328 C 
BRANCH  19  20
ATOM     20  O   UNL     1      -1.344   6.061  -0.101  0.00  0.00    -0.455 OA
BRANCH  20  21
ATOM     21  C   UNL     1      -2.234   7.066  -0.091  0.00  0.00    +0.308 C 
ATOM     22  O   UNL     1      -3.416   6.828  -0.176  0.00  0.00    -0.251 OA
BRANCH  21  23
ATOM     23  C   UNL     1      -1.760   8.492   0.026  0.00  0.00    +0.121 C 
BRANCH  23  24
ATOM     24  C   UNL     1      -2.966   9.433   0.013  0.00  0.00    +0.016 C 
BRANCH  24  25
ATOM     25  C   UNL     1      -2.484  10.881   0.131  0.00  0.00    +0.038 C 
BRANCH  25  26
ATOM     26  C   UNL     1      -3.672  11.808   0.118  0.00  0.00    -0.022 A 
ATOM     27  C   UNL     1      -4.176  12.444  -0.951  0.00  0.00    +0.087 A 
ATOM     28  N   UNL     1      -5.257  13.197  -0.578  0.00  0.00    -0.360 N 
ATOM     29  H   UNL     1      -5.788  13.744  -1.178  0.00  0.00    +0.165 HD
ATOM     30  C   UNL     1      -5.474  13.067   0.775  0.00  0.00    +0.047 A 
ATOM     31  C   UNL     1      -4.491  12.191   1.271  0.00  0.00    +0.003 A 
ATOM     32  C   UNL     1      -4.465  11.870   2.629  0.00  0.00    +0.010 A 
ATOM     33  C   UNL     1      -5.397  12.408   3.471  0.00  0.00    +0.001 A 
ATOM     34  C   UNL     1      -6.368  13.273   2.987  0.00  0.00    +0.002 A 
ATOM     35  C   UNL     1      -6.412  13.604   1.651  0.00  0.00    +0.026 A 
ENDBRANCH  25  26
ENDBRANCH  24  25
ENDBRANCH  23  24
ENDBRANCH  21  23
ENDBRANCH  20  21
ENDBRANCH  19  20
ENDBRANCH   2  19
TORSDOF 10
