REMARK  Name = ZINC40988929
REMARK  5 active torsions:
REMARK  status: ('A' for Active; 'I' for Inactive)
REMARK    1  A    between atoms: N_4  and  C_7
REMARK    2  A    between atoms: C_7  and  C_8
REMARK    3  A    between atoms: C_8  and  C_9
REMARK    4  A    between atoms: C_15  and  C_17
REMARK    5  A    between atoms: N_20  and  C_22
REMARK                            x       y       z     vdW  Elec       q    Type
REMARK                         _______ _______ _______ _____ _____    ______ ____
ROOT
ATOM      1  C   UNL     1       4.438  -2.303  -3.645  0.00  0.00    -0.010 C 
ATOM      2  C   UNL     1       3.659  -2.071  -4.942  0.00  0.00    +0.022 C 
ATOM      3  C   UNL     1       4.325  -2.853  -6.079  0.00  0.00    +0.108 C 
ATOM      4  N   UNL     1       4.432  -4.264  -5.683  0.00  0.00    -0.296 N 
ATOM      5  C   UNL     1       5.083  -4.592  -4.408  0.00  0.00    +0.108 C 
ATOM      6  C   UNL     1       4.409  -3.791  -3.289  0.00  0.00    +0.022 C 
ATOM      7  C   UNL     1       3.943  -5.238  -6.475  0.00  0.00    +0.267 C 
ATOM      8  O   UNL     1       4.133  -6.405  -6.191  0.00  0.00    -0.268 OA
ENDROOT
BRANCH   7   9
ATOM      9  C   UNL     1       3.176  -4.889  -7.688  0.00  0.00    +0.151 A 
ATOM     10  C   UNL     1       2.707  -5.778  -8.670  0.00  0.00    +0.006 A 
ATOM     11  C   UNL     1       2.064  -5.014  -9.587  0.00  0.00    +0.044 A 
ATOM     12  N   UNL     1       2.144  -3.740  -9.170  0.00  0.00    -0.263 N 
ATOM     13  N   UNL     1       2.791  -3.679  -8.058  0.00  0.00    -0.166 NA
ATOM     14  C   UNL     1       1.405  -5.566 -10.825  0.00  0.00    +0.055 C 
ATOM     15  C   UNL     1       1.937  -6.984 -11.064  0.00  0.00    +0.006 C 
ATOM     16  C   UNL     1       1.831  -7.798  -9.772  0.00  0.00    +0.005 C 
ATOM     17  C   UNL     1       2.849  -7.273  -8.751  0.00  0.00    +0.039 C 
BRANCH  12  18
ATOM     18  C   UNL     1       1.575  -2.589  -9.875  0.00  0.00    +0.130 C 
ATOM     19  C   UNL     1       0.562  -1.880  -8.959  0.00  0.00    +0.051 C 
ATOM     20  C   UNL     1       0.213  -0.505  -9.597  0.00  0.00    +0.168 C 
ATOM     21  S   UNL     1       1.877   0.027 -10.184  0.00  0.00    -0.029 S 
ATOM     22  O   UNL     1       2.495   0.811  -9.173  0.00  0.00    -0.174 OA
ATOM     23  O   UNL     1       1.757   0.550 -11.500  0.00  0.00    -0.174 OA
ATOM     24  C   UNL     1       2.710  -1.610 -10.262  0.00  0.00    +0.192 C 
ENDBRANCH  12  18
ENDBRANCH   7   9
BRANCH   1  25
ATOM     25  C   UNL     1       3.796  -1.496  -2.514  0.00  0.00    -0.015 C 
BRANCH  25  26
ATOM     26  C   UNL     1       3.935  -0.002  -2.811  0.00  0.00    -0.079 C 
BRANCH  26  30
ATOM     27  C   UNL     1       1.482   2.752  -0.676  0.00  0.00    -0.004 C 
ATOM     28  C   UNL     1       2.988   3.010  -0.781  0.00  0.00    -0.019 C 
ATOM     29  C   UNL     1       3.558   2.203  -1.950  0.00  0.00    -0.079 C 
ATOM     30  N   UNL     1       3.319   0.773  -1.726  0.00  0.00    +0.380 N 
ATOM     31  C   UNL     1       1.876   0.507  -1.695  0.00  0.00    -0.079 C 
ATOM     32  C   UNL     1       1.242   1.248  -0.516  0.00  0.00    -0.019 C 
ATOM     33  H   UNL     1       3.729   0.499  -0.845  0.00  0.00    -0.082 HD
ENDBRANCH  26  30
ENDBRANCH  25  26
ENDBRANCH   1  25
TORSDOF 5
