REMARK  Name = ZINC14456501
REMARK  8 active torsions:
REMARK  status: ('A' for Active; 'I' for Inactive)
REMARK    1  A    between atoms: C_1  and  C_2
REMARK    2  A    between atoms: C_2  and  O_3
REMARK    3  A    between atoms: O_3  and  C_4
REMARK    4  A    between atoms: C_7  and  N_10
REMARK    5  A    between atoms: N_10  and  S_11
REMARK    6  A    between atoms: S_11  and  C_14
REMARK    7  A    between atoms: C_27  and  C_30
REMARK    8  A    between atoms: C_33  and  C_35
REMARK                            x       y       z     vdW  Elec       q    Type
REMARK                         _______ _______ _______ _____ _____    ______ ____
ROOT
ATOM      1  C   UNL     1       4.754   0.875   2.123  0.00  0.00    +0.109 A 
ATOM      2  C   UNL     1       4.642  -0.363   2.729  0.00  0.00    +0.030 A 
ATOM      3  C   UNL     1       3.510  -1.126   2.522  0.00  0.00    +0.025 A 
ATOM      4  C   UNL     1       2.489  -0.649   1.709  0.00  0.00    +0.031 A 
ATOM      5  C   UNL     1       2.596   0.592   1.102  0.00  0.00    -0.018 A 
ATOM      6  C   UNL     1       3.740   1.349   1.316  0.00  0.00    +0.034 A 
ATOM      7  C   UNL     1       1.520   1.149   0.224  0.00  0.00    +0.049 C 
ATOM      8  C   UNL     1       1.902   1.072  -1.234  0.00  0.00    -0.023 C 
ATOM      9  C   UNL     1       0.847   0.807  -1.966  0.00  0.00    -0.030 C 
ATOM     10  C   UNL     1      -0.386   0.678  -1.093  0.00  0.00    +0.033 C 
ATOM     11  C   UNL     1       0.201   0.356   0.313  0.00  0.00    +0.029 C 
ATOM     12  C   UNL     1       0.498  -1.146   0.349  0.00  0.00    +0.111 C 
ATOM     13  N   UNL     1       1.349  -1.435   1.509  0.00  0.00    -0.336 N 
ATOM     14  H   UNL     1       1.125  -2.152   2.122  0.00  0.00    +0.147 HD
ENDROOT
BRANCH  12  15
ATOM     15  C   UNL     1      -0.793  -1.913   0.467  0.00  0.00    +0.010 A 
ATOM     16  C   UNL     1      -1.503  -2.544  -0.500  0.00  0.00    +0.013 A 
ATOM     17  C   UNL     1      -2.675  -3.192  -0.157  0.00  0.00    +0.011 A 
ATOM     18  C   UNL     1      -3.079  -3.179   1.136  0.00  0.00    -0.013 A 
ATOM     19  S   UNL     1      -1.782  -2.234   1.919  0.00  0.00    -0.097 S 
ATOM     20  C   UNL     1      -4.303  -3.804   1.755  0.00  0.00    +0.051 C 
ENDBRANCH  12  15
BRANCH   1  21
ATOM     21  S   UNL     1       6.198   1.851   2.382  0.00  0.00    +0.072 S 
ATOM     22  O   UNL     1       7.204   0.968   2.859  0.00  0.00    -0.150 OA
ATOM     23  O   UNL     1       6.369   2.641   1.213  0.00  0.00    -0.150 OA
BRANCH  21  24
ATOM     24  N   UNL     1       5.864   2.901   3.618  0.00  0.00    -0.216 N 
ATOM     25  H   UNL     1       5.860   3.857   3.454  0.00  0.00    +0.174 HD
BRANCH  24  29
ATOM     26  C   UNL     1       5.039   1.435   7.432  0.00  0.00    +0.121 A 
ATOM     27  C   UNL     1       6.340   1.421   6.950  0.00  0.00    +0.047 A 
ATOM     28  C   UNL     1       6.614   1.906   5.687  0.00  0.00    +0.028 A 
ATOM     29  C   UNL     1       5.587   2.408   4.898  0.00  0.00    +0.048 A 
ATOM     30  C   UNL     1       4.286   2.427   5.383  0.00  0.00    +0.028 A 
ATOM     31  C   UNL     1       4.013   1.936   6.645  0.00  0.00    +0.047 A 
BRANCH  26  32
ATOM     32  O   UNL     1       4.770   0.957   8.676  0.00  0.00    -0.492 OA
BRANCH  32  34
ATOM     33  C   UNL     1       3.303   0.426  10.522  0.00  0.00    +0.048 C 
ATOM     34  C   UNL     1       3.409   1.002   9.108  0.00  0.00    +0.225 C 
ENDBRANCH  32  34
ENDBRANCH  26  32
ENDBRANCH  24  29
ENDBRANCH  21  24
ENDBRANCH   1  21
TORSDOF 6
