REMARK  Name = ZINC20885852
REMARK  12 active torsions:
REMARK  status: ('A' for Active; 'I' for Inactive)
REMARK    1  A    between atoms: C_1  and  C_2
REMARK    2  A    between atoms: C_2  and  C_3
REMARK    3  A    between atoms: C_3  and  O_4
REMARK    4  A    between atoms: O_4  and  C_5
REMARK    5  A    between atoms: C_8  and  C_11
REMARK    6  A    between atoms: C_16  and  C_21
REMARK    7  A    between atoms: C_24  and  O_29
REMARK    8  A    between atoms: C_25  and  O_27
REMARK    9  A    between atoms: O_27  and  C_28
REMARK   10  A    between atoms: O_29  and  C_30
REMARK   11  A    between atoms: C_30  and  C_31
REMARK   12  A    between atoms: C_30  and  C_32
REMARK                            x       y       z     vdW  Elec       q    Type
REMARK                         _______ _______ _______ _____ _____    ______ ____
ROOT
ATOM      1  C   UNL     1      -3.092   3.477  -1.005  0.00  0.00    +0.136 C 
ATOM      2  C   UNL     1      -3.799   2.159  -1.203  0.00  0.00    +0.036 C 
ATOM      3  C   UNL     1      -3.360   0.958  -0.787  0.00  0.00    +0.017 C 
ATOM      4  C   UNL     1      -4.182  -0.294  -1.042  0.00  0.00    +0.059 C 
ATOM      5  C   UNL     1      -4.947  -0.156  -2.357  0.00  0.00    +0.032 C 
ATOM      6  C   UNL     1      -5.863   1.068  -2.238  0.00  0.00    +0.088 C 
ATOM      7  C   UNL     1      -5.023   2.264  -1.905  0.00  0.00    +0.163 C 
ATOM      8  O   UNL     1      -5.407   3.365  -2.251  0.00  0.00    -0.292 OA
ATOM      9  N   UNL     1      -2.199   0.754  -0.116  0.00  0.00    -0.316 N 
ATOM     10  C   UNL     1      -0.972   1.304  -0.463  0.00  0.00    +0.052 A 
ATOM     11  C   UNL     1       0.107   0.524  -0.845  0.00  0.00    +0.025 A 
ATOM     12  C   UNL     1       1.327   1.129  -1.095  0.00  0.00    +0.002 A 
ATOM     13  C   UNL     1       1.469   2.498  -0.960  0.00  0.00    +0.002 A 
ATOM     14  C   UNL     1       0.388   3.281  -0.590  0.00  0.00    +0.025 A 
ATOM     15  C   UNL     1      -0.837   2.680  -0.356  0.00  0.00    +0.049 A 
ATOM     16  N   UNL     1      -1.977   3.431  -0.067  0.00  0.00    -0.331 N 
ATOM     17  H   UNL     1      -2.186   0.111   0.777  0.00  0.00    +0.152 HD
ATOM     18  H   UNL     1      -2.029   3.992   0.878  0.00  0.00    +0.147 HD
ENDROOT
BRANCH   1  22
ATOM     19  C   UNL     1      -1.645   4.821  -4.795  0.00  0.00    +0.121 A 
ATOM     20  C   UNL     1      -1.163   3.642  -4.245  0.00  0.00    +0.046 A 
ATOM     21  C   UNL     1      -1.632   3.210  -3.020  0.00  0.00    +0.009 A 
ATOM     22  C   UNL     1      -2.582   3.951  -2.341  0.00  0.00    -0.023 A 
ATOM     23  C   UNL     1      -3.068   5.124  -2.889  0.00  0.00    +0.009 A 
ATOM     24  C   UNL     1      -2.598   5.563  -4.112  0.00  0.00    +0.046 A 
BRANCH  19  25
ATOM     25  O   UNL     1      -1.185   5.248  -6.000  0.00  0.00    -0.492 OA
BRANCH  25  26
ATOM     26  C   UNL     1      -1.726   6.471  -6.504  0.00  0.00    +0.229 C 
BRANCH  26  28
ATOM     27  C   UNL     1      -1.672   8.097  -8.401  0.00  0.00    +0.007 C 
ATOM     28  C   UNL     1      -1.092   6.788  -7.861  0.00  0.00    +0.038 C 
ENDBRANCH  26  28
ENDBRANCH  25  26
ENDBRANCH  19  25
ENDBRANCH   1  22
BRANCH   5  29
ATOM     29  C   UNL     1      -5.775  -1.391  -2.599  0.00  0.00    -0.040 A 
ATOM     30  C   UNL     1      -6.748  -1.758  -1.688  0.00  0.00    +0.008 A 
ATOM     31  C   UNL     1      -7.511  -2.891  -1.905  0.00  0.00    +0.050 A 
ATOM     32  C   UNL     1      -7.300  -3.661  -3.038  0.00  0.00    +0.162 A 
ATOM     33  C   UNL     1      -6.321  -3.291  -3.955  0.00  0.00    +0.162 A 
ATOM     34  C   UNL     1      -5.564  -2.152  -3.733  0.00  0.00    +0.053 A 
BRANCH  33  35
ATOM     35  O   UNL     1      -6.111  -4.044  -5.068  0.00  0.00    -0.491 OA
ATOM     36  C   UNL     1      -5.090  -3.604  -5.965  0.00  0.00    +0.277 C 
ENDBRANCH  33  35
BRANCH  32  37
ATOM     37  O   UNL     1      -8.050  -4.776  -3.253  0.00  0.00    -0.486 OA
BRANCH  37  38
ATOM     38  C   UNL     1      -9.116  -5.028  -2.335  0.00  0.00    +0.167 C 
ATOM     39  C   UNL     1     -10.182  -5.888  -3.016  0.00  0.00    +0.051 C 
ATOM     40  C   UNL     1      -8.571  -5.765  -1.111  0.00  0.00    +0.051 C 
ENDBRANCH  37  38
ENDBRANCH  32  37
ENDBRANCH   5  29
TORSDOF 8
