REMARK  Name = ZINC13185026
REMARK  9 active torsions:
REMARK  status: ('A' for Active; 'I' for Inactive)
REMARK    1  A    between atoms: C_1  and  C_2
REMARK    2  A    between atoms: C_2  and  O_3
REMARK    3  A    between atoms: O_3  and  C_4
REMARK    4  A    between atoms: C_9  and  C_10
REMARK    5  A    between atoms: C_10  and  N_11
REMARK    6  A    between atoms: N_11  and  S_12
REMARK    7  A    between atoms: S_12  and  C_15
REMARK    8  A    between atoms: C_19  and  C_21
REMARK    9  A    between atoms: C_25  and  C_28
REMARK                            x       y       z     vdW  Elec       q    Type
REMARK                         _______ _______ _______ _____ _____    ______ ____
ROOT
ATOM      1  N   UNL     1      -1.796   6.407  -1.531  0.00  0.00    -0.186 NA
ATOM      2  H   UNL     1      -1.798   7.310  -1.885  0.00  0.00    +0.148 HD
ENDROOT
BRANCH   1   3
ATOM      3  S   UNL     1      -1.368   6.137   0.045  0.00  0.00    +0.059 S 
ATOM      4  O   UNL     1      -2.373   5.301   0.602  0.00  0.00    -0.153 OA
ATOM      5  O   UNL     1      -1.038   7.403   0.599  0.00  0.00    -0.153 OA
BRANCH   3   6
ATOM      6  C   UNL     1       0.119   5.192   0.027  0.00  0.00    +0.106 A 
ATOM      7  C   UNL     1       1.345   5.834   0.019  0.00  0.00    +0.029 A 
ATOM      8  C   UNL     1       2.518   5.101   0.005  0.00  0.00    +0.018 A 
ATOM      9  C   UNL     1       2.472   3.721  -0.002  0.00  0.00    +0.032 A 
ATOM     10  C   UNL     1       1.238   3.066   0.007  0.00  0.00    +0.079 A 
ATOM     11  C   UNL     1       0.059   3.814   0.016  0.00  0.00    +0.044 A 
ATOM     12 BR   UNL     1       4.077   2.720  -0.022  0.00  0.00    -0.049 Br
BRANCH  10  13
ATOM     13  C   UNL     1       1.181   1.591  -0.001  0.00  0.00    +0.388 C 
ATOM     14  O   UNL     1       2.208   0.943  -0.014  0.00  0.00    -0.241 OA
ATOM     15  O   UNL     1      -0.011   0.963   0.007  0.00  0.00    -0.241 OA
ENDBRANCH  10  13
ENDBRANCH   3   6
ENDBRANCH   1   3
BRANCH   1  16
ATOM     16  C   UNL     1      -2.171   5.282  -2.392  0.00  0.00    +0.144 C 
BRANCH  16  22
ATOM     17  C   UNL     1      -2.102   6.308  -4.676  0.00  0.00    +0.125 A 
ATOM     18  C   UNL     1      -2.738   6.782  -5.814  0.00  0.00    +0.053 A 
ATOM     19  C   UNL     1      -4.112   6.749  -5.898  0.00  0.00    +0.001 A 
ATOM     20  C   UNL     1      -4.877   6.251  -4.852  0.00  0.00    +0.125 A 
ATOM     21  C   UNL     1      -4.233   5.768  -3.716  0.00  0.00    +0.054 A 
ATOM     22  C   UNL     1      -2.857   5.802  -3.628  0.00  0.00    +0.013 A 
ATOM     23  O   UNL     1      -6.208   6.324  -5.135  0.00  0.00    -0.488 OA
ATOM     24  C   UNL     1      -6.382   6.465  -6.556  0.00  0.00    +0.175 C 
ATOM     25  C   UNL     1      -5.075   7.168  -6.993  0.00  0.00    +0.083 C 
ATOM     26  C   UNL     1      -6.510   5.095  -7.224  0.00  0.00    +0.052 C 
BRANCH  17  27
ATOM     27  O   UNL     1      -0.745   6.339  -4.588  0.00  0.00    -0.492 OA
BRANCH  27  29
ATOM     28  C   UNL     1       1.469   6.827  -5.425  0.00  0.00    +0.048 C 
ATOM     29  C   UNL     1      -0.034   6.874  -5.706  0.00  0.00    +0.225 C 
ENDBRANCH  27  29
ENDBRANCH  17  27
ENDBRANCH  16  22
ENDBRANCH   1  16
TORSDOF 7
