REMARK  Name = ZINC16496584
REMARK  4 active torsions:
REMARK  status: ('A' for Active; 'I' for Inactive)
REMARK    1  A    between atoms: N_11  and  C_12
REMARK    2  A    between atoms: C_18  and  C_20
REMARK    3  A    between atoms: C_28  and  C_31
REMARK    4  A    between atoms: C_31  and  C_32
REMARK                            x       y       z     vdW  Elec       q    Type
REMARK                         _______ _______ _______ _____ _____    ______ ____
ROOT
ATOM      1  C   UNL     1      -6.021   4.696  -2.379  0.00  0.00    +0.095 C 
ATOM      2  C   UNL     1      -4.856   5.046  -3.307  0.00  0.00    +0.044 C 
ATOM      3  C   UNL     1      -3.603   5.316  -2.467  0.00  0.00    +0.110 C 
ATOM      4  N   UNL     1      -3.356   4.156  -1.600  0.00  0.00    -0.300 N 
ATOM      5  C   UNL     1      -4.444   3.675  -0.737  0.00  0.00    +0.110 C 
ATOM      6  C   UNL     1      -5.685   3.427  -1.591  0.00  0.00    +0.044 C 
ATOM      7  C   UNL     1      -2.157   3.541  -1.600  0.00  0.00    +0.236 C 
ATOM      8  O   UNL     1      -1.269   3.945  -2.321  0.00  0.00    -0.274 OA
ENDROOT
BRANCH   1  19
ATOM      9  C   UNL     1     -10.977   6.212  -3.341  0.00  0.00    +0.002 A 
ATOM     10  C   UNL     1     -10.105   6.751  -2.411  0.00  0.00    +0.002 A 
ATOM     11  C   UNL     1      -8.829   6.242  -2.276  0.00  0.00    +0.028 A 
ATOM     12  C   UNL     1      -8.421   5.182  -3.071  0.00  0.00    +0.070 A 
ATOM     13  C   UNL     1      -9.299   4.642  -4.014  0.00  0.00    +0.067 A 
ATOM     14  C   UNL     1     -10.578   5.160  -4.142  0.00  0.00    +0.028 A 
ATOM     15  N   UNL     1      -8.616   3.612  -4.656  0.00  0.00    -0.306 N 
ATOM     16  H   UNL     1      -8.972   3.047  -5.360  0.00  0.00    +0.170 HD
ATOM     17  C   UNL     1      -7.378   3.532  -4.133  0.00  0.00    +0.328 A 
ATOM     18  O   UNL     1      -6.523   2.735  -4.472  0.00  0.00    -0.247 OA
ATOM     19  N   UNL     1      -7.229   4.469  -3.177  0.00  0.00    -0.289 N 
ENDBRANCH   1  19
BRANCH   7  20
ATOM     20  C   UNL     1      -1.919   2.353  -0.705  0.00  0.00    +0.161 C 
ATOM     21  C   UNL     1      -1.544   2.821   0.724  0.00  0.00    +0.033 C 
ATOM     22  C   UNL     1      -0.756   1.594   1.261  0.00  0.00    +0.021 C 
ATOM     23  C   UNL     1      -0.013   1.086   0.008  0.00  0.00    +0.108 C 
ATOM     24  N   UNL     1      -0.746   1.584  -1.170  0.00  0.00    -0.297 N 
ATOM     25  C   UNL     1      -1.131   0.540  -1.992  0.00  0.00    +0.181 A 
ATOM     26  N   UNL     1      -0.381  -0.356  -2.618  0.00  0.00    -0.208 NA
ATOM     27  C   UNL     1      -0.972  -1.271  -3.350  0.00  0.00    +0.145 A 
ATOM     28  N   UNL     1      -2.279  -1.274  -3.459  0.00  0.00    -0.192 NA
ATOM     29  S   UNL     1      -2.724   0.061  -2.484  0.00  0.00    +0.049 S 
BRANCH  27  30
ATOM     30  C   UNL     1      -0.151  -2.309  -4.070  0.00  0.00    +0.112 C 
BRANCH  30  31
ATOM     31  C   UNL     1       0.214  -1.800  -5.441  0.00  0.00    -0.040 A 
ATOM     32  C   UNL     1      -0.616  -2.052  -6.516  0.00  0.00    +0.007 A 
ATOM     33  C   UNL     1      -0.284  -1.581  -7.772  0.00  0.00    +0.038 A 
ATOM     34  C   UNL     1       0.886  -0.865  -7.955  0.00  0.00    +0.123 A 
ATOM     35  C   UNL     1       1.720  -0.617  -6.878  0.00  0.00    +0.038 A 
ATOM     36  C   UNL     1       1.384  -1.084  -5.622  0.00  0.00    +0.007 A 
ATOM     37  F   UNL     1       1.214  -0.408  -9.183  0.00  0.00    -0.205 F 
ENDBRANCH  30  31
ENDBRANCH  27  30
ENDBRANCH   7  20
TORSDOF 4
