REMARK  Name = ZINC02783615
REMARK  5 active torsions:
REMARK  status: ('A' for Active; 'I' for Inactive)
REMARK    1  A    between atoms: C_1  and  C_2
REMARK    2  A    between atoms: C_2  and  C_3
REMARK    3  A    between atoms: C_6  and  C_9
REMARK    4  A    between atoms: C_12  and  C_21
REMARK    5  A    between atoms: C_17  and  C_19
REMARK                            x       y       z     vdW  Elec       q    Type
REMARK                         _______ _______ _______ _____ _____    ______ ____
ROOT
ATOM      1  C   UNL     1       2.707  -1.868  -4.752  0.00  0.00    +0.104 C 
ATOM      2  C   UNL     1       3.394  -0.689  -5.450  0.00  0.00    +0.059 C 
ATOM      3  C   UNL     1       4.061  -1.167  -6.745  0.00  0.00    +0.177 C 
ATOM      4  N   UNL     1       4.873  -2.351  -6.452  0.00  0.00    -0.242 N 
ATOM      5  C   UNL     1       4.710  -3.124  -5.346  0.00  0.00    +0.118 A 
ATOM      6  C   UNL     1       5.622  -4.120  -5.396  0.00  0.00    +0.067 A 
ATOM      7  C   UNL     1       6.367  -3.953  -6.571  0.00  0.00    +0.062 A 
ATOM      8  N   UNL     1       5.916  -2.895  -7.200  0.00  0.00    -0.174 NA
ATOM      9  C   UNL     1       7.495  -4.839  -7.032  0.00  0.00    +0.067 C 
ATOM     10  N   UNL     1       3.734  -2.862  -4.381  0.00  0.00    -0.322 N 
ATOM     11  H   UNL     1       3.732  -3.303  -3.517  0.00  0.00    +0.148 HD
ENDROOT
BRANCH   1  15
ATOM     12  C   UNL     1       0.707  -0.490  -1.238  0.00  0.00    -0.048 A 
ATOM     13  C   UNL     1      -0.011  -0.719  -2.397  0.00  0.00    +0.004 A 
ATOM     14  C   UNL     1       0.636  -1.164  -3.534  0.00  0.00    +0.006 A 
ATOM     15  C   UNL     1       2.002  -1.381  -3.513  0.00  0.00    -0.027 A 
ATOM     16  C   UNL     1       2.720  -1.152  -2.354  0.00  0.00    +0.006 A 
ATOM     17  C   UNL     1       2.073  -0.702  -1.218  0.00  0.00    +0.004 A 
BRANCH  12  19
ATOM     18  C   UNL     1      -0.019   1.526   0.010  0.00  0.00    +0.009 C 
ATOM     19  C   UNL     1       0.002  -0.004   0.002  0.00  0.00    +0.032 C 
ENDBRANCH  12  19
ENDBRANCH   1  15
BRANCH   3  20
ATOM     20  C   UNL     1       4.954  -0.056  -7.302  0.00  0.00    +0.365 C 
ATOM     21  F   UNL     1       5.561  -0.495  -8.484  0.00  0.00    -0.207 F 
ATOM     22  F   UNL     1       4.177   1.076  -7.569  0.00  0.00    -0.207 F 
ENDBRANCH   3  20
TORSDOF 3
