REMARK  Name = ZINC66121188
REMARK  7 active torsions:
REMARK  status: ('A' for Active; 'I' for Inactive)
REMARK    1  A    between atoms: C_1  and  C_2
REMARK    2  A    between atoms: C_2  and  C_4
REMARK    3  A    between atoms: C_2  and  N_13
REMARK    4  A    between atoms: C_4  and  C_5
REMARK    5  A    between atoms: C_20  and  C_23
REMARK    6  A    between atoms: C_23  and  C_24
REMARK    7  A    between atoms: C_24  and  C_25
REMARK                            x       y       z     vdW  Elec       q    Type
REMARK                         _______ _______ _______ _____ _____    ______ ____
ROOT
ATOM      1  N   UNL     1       0.688  -0.476  -1.204  0.00  0.00    -0.296 N 
ATOM      2  C   UNL     1       0.006  -0.608  -2.358  0.00  0.00    +0.302 C 
ATOM      3  O   UNL     1      -1.195  -0.423  -2.380  0.00  0.00    -0.253 OA
ATOM      4  N   UNL     1       0.656  -0.945  -3.490  0.00  0.00    -0.285 N 
ATOM      5  C   UNL     1       2.086  -1.285  -3.459  0.00  0.00    +0.109 C 
ATOM      6  C   UNL     1       2.822  -0.410  -4.478  0.00  0.00    +0.019 C 
ATOM      7  C   UNL     1       2.167  -0.572  -5.852  0.00  0.00    +0.006 C 
ATOM      8  C   UNL     1       0.710  -0.109  -5.782  0.00  0.00    +0.007 C 
ATOM      9  C   UNL     1      -0.052  -0.986  -4.777  0.00  0.00    +0.112 C 
ATOM     10  H   UNL     1       1.632  -0.695  -1.170  0.00  0.00    +0.151 HD
ENDROOT
BRANCH   1  12
ATOM     11  C   UNL     1      -0.017   1.528   0.008  0.00  0.00    +0.028 C 
ATOM     12  C   UNL     1       0.003  -0.002   0.001  0.00  0.00    +0.076 C 
BRANCH  12  13
ATOM     13  C   UNL     1       0.742  -0.508   1.241  0.00  0.00    +0.063 C 
BRANCH  13  14
ATOM     14  C   UNL     1       0.656  -2.011   1.299  0.00  0.00    +0.025 A 
ATOM     15  C   UNL     1      -0.399  -2.619   1.958  0.00  0.00    +0.129 A 
ATOM     16  C   UNL     1      -0.477  -4.001   2.011  0.00  0.00    +0.039 A 
ATOM     17  C   UNL     1       0.497  -4.772   1.406  0.00  0.00    +0.006 A 
ATOM     18  C   UNL     1       1.550  -4.166   0.748  0.00  0.00    +0.039 A 
ATOM     19  C   UNL     1       1.628  -2.785   0.689  0.00  0.00    +0.129 A 
ATOM     20  F   UNL     1       2.654  -2.192   0.041  0.00  0.00    -0.205 F 
ATOM     21  F   UNL     1      -1.351  -1.865   2.550  0.00  0.00    -0.205 F 
ENDBRANCH  13  14
ENDBRANCH  12  13
ENDBRANCH   1  12
BRANCH   8  22
ATOM     22  C   UNL     1       0.066  -0.240  -7.163  0.00  0.00    +0.014 C 
BRANCH  22  23
ATOM     23  C   UNL     1      -1.350   0.338  -7.122  0.00  0.00    +0.096 C 
BRANCH  23  24
ATOM     24  C   UNL     1      -1.985   0.209  -8.483  0.00  0.00    +0.210 C 
ATOM     25  O   UNL     1      -1.365  -0.295  -9.396  0.00  0.00    -0.276 OA
ATOM     26  N   UNL     1      -3.240   0.655  -8.686  0.00  0.00    -0.329 N 
ATOM     27  H   UNL     1      -3.736   1.059  -7.956  0.00  0.00    +0.145 HD
ATOM     28  H   UNL     1      -3.649   0.572  -9.562  0.00  0.00    +0.145 HD
ENDBRANCH  23  24
ENDBRANCH  22  23
ENDBRANCH   8  22
TORSDOF 6
