REMARK  Name = ZINC20239049
REMARK  8 active torsions:
REMARK  status: ('A' for Active; 'I' for Inactive)
REMARK    1  A    between atoms: C_1  and  C_2
REMARK    2  A    between atoms: C_2  and  O_3
REMARK    3  A    between atoms: O_3  and  C_4
REMARK    4  A    between atoms: C_7  and  C_13
REMARK    5  A    between atoms: C_8  and  N_10
REMARK    6  A    between atoms: C_16  and  C_18
REMARK    7  A    between atoms: C_29  and  S_30
REMARK    8  A    between atoms: S_30  and  C_33
REMARK                            x       y       z     vdW  Elec       q    Type
REMARK                         _______ _______ _______ _____ _____    ______ ____
ROOT
ATOM      1  C   UNL     1       2.604  -9.196   2.806  0.00  0.00    +0.062 C 
ATOM      2  C   UNL     1       3.830  -9.064   2.171  0.00  0.00    +0.080 C 
ATOM      3  C   UNL     1       4.870 -10.127   2.243  0.00  0.00    +0.117 C 
ATOM      4  N   UNL     1       4.592 -11.402   2.319  0.00  0.00    -0.386 N 
ATOM      5  N   UNL     1       6.185  -9.619   2.219  0.00  0.00    -0.203 N 
ATOM      6  C   UNL     1       6.397  -8.374   1.664  0.00  0.00    +0.183 C 
ATOM      7  N   UNL     1       5.477  -7.544   1.231  0.00  0.00    -0.152 NA
ATOM      8  C   UNL     1       4.174  -7.862   1.378  0.00  0.00    +0.273 C 
ATOM      9  O   UNL     1       3.299  -7.175   0.875  0.00  0.00    -0.268 OA
ATOM     10  S   UNL     1       8.056  -8.214   1.710  0.00  0.00    +0.049 S 
ATOM     11  N   UNL     1       8.444  -9.636   2.508  0.00  0.00    -0.174 NA
ATOM     12  C   UNL     1       7.302 -10.227   2.682  0.00  0.00    +0.257 C 
ATOM     13  H   UNL     1       3.671 -11.701   2.272  0.00  0.00    +0.157 HD
ATOM     14  H   UNL     1       5.308 -12.049   2.423  0.00  0.00    +0.157 HD
ENDROOT
BRANCH   1  18
ATOM     15  C   UNL     1       1.153  -5.967   3.150  0.00  0.00    +0.138 A 
ATOM     16  C   UNL     1       0.098  -6.738   3.593  0.00  0.00    +0.050 A 
ATOM     17  C   UNL     1       0.506  -8.069   3.522  0.00  0.00    +0.050 A 
ATOM     18  C   UNL     1       1.806  -8.064   3.034  0.00  0.00    +0.129 A 
ATOM     19  O   UNL     1       2.169  -6.782   2.813  0.00  0.00    -0.455 OA
BRANCH  15  23
ATOM     20  C   UNL     1       1.182  -1.730   2.878  0.00  0.00    +0.123 A 
ATOM     21  C   UNL     1       0.126  -2.452   2.334  0.00  0.00    +0.046 A 
ATOM     22  C   UNL     1       0.113  -3.827   2.420  0.00  0.00    +0.017 A 
ATOM     23  C   UNL     1       1.164  -4.496   3.055  0.00  0.00    +0.048 A 
ATOM     24  C   UNL     1       2.224  -3.766   3.600  0.00  0.00    +0.140 A 
ATOM     25  C   UNL     1       2.231  -2.391   3.505  0.00  0.00    +0.079 A 
BRANCH  24  26
ATOM     26  N   UNL     1       3.340  -4.469   4.274  0.00  0.00    +0.057 N 
ATOM     27  O   UNL     1       4.256  -3.836   4.744  0.00  0.00    -0.126 OA
ATOM     28  O   UNL     1       3.334  -5.675   4.353  0.00  0.00    -0.126 OA
ENDBRANCH  24  26
BRANCH  20  29
ATOM     29  O   UNL     1       1.191  -0.375   2.791  0.00  0.00    -0.492 OA
BRANCH  29  31
ATOM     30  C   UNL     1       0.267   1.759   2.134  0.00  0.00    +0.048 C 
ATOM     31  C   UNL     1       0.082   0.240   2.134  0.00  0.00    +0.225 C 
ENDBRANCH  29  31
ENDBRANCH  20  29
ENDBRANCH  15  23
ENDBRANCH   1  18
BRANCH  12  32
ATOM     32  S   UNL     1       7.208 -11.785   3.500  0.00  0.00    +0.026 S 
ATOM     33  O   UNL     1       8.420 -11.882   4.235  0.00  0.00    -0.167 OA
ATOM     34  O   UNL     1       5.954 -11.768   4.169  0.00  0.00    -0.167 OA
ATOM     35  C   UNL     1       7.187 -13.012   2.164  0.00  0.00    +0.203 C 
ENDBRANCH  12  32
TORSDOF 6
