REMARK  Name = ZINC39674131
REMARK  8 active torsions:
REMARK  status: ('A' for Active; 'I' for Inactive)
REMARK    1  A    between atoms: C_1  and  C_2
REMARK    2  A    between atoms: C_5  and  C_8
REMARK    3  A    between atoms: C_12  and  C_21
REMARK    4  A    between atoms: N_23  and  C_24
REMARK    5  A    between atoms: C_24  and  C_26
REMARK    6  A    between atoms: C_24  and  C_27
REMARK    7  A    between atoms: C_28  and  C_34
REMARK    8  A    between atoms: C_31  and  C_33
REMARK                            x       y       z     vdW  Elec       q    Type
REMARK                         _______ _______ _______ _____ _____    ______ ____
ROOT
ATOM      1  C   UNL     1       0.184  -2.518   0.550  0.00  0.00    +0.247 C 
ATOM      2  O   UNL     1       0.011  -1.320   0.666  0.00  0.00    -0.270 OA
ATOM      3  N   UNL     1       0.175  -3.308   1.641  0.00  0.00    -0.296 N 
ATOM      4  C   UNL     1      -0.102  -2.918   3.044  0.00  0.00    +0.121 C 
ATOM      5  C   UNL     1      -0.938  -4.084   3.616  0.00  0.00    +0.100 C 
ATOM      6  C   UNL     1      -0.578  -5.294   2.738  0.00  0.00    -0.004 C 
ATOM      7  C   UNL     1       0.433  -4.767   1.709  0.00  0.00    +0.115 C 
ATOM      8  C   UNL     1      -1.821  -5.819   2.027  0.00  0.00    -0.010 C 
ATOM      9  C   UNL     1      -1.448  -7.056   1.205  0.00  0.00    -0.082 C 
ATOM     10  N   UNL     1      -0.894  -8.087   2.092  0.00  0.00    +0.379 N 
ATOM     11  C   UNL     1       0.352  -7.607   2.701  0.00  0.00    -0.082 C 
ATOM     12  C   UNL     1       0.055  -6.393   3.586  0.00  0.00    -0.010 C 
ATOM     13  H   UNL     1      -1.563  -8.298   2.818  0.00  0.00    -0.086 HD
ATOM     14  H   UNL     1      -0.706  -8.922   1.558  0.00  0.00    -0.086 HD
ENDROOT
BRANCH   1  19
ATOM     15  C   UNL     1       1.038  -4.812  -4.658  0.00  0.00    +0.044 C 
ATOM     16  C   UNL     1       0.815  -4.211  -3.294  0.00  0.00    -0.050 A 
ATOM     17  C   UNL     1       1.362  -4.817  -2.176  0.00  0.00    +0.004 A 
ATOM     18  C   UNL     1       1.161  -4.272  -0.925  0.00  0.00    +0.013 A 
ATOM     19  C   UNL     1       0.404  -3.107  -0.788  0.00  0.00    +0.037 A 
ATOM     20  C   UNL     1      -0.145  -2.502  -1.919  0.00  0.00    +0.013 A 
ATOM     21  C   UNL     1       0.068  -3.054  -3.165  0.00  0.00    +0.004 A 
ENDBRANCH   1  19
BRANCH   5  22
ATOM     22  C   UNL     1      -2.409  -3.775   3.510  0.00  0.00    +0.219 C 
ATOM     23  O   UNL     1      -2.826  -3.122   2.578  0.00  0.00    -0.275 OA
ATOM     24  N   UNL     1      -3.262  -4.226   4.452  0.00  0.00    -0.309 N 
ATOM     25  H   UNL     1      -2.928  -4.748   5.199  0.00  0.00    +0.149 HD
BRANCH  24  26
ATOM     26  C   UNL     1      -4.692  -3.926   4.349  0.00  0.00    +0.100 C 
ATOM     27  C   UNL     1      -5.343  -4.883   3.349  0.00  0.00    +0.033 C 
BRANCH  26  28
ATOM     28  C   UNL     1      -5.339  -4.094   5.700  0.00  0.00    -0.001 C 
ATOM     29  C   UNL     1      -6.018  -3.187   6.405  0.00  0.00    +0.063 C 
ATOM     30  N   UNL     1      -6.449  -3.712   7.574  0.00  0.00    -0.159 NA
ATOM     31  N   UNL     1      -6.137  -4.892   7.751  0.00  0.00    -0.180 NA
ATOM     32  C   UNL     1      -5.376  -5.337   6.571  0.00  0.00    +0.154 C 
ATOM     33  C   UNL     1      -3.961  -5.760   6.971  0.00  0.00    +0.039 C 
ATOM     34  C   UNL     1      -6.271  -1.770   5.959  0.00  0.00    +0.067 C 
ENDBRANCH  26  28
ENDBRANCH  24  26
ENDBRANCH   5  22
TORSDOF 4
