REMARK  Name = ZINC39279923
REMARK  7 active torsions:
REMARK  status: ('A' for Active; 'I' for Inactive)
REMARK    1  A    between atoms: C_7  and  C_20
REMARK    2  A    between atoms: N_10  and  C_11
REMARK    3  A    between atoms: C_11  and  C_12
REMARK    4  A    between atoms: C_20  and  N_21
REMARK    5  A    between atoms: N_21  and  C_22
REMARK    6  A    between atoms: C_22  and  C_23
REMARK    7  A    between atoms: C_23  and  C_24
REMARK                            x       y       z     vdW  Elec       q    Type
REMARK                         _______ _______ _______ _____ _____    ______ ____
ROOT
ATOM      1  C   UNL     1      -0.017   1.378   0.010  0.00  0.00    +0.000 A 
ATOM      2  C   UNL     1       1.174   2.082   0.002  0.00  0.00    +0.002 A 
ATOM      3  C   UNL     1       2.377   1.411  -0.013  0.00  0.00    +0.023 A 
ATOM      4  C   UNL     1       2.405   0.014  -0.021  0.00  0.00    +0.033 A 
ATOM      5  C   UNL     1       1.206  -0.682  -0.013  0.00  0.00    -0.024 A 
ATOM      6  C   UNL     1       0.002  -0.004   0.002  0.00  0.00    +0.006 A 
ATOM      7  C   UNL     1       1.510  -2.163  -0.023  0.00  0.00    +0.021 C 
ATOM      8  C   UNL     1       3.046  -2.241  -0.038  0.00  0.00    +0.111 C 
ATOM      9  N   UNL     1       3.501  -0.849  -0.036  0.00  0.00    -0.325 N 
ENDROOT
BRANCH   9  10
ATOM     10  C   UNL     1       4.903  -0.424  -0.048  0.00  0.00    +0.141 C 
BRANCH  10  11
ATOM     11  C   UNL     1       5.399  -0.285   1.368  0.00  0.00    -0.012 A 
ATOM     12  C   UNL     1       5.465   0.963   1.958  0.00  0.00    +0.008 A 
ATOM     13  C   UNL     1       5.919   1.091   3.257  0.00  0.00    +0.020 A 
ATOM     14  C   UNL     1       6.307  -0.030   3.968  0.00  0.00    +0.042 A 
ATOM     15  C   UNL     1       6.240  -1.280   3.379  0.00  0.00    +0.040 A 
ATOM     16  C   UNL     1       5.781  -1.408   2.080  0.00  0.00    +0.047 A 
ATOM     17 CL   UNL     1       5.690  -2.977   1.342  0.00  0.00    -0.083 Cl
ATOM     18 CL   UNL     1       6.878   0.131   5.600  0.00  0.00    -0.083 Cl
ENDBRANCH  10  11
ENDBRANCH   9  10
BRANCH   7  19
ATOM     19  C   UNL     1       0.952  -2.831   1.234  0.00  0.00    -0.073 C 
BRANCH  19  20
ATOM     20  N   UNL     1      -0.516  -2.778   1.206  0.00  0.00    +0.380 N 
ATOM     21  H   UNL     1      -0.817  -1.815   1.175  0.00  0.00    -0.086 HD
ATOM     22  H   UNL     1      -0.855  -3.263   0.389  0.00  0.00    -0.086 HD
BRANCH  20  23
ATOM     23  C   UNL     1      -1.053  -3.420   2.414  0.00  0.00    -0.078 C 
BRANCH  23  24
ATOM     24  C   UNL     1      -2.582  -3.364   2.385  0.00  0.00    +0.018 C 
BRANCH  24  25
ATOM     25  C   UNL     1      -3.132  -4.022   3.623  0.00  0.00    -0.024 A 
ATOM     26  C   UNL     1      -3.328  -3.392   4.931  0.00  0.00    +0.003 A 
ATOM     27  C   UNL     1      -3.101  -2.110   5.434  0.00  0.00    +0.010 A 
ATOM     28  C   UNL     1      -3.398  -1.831   6.739  0.00  0.00    +0.001 A 
ATOM     29  C   UNL     1      -3.924  -2.812   7.568  0.00  0.00    +0.002 A 
ATOM     30  C   UNL     1      -4.155  -4.084   7.092  0.00  0.00    +0.026 A 
ATOM     31  C   UNL     1      -3.861  -4.391   5.768  0.00  0.00    +0.047 A 
ATOM     32  N   UNL     1      -3.974  -5.536   5.012  0.00  0.00    -0.360 N 
ATOM     33  C   UNL     1      -3.541  -5.296   3.736  0.00  0.00    +0.087 A 
ATOM     34  H   UNL     1      -4.315  -6.385   5.334  0.00  0.00    +0.165 HD
ENDBRANCH  24  25
ENDBRANCH  23  24
ENDBRANCH  20  23
ENDBRANCH  19  20
ENDBRANCH   7  19
TORSDOF 7
