REMARK  Name = ZINC64600404
REMARK  13 active torsions:
REMARK  status: ('A' for Active; 'I' for Inactive)
REMARK    1  A    between atoms: C_1  and  C_2
REMARK    2  A    between atoms: C_6  and  O_8
REMARK    3  A    between atoms: O_8  and  C_9
REMARK    4  A    between atoms: C_9  and  C_10
REMARK    5  A    between atoms: C_10  and  C_12
REMARK    6  A    between atoms: C_13  and  C_37
REMARK    7  A    between atoms: C_15  and  C_20
REMARK    8  A    between atoms: C_20  and  C_21
REMARK    9  A    between atoms: N_23  and  C_24
REMARK   10  A    between atoms: C_24  and  C_25
REMARK   11  A    between atoms: C_25  and  C_26
REMARK   12  A    between atoms: C_29  and  O_35
REMARK   13  A    between atoms: O_35  and  C_36
REMARK                            x       y       z     vdW  Elec       q    Type
REMARK                         _______ _______ _______ _____ _____    ______ ____
ROOT
ATOM      1  C   UNL     1       2.031  -4.690  -1.431  0.00  0.00    +0.111 C 
ENDROOT
BRANCH   1  10
ATOM      2  C   UNL     1      -0.018   1.503   0.010  0.00  0.00    +0.044 C 
ATOM      3  C   UNL     1       0.002  -0.004   0.002  0.00  0.00    -0.044 A 
ATOM      4  C   UNL     1       0.006  -0.688  -1.197  0.00  0.00    +0.050 A 
ATOM      5  C   UNL     1       0.022  -2.079  -1.212  0.00  0.00    +0.139 A 
ATOM      6  C   UNL     1       0.031  -2.781  -0.021  0.00  0.00    +0.040 A 
ATOM      7  C   UNL     1       0.033  -2.088   1.185  0.00  0.00    +0.128 A 
ATOM      8  C   UNL     1       0.023  -0.702   1.194  0.00  0.00    +0.049 A 
ATOM      9  C   UNL     1       0.026  -4.288   0.017  0.00  0.00    +0.037 C 
ATOM     10  C   UNL     1       0.512  -4.843  -1.326  0.00  0.00    +0.114 C 
ATOM     11  C   UNL     1      -0.164  -4.045  -2.423  0.00  0.00    +0.317 C 
ATOM     12  O   UNL     1      -0.849  -4.579  -3.263  0.00  0.00    -0.250 OA
ATOM     13  O   UNL     1       0.036  -2.712  -2.417  0.00  0.00    -0.425 OA
ATOM     14  C   UNL     1      -1.395  -4.786   0.286  0.00  0.00    +0.013 C 
BRANCH   7  15
ATOM     15  O   UNL     1       0.049  -2.772   2.359  0.00  0.00    -0.487 OA
BRANCH  15  16
ATOM     16  C   UNL     1       0.050  -1.999   3.561  0.00  0.00    +0.259 C 
BRANCH  16  17
ATOM     17  C   UNL     1       0.068  -2.922   4.752  0.00  0.00    -0.043 C 
ATOM     18  C   UNL     1       0.080  -4.220   4.575  0.00  0.00    +0.011 C 
ATOM     19  C   UNL     1       0.073  -2.352   6.147  0.00  0.00    +0.042 C 
ENDBRANCH  16  17
ENDBRANCH  15  16
ENDBRANCH   7  15
ENDBRANCH   1  10
BRANCH   1  20
ATOM     20  C   UNL     1       2.515  -5.348  -2.698  0.00  0.00    +0.214 C 
ATOM     21  O   UNL     1       1.723  -5.886  -3.443  0.00  0.00    -0.276 OA
ATOM     22  N   UNL     1       3.828  -5.338  -3.003  0.00  0.00    -0.315 N 
ATOM     23  H   UNL     1       4.461  -4.908  -2.407  0.00  0.00    +0.149 HD
BRANCH  22  24
ATOM     24  C   UNL     1       4.298  -5.978  -4.234  0.00  0.00    +0.108 C 
BRANCH  24  25
ATOM     25  C   UNL     1       5.817  -5.825  -4.340  0.00  0.00    +0.052 C 
BRANCH  25  26
ATOM     26  C   UNL     1       6.301  -6.483  -5.607  0.00  0.00    -0.040 C 
ATOM     27  C   UNL     1       6.526  -5.885  -6.798  0.00  0.00    +0.002 A 
ATOM     28  C   UNL     1       6.392  -4.498  -7.257  0.00  0.00    +0.055 A 
ATOM     29  C   UNL     1       6.696  -4.187  -8.540  0.00  0.00    +0.121 A 
ATOM     30  C   UNL     1       7.141  -5.152  -9.461  0.00  0.00    +0.047 A 
ATOM     31  C   UNL     1       7.295  -6.453  -9.133  0.00  0.00    +0.029 A 
ATOM     32  C   UNL     1       6.994  -6.900  -7.770  0.00  0.00    +0.043 A 
ATOM     33  N   UNL     1       7.056  -8.078  -7.201  0.00  0.00    -0.380 N 
ATOM     34  C   UNL     1       6.640  -7.944  -5.800  0.00  0.00    +0.144 C 
ATOM     35  H   UNL     1       7.334  -8.901  -7.632  0.00  0.00    +0.160 HD
BRANCH  29  36
ATOM     36  O   UNL     1       6.567  -2.898  -8.951  0.00  0.00    -0.495 OA
ATOM     37  C   UNL     1       6.899  -2.615 -10.312  0.00  0.00    +0.277 C 
ENDBRANCH  29  36
ENDBRANCH  25  26
ENDBRANCH  24  25
ENDBRANCH  22  24
ENDBRANCH   1  20
TORSDOF 9
