REMARK  Name = ZINC05376335
REMARK  3 active torsions:
REMARK  status: ('A' for Active; 'I' for Inactive)
REMARK    1  A    between atoms: C_3  and  O_22
REMARK    2  A    between atoms: C_6  and  C_7
REMARK    3  A    between atoms: N_13  and  C_14
REMARK                            x       y       z     vdW  Elec       q    Type
REMARK                         _______ _______ _______ _____ _____    ______ ____
ROOT
ATOM      1  C   UNL     1      -5.735   3.188   3.596  0.00  0.00    +0.028 C 
ATOM      2  C   UNL     1      -5.022   2.392   2.759  0.00  0.00    +0.078 C 
ATOM      3  C   UNL     1      -5.445   1.178   2.035  0.00  0.00    +0.256 C 
ATOM      4  O   UNL     1      -6.577   0.741   2.132  0.00  0.00    -0.269 OA
ATOM      5  N   UNL     1      -4.539   0.586   1.275  0.00  0.00    -0.260 N 
ATOM      6  C   UNL     1      -3.262   1.097   1.178  0.00  0.00    +0.166 C 
ATOM      7  N   UNL     1      -2.250   0.638   0.476  0.00  0.00    -0.226 NA
ATOM      8  S   UNL     1      -3.316   2.528   2.244  0.00  0.00    -0.049 S 
ATOM      9  H   UNL     1      -4.774  -0.215   0.781  0.00  0.00    +0.157 HD
ENDROOT
BRANCH   7  10
ATOM     10  C   UNL     1      -1.046   1.289   0.507  0.00  0.00    +0.067 A 
ATOM     11  C   UNL     1       0.139   0.564   0.649  0.00  0.00    +0.030 A 
ATOM     12  C   UNL     1       1.350   1.224   0.672  0.00  0.00    +0.040 A 
ATOM     13  C   UNL     1       1.392   2.604   0.562  0.00  0.00    +0.124 A 
ATOM     14  C   UNL     1       0.219   3.330   0.427  0.00  0.00    +0.040 A 
ATOM     15  C   UNL     1      -0.998   2.680   0.401  0.00  0.00    +0.030 A 
ATOM     16  F   UNL     1       2.581   3.245   0.585  0.00  0.00    -0.205 F 
ENDBRANCH   7  10
BRANCH   1  22
ATOM     17  C   UNL     1      -3.670   4.245   4.487  0.00  0.00    +0.011 A 
ATOM     18  C   UNL     1      -3.043   5.255   5.183  0.00  0.00    +0.046 A 
ATOM     19  C   UNL     1      -3.792   6.280   5.750  0.00  0.00    +0.117 A 
ATOM     20  C   UNL     1      -5.175   6.295   5.613  0.00  0.00    +0.046 A 
ATOM     21  C   UNL     1      -5.811   5.294   4.914  0.00  0.00    +0.011 A 
ATOM     22  C   UNL     1      -5.062   4.259   4.341  0.00  0.00    -0.024 A 
BRANCH  19  23
ATOM     23  O   UNL     1      -3.170   7.270   6.440  0.00  0.00    -0.507 OA
ATOM     24  H   UNL     1      -3.068   7.088   7.384  0.00  0.00    +0.292 HD
ENDBRANCH  19  23
ENDBRANCH   1  22
TORSDOF 3
