REMARK  Name = ZINC43233683
REMARK  8 active torsions:
REMARK  status: ('A' for Active; 'I' for Inactive)
REMARK    1  A    between atoms: C_1  and  C_2
REMARK    2  A    between atoms: C_2  and  C_3
REMARK    3  A    between atoms: C_3  and  C_5
REMARK    4  A    between atoms: C_3  and  N_21
REMARK    5  A    between atoms: C_5  and  C_7
REMARK    6  A    between atoms: C_5  and  O_13
REMARK    7  A    between atoms: N_10  and  C_12
REMARK    8  A    between atoms: O_13  and  C_14
REMARK                            x       y       z     vdW  Elec       q    Type
REMARK                         _______ _______ _______ _____ _____    ______ ____
ROOT
ATOM      1  C   UNL     1      -1.421  -2.079  -0.128  0.00  0.00    +0.192 C 
ENDROOT
BRANCH   1   2
ATOM      2  C   UNL     1      -0.947  -2.585  -1.466  0.00  0.00    +0.028 A 
ATOM      3  C   UNL     1       0.381  -2.837  -1.826  0.00  0.00    +0.141 A 
ATOM      4  N   UNL     1       0.395  -3.264  -3.063  0.00  0.00    -0.180 NA
ATOM      5  N   UNL     1      -0.926  -3.298  -3.529  0.00  0.00    -0.274 N 
ATOM      6  C   UNL     1      -1.730  -2.882  -2.528  0.00  0.00    +0.115 A 
ATOM      7  C   UNL     1      -1.359  -3.717  -4.864  0.00  0.00    +0.172 C 
ENDBRANCH   1   2
BRANCH   1   8
ATOM      8  C   UNL     1      -1.340  -0.551  -0.103  0.00  0.00    -0.029 C 
BRANCH   8   9
ATOM      9  N   UNL     1      -1.914  -0.051   1.154  0.00  0.00    +0.383 N 
ATOM     10  H   UNL     1      -1.396  -0.428   1.933  0.00  0.00    -0.089 HD
ATOM     11  H   UNL     1      -1.860   0.957   1.171  0.00  0.00    -0.089 HD
ATOM     12  H   UNL     1      -2.879  -0.338   1.221  0.00  0.00    -0.089 HD
ENDBRANCH   8   9
BRANCH   8  14
ATOM     13  C   UNL     1       0.196   1.409  -0.304  0.00  0.00    +0.002 C 
ATOM     14  C   UNL     1       0.123  -0.116  -0.204  0.00  0.00    -0.016 C 
ENDBRANCH   8  14
ENDBRANCH   1   8
BRANCH   1  15
ATOM     15  O   UNL     1      -0.594  -2.617   0.906  0.00  0.00    -0.486 OA
BRANCH  15  16
ATOM     16  C   UNL     1      -1.179  -2.836   2.113  0.00  0.00    +0.121 A 
ATOM     17  C   UNL     1      -2.541  -2.623   2.274  0.00  0.00    +0.047 A 
ATOM     18  C   UNL     1      -3.134  -2.847   3.501  0.00  0.00    +0.019 A 
ATOM     19  C   UNL     1      -2.370  -3.283   4.570  0.00  0.00    +0.018 A 
ATOM     20  C   UNL     1      -1.013  -3.496   4.412  0.00  0.00    +0.019 A 
ATOM     21  C   UNL     1      -0.417  -3.279   3.184  0.00  0.00    +0.047 A 
ATOM     22 BR   UNL     1      -3.184  -3.588   6.249  0.00  0.00    -0.050 Br
ENDBRANCH  15  16
ENDBRANCH   1  15
TORSDOF 6
