REMARK  Name = ZINC01335170
REMARK  6 active torsions:
REMARK  status: ('A' for Active; 'I' for Inactive)
REMARK    1  A    between atoms: C_4  and  S_7
REMARK    2  A    between atoms: S_7  and  N_10
REMARK    3  A    between atoms: N_10  and  C_11
REMARK    4  A    between atoms: N_10  and  C_28
REMARK    5  A    between atoms: C_11  and  C_12
REMARK    6  A    between atoms: C_28  and  C_29
REMARK                            x       y       z     vdW  Elec       q    Type
REMARK                         _______ _______ _______ _____ _____    ______ ____
ROOT
ATOM      1  N   UNL     1       4.287   2.444  -1.694  0.00  0.00    -0.170 NA
ENDROOT
BRANCH   1   2
ATOM      2  S   UNL     1       4.330   2.133  -0.068  0.00  0.00    +0.061 S 
ATOM      3  O   UNL     1       4.264   3.392   0.587  0.00  0.00    -0.153 OA
ATOM      4  O   UNL     1       5.398   1.220   0.143  0.00  0.00    -0.153 OA
BRANCH   2   8
ATOM      5  C   UNL     1       0.516  -0.071   0.974  0.00  0.00    +0.000 A 
ATOM      6  C   UNL     1       0.585   1.301   1.126  0.00  0.00    +0.002 A 
ATOM      7  C   UNL     1       1.750   1.974   0.808  0.00  0.00    +0.028 A 
ATOM      8  C   UNL     1       2.846   1.275   0.338  0.00  0.00    +0.105 A 
ATOM      9  C   UNL     1       2.777  -0.097   0.187  0.00  0.00    +0.028 A 
ATOM     10  C   UNL     1       1.613  -0.770   0.505  0.00  0.00    +0.002 A 
ENDBRANCH   2   8
ENDBRANCH   1   2
BRANCH   1  11
ATOM     11  C   UNL     1       4.728   1.422  -2.647  0.00  0.00    +0.150 C 
BRANCH  11  12
ATOM     12  C   UNL     1       6.141   1.715  -3.081  0.00  0.00    +0.033 A 
ATOM     13  C   UNL     1       7.183   1.145  -2.425  0.00  0.00    +0.020 A 
ATOM     14  C   UNL     1       8.542   1.449  -2.870  0.00  0.00    +0.003 A 
ATOM     15  C   UNL     1       9.654   0.890  -2.230  0.00  0.00    +0.059 A 
ATOM     16  C   UNL     1      10.924   1.197  -2.671  0.00  0.00    +0.163 A 
ATOM     17  C   UNL     1      11.103   2.061  -3.756  0.00  0.00    +0.164 A 
ATOM     18  C   UNL     1      10.008   2.619  -4.394  0.00  0.00    +0.075 A 
ATOM     19  C   UNL     1       8.723   2.321  -3.961  0.00  0.00    +0.053 A 
ATOM     20  N   UNL     1       7.621   2.868  -4.586  0.00  0.00    -0.322 N 
ATOM     21  H   UNL     1       7.750   3.490  -5.359  0.00  0.00    +0.169 HD
ATOM     22  C   UNL     1       6.375   2.577  -4.172  0.00  0.00    +0.254 A 
ATOM     23  O   UNL     1       5.425   3.075  -4.751  0.00  0.00    -0.268 OA
ATOM     24  O   UNL     1      12.352   2.364  -4.202  0.00  0.00    -0.485 OA
ATOM     25  C   UNL     1      13.438   2.091  -3.310  0.00  0.00    +0.270 C 
ATOM     26  C   UNL     1      13.245   0.681  -2.735  0.00  0.00    +0.270 C 
ATOM     27  O   UNL     1      11.997   0.649  -2.035  0.00  0.00    -0.485 OA
ENDBRANCH  11  12
ENDBRANCH   1  11
BRANCH   1  28
ATOM     28  C   UNL     1       3.809   3.740  -2.180  0.00  0.00    +0.143 C 
BRANCH  28  29
ATOM     29  C   UNL     1       4.996   4.691  -2.348  0.00  0.00    +0.160 C 
ATOM     30  C   UNL     1       4.508   6.021  -2.930  0.00  0.00    +0.192 C 
ATOM     31  O   UNL     1       5.602   6.942  -2.980  0.00  0.00    -0.375 OA
ATOM     32  C   UNL     1       6.207   7.181  -1.705  0.00  0.00    +0.188 C 
ATOM     33  C   UNL     1       6.695   5.851  -1.123  0.00  0.00    +0.188 C 
ATOM     34  O   UNL     1       5.601   4.931  -1.074  0.00  0.00    -0.371 OA
ENDBRANCH  28  29
ENDBRANCH   1  28
TORSDOF 6
