REMARK  Name = ZINC12247628
REMARK  10 active torsions:
REMARK  status: ('A' for Active; 'I' for Inactive)
REMARK    1  A    between atoms: C_1  and  C_2
REMARK    2  A    between atoms: C_2  and  C_30
REMARK    3  A    between atoms: C_4  and  N_59
REMARK    4  A    between atoms: C_9  and  C_10
REMARK    5  A    between atoms: C_9  and  N_59
REMARK    6  A    between atoms: C_15  and  S_28
REMARK    7  A    between atoms: C_19  and  C_20
REMARK    8  A    between atoms: C_23  and  O_26
REMARK    9  A    between atoms: O_26  and  C_27
REMARK   10  A    between atoms: S_28  and  C_29
REMARK                            x       y       z     vdW  Elec       q    Type
REMARK                         _______ _______ _______ _____ _____    ______ ____
ROOT
ATOM      1  C   UNL     1       3.525   3.237  -0.121  0.00  0.00    -0.038 A 
ATOM      2  C   UNL     1       2.357   3.938  -0.061  0.00  0.00    +0.013 A 
ATOM      3  C   UNL     1       1.151   3.221   0.053  0.00  0.00    +0.001 A 
ATOM      4  C   UNL     1      -0.085   3.885   0.120  0.00  0.00    +0.011 A 
ATOM      5  C   UNL     1      -1.235   3.168   0.229  0.00  0.00    +0.015 A 
ATOM      6  C   UNL     1      -1.206   1.768   0.272  0.00  0.00    +0.010 A 
ATOM      7  C   UNL     1      -0.009   1.087   0.214  0.00  0.00    +0.043 A 
ATOM      8  C   UNL     1       1.193   1.804   0.101  0.00  0.00    +0.073 A 
ATOM      9  N   UNL     1       2.367   1.168   0.037  0.00  0.00    -0.246 NA
ATOM     10  C   UNL     1       3.502   1.835  -0.070  0.00  0.00    +0.073 A 
ENDROOT
BRANCH  10  11
ATOM     11  C   UNL     1       4.779   1.086  -0.137  0.00  0.00    +0.001 A 
ATOM     12  C   UNL     1       4.922   0.028  -1.035  0.00  0.00    +0.013 A 
ATOM     13  C   UNL     1       6.113  -0.663  -1.098  0.00  0.00    +0.046 A 
ATOM     14  C   UNL     1       7.165  -0.315  -0.262  0.00  0.00    +0.120 A 
ATOM     15  C   UNL     1       7.024   0.735   0.637  0.00  0.00    +0.046 A 
ATOM     16  C   UNL     1       5.837   1.433   0.702  0.00  0.00    +0.013 A 
BRANCH  14  17
ATOM     17  O   UNL     1       8.335  -1.002  -0.322  0.00  0.00    -0.495 OA
ATOM     18  C   UNL     1       8.413  -2.069  -1.269  0.00  0.00    +0.277 C 
ENDBRANCH  14  17
ENDBRANCH  10  11
BRANCH   6  19
ATOM     19  S   UNL     1      -2.715   0.869   0.407  0.00  0.00    -0.129 S 
ATOM     20  C   UNL     1      -3.991   2.158   0.449  0.00  0.00    +0.090 C 
ENDBRANCH   6  19
BRANCH   1  21
ATOM     21  C   UNL     1       4.838   3.966  -0.243  0.00  0.00    -0.044 C 
BRANCH  21  22
ATOM     22  N   UNL     1       5.362   3.793  -1.611  0.00  0.00    +0.384 N 
ATOM     23  H   UNL     1       5.500   2.793  -1.797  0.00  0.00    -0.085 HD
ATOM     24  H   UNL     1       4.687   4.176  -2.283  0.00  0.00    -0.085 HD
BRANCH  22  28
ATOM     25  C   UNL     1       9.600   4.562  -1.814  0.00  0.00    +0.041 C 
ATOM     26  C   UNL     1       8.758   4.622  -3.090  0.00  0.00    +0.063 C 
ATOM     27  C   UNL     1       7.458   3.840  -2.882  0.00  0.00    +0.019 C 
ATOM     28  C   UNL     1       6.649   4.498  -1.760  0.00  0.00    -0.067 C 
ATOM     29  C   UNL     1       6.393   5.964  -2.122  0.00  0.00    +0.012 C 
ATOM     30  C   UNL     1       7.734   6.664  -2.360  0.00  0.00    +0.159 C 
ATOM     31  O   UNL     1       8.448   5.984  -3.393  0.00  0.00    -0.374 OA
ATOM     32  C   UNL     1       9.544   4.007  -4.250  0.00  0.00    +0.041 C 
ENDBRANCH  22  28
ENDBRANCH  21  22
ENDBRANCH   1  21
TORSDOF 6
