REMARK  Name = ZINC41212937
REMARK  9 active torsions:
REMARK  status: ('A' for Active; 'I' for Inactive)
REMARK    1  A    between atoms: C_1  and  C_2
REMARK    2  A    between atoms: C_2  and  N_3
REMARK    3  A    between atoms: N_3  and  C_4
REMARK    4  A    between atoms: N_3  and  C_6
REMARK    5  A    between atoms: C_4  and  C_5
REMARK    6  A    between atoms: C_9  and  C_12
REMARK    7  A    between atoms: N_13  and  N_14
REMARK    8  A    between atoms: C_15  and  C_17
REMARK    9  A    between atoms: C_17  and  C_18
REMARK                            x       y       z     vdW  Elec       q    Type
REMARK                         _______ _______ _______ _____ _____    ______ ____
ROOT
ATOM      1  C   UNL     1      -2.245  -1.431  -5.926  0.00  0.00    +0.138 C 
ATOM      2  N   UNL     1      -1.639  -1.855  -6.992  0.00  0.00    -0.188 NA
ENDROOT
BRANCH   1   6
ATOM      3  C   UNL     1      -0.037  -0.712  -2.371  0.00  0.00    +0.030 A 
ATOM      4  C   UNL     1      -1.411  -0.493  -2.391  0.00  0.00    +0.024 A 
ATOM      5  C   UNL     1      -2.130  -0.725  -3.542  0.00  0.00    +0.011 A 
ATOM      6  C   UNL     1      -1.479  -1.181  -4.692  0.00  0.00    -0.005 A 
ATOM      7  C   UNL     1      -0.099  -1.400  -4.668  0.00  0.00    +0.011 A 
ATOM      8  C   UNL     1       0.615  -1.161  -3.514  0.00  0.00    +0.024 A 
BRANCH   3   9
ATOM      9  N   UNL     1       0.688  -0.476  -1.203  0.00  0.00    -0.330 N 
BRANCH   9  11
ATOM     10  C   UNL     1      -0.019   1.526   0.010  0.00  0.00    +0.024 C 
ATOM     11  C   UNL     1       0.002  -0.004   0.002  0.00  0.00    +0.102 C 
ENDBRANCH   9  11
BRANCH   9  12
ATOM     12  C   UNL     1       2.135  -0.701  -1.182  0.00  0.00    +0.102 C 
ATOM     13  C   UNL     1       2.421  -2.145  -0.763  0.00  0.00    +0.024 C 
ENDBRANCH   9  12
ENDBRANCH   3   9
ENDBRANCH   1   6
BRANCH   2  14
ATOM     14  N   UNL     1      -2.367  -2.092  -8.165  0.00  0.00    -0.207 N 
ATOM     15  C   UNL     1      -1.737  -2.532  -9.272  0.00  0.00    +0.238 C 
ATOM     16  O   UNL     1      -0.539  -2.722  -9.253  0.00  0.00    -0.274 OA
ATOM     17  H   UNL     1      -3.325  -1.940  -8.180  0.00  0.00    +0.177 HD
BRANCH  15  18
ATOM     18  C   UNL     1      -2.521  -2.787 -10.534  0.00  0.00    +0.153 C 
BRANCH  18  19
ATOM     19  C   UNL     1      -1.589  -3.269 -11.615  0.00  0.00    +0.059 A 
ATOM     20  C   UNL     1      -1.811  -4.431 -12.275  0.00  0.00    +0.072 A 
ATOM     21  S   UNL     1      -0.418  -4.453 -13.391  0.00  0.00    -0.061 S 
ATOM     22  C   UNL     1       0.290  -3.004 -12.909  0.00  0.00    +0.156 A 
ATOM     23  N   UNL     1      -0.521  -2.573 -11.966  0.00  0.00    -0.230 NA
ATOM     24  N   UNL     1       1.444  -2.406 -13.391  0.00  0.00    -0.338 N 
ATOM     25  H   UNL     1       1.952  -2.833 -14.099  0.00  0.00    +0.144 HD
ATOM     26  H   UNL     1       1.744  -1.562 -13.021  0.00  0.00    +0.144 HD
ENDBRANCH  18  19
ENDBRANCH  15  18
ENDBRANCH   2  14
TORSDOF 7
