REMARK  Name = ZINC00654507
REMARK  6 active torsions:
REMARK  status: ('A' for Active; 'I' for Inactive)
REMARK    1  A    between atoms: C_1  and  C_2
REMARK    2  A    between atoms: C_7  and  N_8
REMARK    3  A    between atoms: C_12  and  C_13
REMARK    4  A    between atoms: C_15  and  C_24
REMARK    5  A    between atoms: N_16  and  C_19
REMARK    6  A    between atoms: C_17  and  C_18
REMARK                            x       y       z     vdW  Elec       q    Type
REMARK                         _______ _______ _______ _____ _____    ______ ____
ROOT
ATOM      1  N   UNL     1       1.212  -3.745   5.023  0.00  0.00    -0.217 N 
ATOM      2  C   UNL     1       0.712  -3.982   3.793  0.00  0.00    +0.262 C 
ATOM      3  O   UNL     1       0.389  -5.106   3.457  0.00  0.00    -0.269 OA
ATOM      4  C   UNL     1       0.566  -2.844   2.868  0.00  0.00    +0.100 C 
ATOM      5  C   UNL     1       0.060  -3.011   1.590  0.00  0.00    +0.028 C 
ATOM      6  C   UNL     1       0.988  -1.520   3.362  0.00  0.00    +0.255 C 
ATOM      7  O   UNL     1       0.903  -0.533   2.655  0.00  0.00    -0.270 OA
ATOM      8  N   UNL     1       1.468  -1.432   4.620  0.00  0.00    -0.263 N 
ATOM      9  C   UNL     1       1.572  -2.512   5.407  0.00  0.00    +0.150 C 
ATOM     10  S   UNL     1       2.198  -2.305   6.987  0.00  0.00    -0.018 S 
ATOM     11  H   UNL     1       1.747  -0.568   4.961  0.00  0.00    +0.157 HD
ENDROOT
BRANCH   1  18
ATOM     12  C   UNL     1      -0.964  -4.361   6.750  0.00  0.00    +0.046 C 
ATOM     13  C   UNL     1       0.322  -5.145   6.780  0.00  0.00    -0.028 A 
ATOM     14  C   UNL     1       0.470  -6.197   7.663  0.00  0.00    +0.020 A 
ATOM     15  C   UNL     1       1.651  -6.917   7.691  0.00  0.00    +0.018 A 
ATOM     16  C   UNL     1       2.687  -6.586   6.835  0.00  0.00    +0.017 A 
ATOM     17  C   UNL     1       2.542  -5.539   5.947  0.00  0.00    +0.025 A 
ATOM     18  C   UNL     1       1.360  -4.811   5.920  0.00  0.00    +0.046 A 
ATOM     19 BR   UNL     1       1.849  -8.356   8.901  0.00  0.00    -0.050 Br
ENDBRANCH   1  18
BRANCH   5  20
ATOM     20  C   UNL     1      -0.243  -1.879   0.795  0.00  0.00    -0.003 A 
ATOM     21  C   UNL     1      -0.942  -0.657   1.221  0.00  0.00    +0.030 A 
ATOM     22  C   UNL     1      -1.004   0.139   0.141  0.00  0.00    +0.017 A 
ATOM     23  N   UNL     1      -0.408  -0.488  -0.916  0.00  0.00    -0.345 N 
ATOM     24  C   UNL     1       0.059  -1.694  -0.546  0.00  0.00    +0.023 A 
ATOM     25  C   UNL     1       0.778  -2.675  -1.435  0.00  0.00    +0.064 C 
ATOM     26  C   UNL     1      -1.636   1.506   0.101  0.00  0.00    +0.063 C 
BRANCH  23  27
ATOM     27  C   UNL     1      -0.290   0.075  -2.263  0.00  0.00    +0.087 C 
ATOM     28  C   UNL     1      -0.837  -0.924  -3.304  0.00  0.00    +0.025 C 
ATOM     29  C   UNL     1       0.110  -0.763  -4.519  0.00  0.00    +0.002 C 
ATOM     30  C   UNL     1       1.493  -0.561  -3.850  0.00  0.00    +0.002 C 
ATOM     31  C   UNL     1       1.191   0.306  -2.611  0.00  0.00    +0.025 C 
ENDBRANCH  23  27
ENDBRANCH   5  20
TORSDOF 3
