REMARK  Name = ZINC34789032
REMARK  6 active torsions:
REMARK  status: ('A' for Active; 'I' for Inactive)
REMARK    1  A    between atoms: C_1  and  C_2
REMARK    2  A    between atoms: C_5  and  S_8
REMARK    3  A    between atoms: S_8  and  N_11
REMARK    4  A    between atoms: C_18  and  C_20
REMARK    5  A    between atoms: C_20  and  N_21
REMARK    6  A    between atoms: C_29  and  C_31
REMARK                            x       y       z     vdW  Elec       q    Type
REMARK                         _______ _______ _______ _____ _____    ______ ____
ROOT
ATOM      1  N   UNL     1       1.651  -4.999  -0.034  0.00  0.00    -0.175 NA
ATOM      2  C   UNL     1       2.311  -5.184  -1.294  0.00  0.00    +0.111 C 
ATOM      3  C   UNL     1       2.038  -6.621  -1.767  0.00  0.00    +0.036 C 
ATOM      4  C   UNL     1       2.891  -7.598  -1.071  0.00  0.00    +0.109 C 
ATOM      5  N   UNL     1       2.675  -7.518   0.393  0.00  0.00    -0.299 N 
ATOM      6  C   UNL     1       3.271  -6.454   1.152  0.00  0.00    +0.125 C 
ATOM      7  C   UNL     1       2.349  -5.210   1.264  0.00  0.00    +0.128 C 
ATOM      8  C   UNL     1       1.919  -8.445   1.014  0.00  0.00    +0.230 C 
ATOM      9  O   UNL     1       1.742  -8.380   2.212  0.00  0.00    -0.274 OA
ENDROOT
BRANCH   1  10
ATOM     10  S   UNL     1       0.063  -4.530  -0.023  0.00  0.00    +0.061 S 
ATOM     11  O   UNL     1      -0.476  -4.950   1.223  0.00  0.00    -0.153 OA
ATOM     12  O   UNL     1      -0.490  -4.937  -1.267  0.00  0.00    -0.153 OA
BRANCH  10  17
ATOM     13  C   UNL     1      -0.018   1.503   0.010  0.00  0.00    +0.044 C 
ATOM     14  C   UNL     1       0.002  -0.004   0.002  0.00  0.00    -0.050 A 
ATOM     15  C   UNL     1       0.006  -0.689  -1.199  0.00  0.00    +0.005 A 
ATOM     16  C   UNL     1       0.025  -2.071  -1.206  0.00  0.00    +0.029 A 
ATOM     17  C   UNL     1       0.040  -2.768  -0.013  0.00  0.00    +0.105 A 
ATOM     18  C   UNL     1       0.037  -2.084   1.188  0.00  0.00    +0.029 A 
ATOM     19  C   UNL     1       0.023  -0.702   1.195  0.00  0.00    +0.005 A 
ENDBRANCH  10  17
ENDBRANCH   1  10
BRANCH   8  20
ATOM     20  C   UNL     1       1.292  -9.562   0.219  0.00  0.00    +0.181 C 
BRANCH  20  21
ATOM     21  N   UNL     1       0.523 -10.432   1.118  0.00  0.00    -0.283 NA
ATOM     22  C   UNL     1      -0.610  -9.707   1.710  0.00  0.00    +0.091 C 
ATOM     23  C   UNL     1      -1.124 -10.498   2.925  0.00  0.00    +0.058 C 
ATOM     24  C   UNL     1      -1.243 -11.931   2.519  0.00  0.00    -0.004 A 
ATOM     25  C   UNL     1      -0.715 -12.506   1.402  0.00  0.00    -0.016 A 
ATOM     26  C   UNL     1      -0.960 -13.866   1.228  0.00  0.00    +0.013 A 
ATOM     27  C   UNL     1      -1.688 -14.546   2.144  0.00  0.00    +0.046 A 
ATOM     28  S   UNL     1      -2.074 -13.266   3.331  0.00  0.00    -0.101 S 
ATOM     29  C   UNL     1       0.097 -11.656   0.429  0.00  0.00    +0.118 C 
BRANCH  29  30
ATOM     30  C   UNL     1       1.308 -12.428  -0.029  0.00  0.00    -0.023 A 
ATOM     31  C   UNL     1       2.417 -12.522   0.791  0.00  0.00    +0.006 A 
ATOM     32  C   UNL     1       3.528 -13.230   0.373  0.00  0.00    +0.003 A 
ATOM     33  C   UNL     1       3.532 -13.843  -0.866  0.00  0.00    +0.038 A 
ATOM     34  C   UNL     1       2.422 -13.749  -1.687  0.00  0.00    +0.124 A 
ATOM     35  C   UNL     1       1.307 -13.045  -1.265  0.00  0.00    +0.043 A 
ATOM     36  F   UNL     1       2.425 -14.347  -2.898  0.00  0.00    -0.205 F 
ENDBRANCH  29  30
ENDBRANCH  20  21
ENDBRANCH   8  20
TORSDOF 5
