REMARK  Name = ZINC48356264
REMARK  3 active torsions:
REMARK  status: ('A' for Active; 'I' for Inactive)
REMARK    1  A    between atoms: C_1  and  C_2
REMARK    2  A    between atoms: C_6  and  N_8
REMARK    3  A    between atoms: C_9  and  C_20
REMARK                            x       y       z     vdW  Elec       q    Type
REMARK                         _______ _______ _______ _____ _____    ______ ____
ROOT
ATOM      1  N   UNL     1       0.051  -2.797   2.392  0.00  0.00    -0.243 N 
ATOM      2  C   UNL     1      -0.035  -4.258   2.369  0.00  0.00    +0.218 C 
ATOM      3  N   UNL     1      -0.754  -4.744   3.552  0.00  0.00    -0.320 N 
ATOM      4  C   UNL     1      -0.465  -4.180   4.790  0.00  0.00    +0.041 A 
ATOM      5  C   UNL     1      -0.605  -4.895   5.967  0.00  0.00    +0.024 A 
ATOM      6  C   UNL     1      -0.316  -4.288   7.175  0.00  0.00    +0.002 A 
ATOM      7  C   UNL     1       0.112  -2.970   7.216  0.00  0.00    +0.001 A 
ATOM      8  C   UNL     1       0.261  -2.245   6.052  0.00  0.00    +0.015 A 
ATOM      9  C   UNL     1      -0.022  -2.846   4.827  0.00  0.00    +0.058 A 
ATOM     10  C   UNL     1       0.150  -2.123   3.555  0.00  0.00    +0.254 C 
ATOM     11  O   UNL     1       0.375  -0.927   3.553  0.00  0.00    -0.270 OA
ATOM     12  H   UNL     1      -1.418  -5.446   3.473  0.00  0.00    +0.148 HD
ENDROOT
BRANCH   1  18
ATOM     13  C   UNL     1      -2.373  -1.338  -1.629  0.00  0.00    +0.044 C 
ATOM     14  C   UNL     1      -1.125  -1.365  -0.783  0.00  0.00    -0.049 A 
ATOM     15  C   UNL     1       0.007  -0.689  -1.200  0.00  0.00    +0.003 A 
ATOM     16  C   UNL     1       1.153  -0.712  -0.428  0.00  0.00    +0.002 A 
ATOM     17  C   UNL     1       1.171  -1.410   0.764  0.00  0.00    +0.023 A 
ATOM     18  C   UNL     1       0.036  -2.089   1.186  0.00  0.00    +0.039 A 
ATOM     19  C   UNL     1      -1.116  -2.060   0.410  0.00  0.00    +0.027 A 
ENDBRANCH   1  18
BRANCH   2  20
ATOM     20  C   UNL     1       1.355  -4.839   2.359  0.00  0.00    +0.111 A 
ATOM     21  C   UNL     1       1.644  -6.047   2.908  0.00  0.00    +0.095 A 
ATOM     22  S   UNL     1       3.292  -6.179   2.614  0.00  0.00    +0.029 S 
ATOM     23  N   UNL     1       3.538  -4.775   1.848  0.00  0.00    -0.110 NA
ATOM     24  N   UNL     1       2.378  -4.217   1.813  0.00  0.00    -0.143 NA
ENDBRANCH   2  20
TORSDOF 2
