REMARK  Name = ZINC38742352
REMARK  7 active torsions:
REMARK  status: ('A' for Active; 'I' for Inactive)
REMARK    1  A    between atoms: C_1  and  C_2
REMARK    2  A    between atoms: C_5  and  C_9
REMARK    3  A    between atoms: C_7  and  C_8
REMARK    4  A    between atoms: C_12  and  C_19
REMARK    5  A    between atoms: C_22  and  C_25
REMARK    6  A    between atoms: C_25  and  C_26
REMARK    7  A    between atoms: C_25  and  C_27
REMARK                            x       y       z     vdW  Elec       q    Type
REMARK                         _______ _______ _______ _____ _____    ______ ____
ROOT
ATOM      1  C   UNL     1       0.061  -4.251  -0.021  0.00  0.00    +0.125 C 
ATOM      2  N   UNL     1       0.071  -5.059   0.999  0.00  0.00    -0.173 NA
ATOM      3  N   UNL     1       0.172  -6.427   0.871  0.00  0.00    -0.206 N 
ATOM      4  C   UNL     1       0.555  -7.676   1.569  0.00  0.00    +0.206 C 
ATOM      5  N   UNL     1       1.228  -8.511   0.545  0.00  0.00    -0.231 NA
ATOM      6  N   UNL     1       1.121  -7.780  -0.729  0.00  0.00    -0.224 NA
ATOM      7  C   UNL     1      -0.065  -6.925  -0.521  0.00  0.00    +0.240 C 
ATOM      8  S   UNL     1       0.068  -5.345  -1.435  0.00  0.00    -0.063 S 
ATOM      9  H   UNL     1       2.193  -8.675   0.788  0.00  0.00    +0.143 HD
ATOM     10  H   UNL     1       1.945  -7.222  -0.896  0.00  0.00    +0.144 HD
ENDROOT
BRANCH   1  15
ATOM     11  C   UNL     1      -0.018   1.503   0.010  0.00  0.00    +0.044 C 
ATOM     12  C   UNL     1       0.002  -0.004   0.002  0.00  0.00    -0.047 A 
ATOM     13  C   UNL     1       0.006  -0.686  -1.202  0.00  0.00    +0.004 A 
ATOM     14  C   UNL     1       0.025  -2.066  -1.216  0.00  0.00    +0.011 A 
ATOM     15  C   UNL     1       0.041  -2.773  -0.013  0.00  0.00    +0.009 A 
ATOM     16  C   UNL     1       0.037  -2.079   1.197  0.00  0.00    +0.014 A 
ATOM     17  C   UNL     1       0.023  -0.699   1.198  0.00  0.00    -0.047 A 
ATOM     18  C   UNL     1       0.025   0.052   2.504  0.00  0.00    +0.044 C 
ENDBRANCH   1  15
BRANCH   4  19
ATOM     19  C   UNL     1      -0.690  -8.388   2.101  0.00  0.00    +0.190 C 
ATOM     20  C   UNL     1      -0.305  -9.638   2.873  0.00  0.00    +0.030 C 
ATOM     21  C   UNL     1      -0.879 -10.629   2.188  0.00  0.00    +0.064 C 
ATOM     22  N   UNL     1      -1.550 -10.147   1.118  0.00  0.00    -0.158 NA
ATOM     23  N   UNL     1      -1.502  -8.917   0.992  0.00  0.00    -0.177 NA
BRANCH  21  24
ATOM     24  C   UNL     1      -0.790 -12.088   2.556  0.00  0.00    +0.033 C 
ATOM     25  C   UNL     1      -2.197 -12.636   2.806  0.00  0.00    +0.014 C 
ATOM     26  C   UNL     1      -0.136 -12.864   1.411  0.00  0.00    +0.014 C 
ENDBRANCH  21  24
ENDBRANCH   4  19
TORSDOF 3
