REMARK  Name = ZINC33252798
REMARK  6 active torsions:
REMARK  status: ('A' for Active; 'I' for Inactive)
REMARK    1  A    between atoms: C_1  and  C_2
REMARK    2  A    between atoms: C_2  and  C_4
REMARK    3  A    between atoms: C_2  and  C_17
REMARK    4  A    between atoms: C_4  and  C_5
REMARK    5  A    between atoms: C_17  and  C_18
REMARK    6  A    between atoms: N_23  and  C_26
REMARK                            x       y       z     vdW  Elec       q    Type
REMARK                         _______ _______ _______ _____ _____    ______ ____
ROOT
ATOM      1  C   UNL     1       0.007   1.506   0.025  0.00  0.00    +0.008 C 
ATOM      2  C   UNL     1       0.008  -0.024   0.010  0.00  0.00    +0.002 C 
ENDROOT
BRANCH   2   3
ATOM      3  C   UNL     1       0.737  -0.546   1.249  0.00  0.00    +0.077 C 
BRANCH   3   4
ATOM      4  C   UNL     1      -0.034  -0.161   2.485  0.00  0.00    +0.122 C 
ATOM      5  N   UNL     1       0.482  -0.544   3.679  0.00  0.00    -0.300 N 
ATOM      6  C   UNL     1      -0.248  -0.634   4.861  0.00  0.00    +0.059 A 
ATOM      7  C   UNL     1       0.227  -1.383   5.930  0.00  0.00    +0.025 A 
ATOM      8  C   UNL     1      -0.508  -1.460   7.097  0.00  0.00    +0.002 A 
ATOM      9  C   UNL     1      -1.714  -0.793   7.208  0.00  0.00    +0.002 A 
ATOM     10  C   UNL     1      -2.193  -0.046   6.146  0.00  0.00    +0.031 A 
ATOM     11  C   UNL     1      -1.464   0.031   4.981  0.00  0.00    +0.134 A 
ATOM     12  S   UNL     1      -2.047   0.969   3.606  0.00  0.00    +0.102 S 
ATOM     13  O   UNL     1      -3.373   0.530   3.341  0.00  0.00    -0.146 OA
ATOM     14  O   UNL     1      -1.730   2.329   3.870  0.00  0.00    -0.146 OA
ATOM     15  N   UNL     1      -1.117   0.506   2.313  0.00  0.00    -0.118 NA
ATOM     16  H   UNL     1       1.424  -0.772   3.712  0.00  0.00    +0.153 HD
ENDBRANCH   3   4
ENDBRANCH   2   3
BRANCH   2  17
ATOM     17  C   UNL     1       0.722  -0.521  -1.249  0.00  0.00    +0.099 C 
BRANCH  17  18
ATOM     18  C   UNL     1      -0.064  -0.111  -2.468  0.00  0.00    +0.216 C 
ATOM     19  O   UNL     1      -1.094   0.517  -2.342  0.00  0.00    -0.276 OA
ATOM     20  N   UNL     1       0.378  -0.441  -3.697  0.00  0.00    -0.298 N 
ATOM     21  C   UNL     1       1.621  -1.207  -3.865  0.00  0.00    +0.126 C 
ATOM     22  C   UNL     1       1.315  -2.462  -4.691  0.00  0.00    +0.124 C 
ATOM     23  N   UNL     1       0.562  -2.064  -5.889  0.00  0.00    -0.327 N 
ATOM     24  C   UNL     1      -0.681  -1.298  -5.722  0.00  0.00    +0.124 C 
ATOM     25  C   UNL     1      -0.378  -0.048  -4.894  0.00  0.00    +0.126 C 
BRANCH  23  26
ATOM     26  C   UNL     1       1.020  -2.407  -7.164  0.00  0.00    +0.030 A 
ATOM     27  C   UNL     1       2.253  -3.030  -7.316  0.00  0.00    +0.024 A 
ATOM     28  C   UNL     1       2.702  -3.368  -8.578  0.00  0.00    +0.022 A 
ATOM     29  C   UNL     1       1.927  -3.087  -9.689  0.00  0.00    +0.041 A 
ATOM     30  C   UNL     1       0.699  -2.467  -9.540  0.00  0.00    +0.022 A 
ATOM     31  C   UNL     1       0.241  -2.132  -8.280  0.00  0.00    +0.024 A 
ATOM     32 CL   UNL     1       2.496  -3.513 -11.273  0.00  0.00    -0.084 Cl
ENDBRANCH  23  26
ENDBRANCH  17  18
ENDBRANCH   2  17
TORSDOF 5
