REMARK  Name = ZINC36326022
REMARK  6 active torsions:
REMARK  status: ('A' for Active; 'I' for Inactive)
REMARK    1  A    between atoms: C_1  and  C_2
REMARK    2  A    between atoms: C_2  and  C_3
REMARK    3  A    between atoms: C_10  and  C_12
REMARK    4  A    between atoms: C_12  and  C_14
REMARK    5  A    between atoms: C_14  and  C_15
REMARK    6  A    between atoms: C_14  and  C_16
REMARK                            x       y       z     vdW  Elec       q    Type
REMARK                         _______ _______ _______ _____ _____    ______ ____
ROOT
ATOM      1  C   UNL     1       0.776  -0.377  -1.271  0.00  0.00    +0.101 C 
ATOM      2  C   UNL     1       0.925  -1.897  -1.402  0.00  0.00    +0.182 C 
ATOM      3  O   UNL     1       1.500  -2.206  -2.674  0.00  0.00    -0.376 OA
ATOM      4  C   UNL     1       0.700  -1.811  -3.791  0.00  0.00    +0.179 C 
ATOM      5  C   UNL     1       0.539  -0.286  -3.782  0.00  0.00    +0.136 C 
ATOM      6  N   UNL     1       0.056   0.123  -2.453  0.00  0.00    -0.293 N 
ATOM      7  C   UNL     1      -1.015   0.931  -2.323  0.00  0.00    +0.230 C 
ATOM      8  O   UNL     1      -1.335   1.342  -1.228  0.00  0.00    -0.274 OA
ENDROOT
BRANCH   1  10
ATOM      9  C   UNL     1       0.705  -0.619   1.214  0.00  0.00    +0.006 C 
ATOM     10  C   UNL     1      -0.017  -0.044  -0.006  0.00  0.00    +0.021 C 
ENDBRANCH   1  10
BRANCH   7  11
ATOM     11  C   UNL     1      -1.816   1.322  -3.538  0.00  0.00    +0.145 C 
ATOM     12 BR   UNL     1      -1.494   3.217  -3.952  0.00  0.00    -0.078 Br
BRANCH  11  13
ATOM     13  C   UNL     1      -3.305   1.107  -3.260  0.00  0.00    +0.005 C 
ATOM     14  C   UNL     1      -3.759   2.059  -2.151  0.00  0.00    +0.009 C 
ATOM     15  C   UNL     1      -4.107   1.385  -4.532  0.00  0.00    +0.009 C 
ENDBRANCH  11  13
ENDBRANCH   7  11
TORSDOF 3
