REMARK  Name = ZINC05672977
REMARK  8 active torsions:
REMARK  status: ('A' for Active; 'I' for Inactive)
REMARK    1  A    between atoms: C_1  and  C_2
REMARK    2  A    between atoms: C_18  and  C_33
REMARK    3  A    between atoms: C_23  and  C_32
REMARK    4  A    between atoms: C_24  and  C_25
REMARK    5  A    between atoms: C_24  and  O_28
REMARK    6  A    between atoms: C_25  and  C_27
REMARK    7  A    between atoms: O_28  and  C_29
REMARK    8  A    between atoms: C_29  and  C_31
REMARK                            x       y       z     vdW  Elec       q    Type
REMARK                         _______ _______ _______ _____ _____    ______ ____
ROOT
ATOM      1  C   UNL     1      -1.454   5.917   3.426  0.00  0.00    +0.012 C 
ATOM      2  C   UNL     1      -1.041   5.075   2.217  0.00  0.00    +0.038 C 
ATOM      3  C   UNL     1      -1.690   5.644   0.954  0.00  0.00    +0.008 C 
ATOM      4  C   UNL     1      -1.284   4.807  -0.248  0.00  0.00    +0.005 C 
ATOM      5  C   UNL     1      -1.732   3.357  -0.052  0.00  0.00    +0.003 C 
ATOM      6  C   UNL     1      -1.321   2.531  -1.278  0.00  0.00    -0.003 C 
ATOM      7  C   UNL     1      -1.984   3.171  -2.494  0.00  0.00    +0.008 C 
ATOM      8  C   UNL     1      -2.215   2.178  -3.624  0.00  0.00    +0.032 C 
ATOM      9  C   UNL     1      -1.215   1.053  -3.515  0.00  0.00    -0.060 C 
ATOM     10  C   UNL     1      -0.359   0.809  -4.502  0.00  0.00    +0.046 C 
ATOM     11  C   UNL     1       0.621  -0.271  -4.400  0.00  0.00    +0.156 C 
ATOM     12  O   UNL     1       1.378  -0.492  -5.321  0.00  0.00    -0.293 OA
ATOM     13  C   UNL     1       0.690  -1.109  -3.148  0.00  0.00    +0.080 C 
ATOM     14  C   UNL     1       0.196  -0.273  -1.962  0.00  0.00    +0.019 C 
ATOM     15  C   UNL     1      -1.206   0.218  -2.252  0.00  0.00    -0.007 C 
ATOM     16  C   UNL     1      -1.724   1.075  -1.091  0.00  0.00    +0.002 C 
ATOM     17  C   UNL     1      -1.119   0.515   0.201  0.00  0.00    +0.005 C 
ATOM     18  C   UNL     1      -1.573   1.346   1.399  0.00  0.00    +0.011 C 
ATOM     19  C   UNL     1      -1.090   2.788   1.211  0.00  0.00    +0.018 C 
ATOM     20  C   UNL     1      -1.502   3.631   2.421  0.00  0.00    +0.178 C 
ATOM     21  C   UNL     1       0.433   2.807   1.067  0.00  0.00    +0.016 C 
ATOM     22  C   UNL     1      -2.130  -0.986  -2.448  0.00  0.00    +0.016 C 
ENDROOT
BRANCH  20  23
ATOM     23  C   UNL     1      -3.001   3.598   2.568  0.00  0.00    +0.174 C 
ATOM     24  O   UNL     1      -3.679   4.438   2.027  0.00  0.00    -0.293 OA
ATOM     25  C   UNL     1      -3.654   2.517   3.391  0.00  0.00    +0.090 C 
ENDBRANCH  20  23
BRANCH  20  26
ATOM     26  O   UNL     1      -0.885   3.090   3.619  0.00  0.00    -0.450 OA
BRANCH  26  27
ATOM     27  C   UNL     1      -1.287   3.601   4.794  0.00  0.00    +0.305 C 
ATOM     28  O   UNL     1      -2.209   4.381   4.830  0.00  0.00    -0.251 OA
ATOM     29  C   UNL     1      -0.589   3.200   6.068  0.00  0.00    +0.136 C 
ENDBRANCH  26  27
ENDBRANCH  20  26
TORSDOF 3
