REMARK  Name = ZINC39482183
REMARK  9 active torsions:
REMARK  status: ('A' for Active; 'I' for Inactive)
REMARK    1  A    between atoms: C_1  and  C_2
REMARK    2  A    between atoms: C_2  and  O_3
REMARK    3  A    between atoms: O_3  and  C_4
REMARK    4  A    between atoms: N_7  and  C_11
REMARK    5  A    between atoms: C_13  and  C_28
REMARK    6  A    between atoms: C_16  and  N_17
REMARK    7  A    between atoms: N_17  and  S_18
REMARK    8  A    between atoms: S_18  and  C_21
REMARK    9  A    between atoms: C_26  and  O_27
REMARK                            x       y       z     vdW  Elec       q    Type
REMARK                         _______ _______ _______ _____ _____    ______ ____
ROOT
ATOM      1  C   UNL     1       2.262  -4.988  -2.953  0.00  0.00    +0.053 A 
ATOM      2  C   UNL     1       2.411  -5.738  -1.799  0.00  0.00    +0.033 A 
ATOM      3  C   UNL     1       3.515  -6.577  -1.654  0.00  0.00    -0.016 A 
ATOM      4  C   UNL     1       4.465  -6.659  -2.670  0.00  0.00    +0.010 A 
ATOM      5  C   UNL     1       4.315  -5.910  -3.820  0.00  0.00    +0.027 A 
ATOM      6  C   UNL     1       3.215  -5.077  -3.970  0.00  0.00    +0.069 A 
ENDROOT
BRANCH   1   9
ATOM      7  C   UNL     1      -0.008  -2.469  -1.767  0.00  0.00    +0.203 C 
ATOM      8  C   UNL     1       1.208  -2.743  -2.658  0.00  0.00    +0.153 C 
ATOM      9  N   UNL     1       1.155  -4.144  -3.102  0.00  0.00    -0.323 N 
ATOM     10  C   UNL     1      -0.092  -4.635  -3.709  0.00  0.00    +0.120 C 
ATOM     11  C   UNL     1      -1.257  -4.287  -2.776  0.00  0.00    +0.102 C 
ATOM     12  N   UNL     1      -1.233  -2.847  -2.484  0.00  0.00    -0.289 NA
ATOM     13  H   UNL     1      -2.055  -2.569  -1.969  0.00  0.00    +0.124 HD
BRANCH   7  14
ATOM     14  O   UNL     1      -0.057  -1.079  -1.441  0.00  0.00    -0.361 OA
BRANCH  14  16
ATOM     15  C   UNL     1      -0.908   0.742  -0.098  0.00  0.00    +0.034 C 
ATOM     16  C   UNL     1      -0.936  -0.766  -0.358  0.00  0.00    +0.158 C 
ENDBRANCH  14  16
ENDBRANCH   7  14
ENDBRANCH   1   9
BRANCH   3  17
ATOM     17  C   UNL     1       3.678  -7.382  -0.419  0.00  0.00    -0.018 A 
ATOM     18  C   UNL     1       2.726  -7.306   0.596  0.00  0.00    +0.008 A 
ATOM     19  C   UNL     1       2.883  -8.057   1.743  0.00  0.00    +0.001 A 
ATOM     20  C   UNL     1       3.982  -8.884   1.887  0.00  0.00    +0.000 A 
ATOM     21  C   UNL     1       4.930  -8.964   0.883  0.00  0.00    +0.001 A 
ATOM     22  C   UNL     1       4.780  -8.222  -0.272  0.00  0.00    +0.008 A 
ENDBRANCH   3  17
BRANCH   6  23
ATOM     23  N   UNL     1       3.062  -4.324  -5.138  0.00  0.00    -0.214 N 
ATOM     24  H   UNL     1       2.673  -3.436  -5.096  0.00  0.00    +0.174 HD
BRANCH  23  25
ATOM     25  S   UNL     1       3.547  -4.946  -6.594  0.00  0.00    +0.076 S 
ATOM     26  O   UNL     1       3.051  -6.277  -6.652  0.00  0.00    -0.150 OA
ATOM     27  O   UNL     1       3.231  -3.971  -7.578  0.00  0.00    -0.150 OA
BRANCH  25  28
ATOM     28  C   UNL     1       5.305  -5.066  -6.550  0.00  0.00    +0.150 A 
ATOM     29  C   UNL     1       5.916  -6.303  -6.633  0.00  0.00    +0.032 A 
ATOM     30  C   UNL     1       7.295  -6.397  -6.598  0.00  0.00    +0.002 A 
ATOM     31  C   UNL     1       8.066  -5.256  -6.480  0.00  0.00    +0.004 A 
ATOM     32  C   UNL     1       7.460  -4.017  -6.398  0.00  0.00    +0.047 A 
ATOM     33  C   UNL     1       6.076  -3.919  -6.438  0.00  0.00    +0.143 A 
BRANCH  33  34
ATOM     34  O   UNL     1       5.478  -2.701  -6.363  0.00  0.00    -0.505 OA
ATOM     35  H   UNL     1       5.297  -2.407  -5.460  0.00  0.00    +0.292 HD
ENDBRANCH  33  34
ENDBRANCH  25  28
ENDBRANCH  23  25
ENDBRANCH   6  23
TORSDOF 8
