REMARK  Name = ZINC14573503
REMARK  8 active torsions:
REMARK  status: ('A' for Active; 'I' for Inactive)
REMARK    1  A    between atoms: C_1  and  C_2
REMARK    2  A    between atoms: C_5  and  C_29
REMARK    3  A    between atoms: C_6  and  C_8
REMARK    4  A    between atoms: C_8  and  C_10
REMARK    5  A    between atoms: C_8  and  N_11
REMARK    6  A    between atoms: C_12  and  C_14
REMARK    7  A    between atoms: C_16  and  S_21
REMARK    8  A    between atoms: S_21  and  N_24
REMARK                            x       y       z     vdW  Elec       q    Type
REMARK                         _______ _______ _______ _____ _____    ______ ____
ROOT
ATOM      1  C   UNL     1      -2.563   1.418   3.130  0.00  0.00    +0.052 A 
ATOM      2  C   UNL     1      -1.843   1.034   1.997  0.00  0.00    +0.042 A 
ATOM      3  C   UNL     1      -0.927   1.900   1.439  0.00  0.00    +0.106 A 
ATOM      4  C   UNL     1      -0.716   3.147   2.003  0.00  0.00    +0.029 A 
ATOM      5  C   UNL     1      -1.429   3.537   3.122  0.00  0.00    +0.018 A 
ATOM      6  C   UNL     1      -2.350   2.679   3.691  0.00  0.00    +0.030 A 
ATOM      7 BR   UNL     1      -3.320   3.211   5.224  0.00  0.00    -0.050 Br
ENDROOT
BRANCH   1   9
ATOM      8  N   UNL     1      -3.751  -0.722   3.188  0.00  0.00    -0.305 N 
ATOM      9  C   UNL     1      -3.547   0.494   3.732  0.00  0.00    +0.246 C 
ATOM     10  O   UNL     1      -4.173   0.832   4.719  0.00  0.00    -0.270 OA
ATOM     11  H   UNL     1      -3.252  -0.991   2.401  0.00  0.00    +0.150 HD
BRANCH   8  12
ATOM     12  C   UNL     1      -4.727  -1.637   3.786  0.00  0.00    +0.101 C 
ATOM     13  C   UNL     1      -4.064  -2.418   4.922  0.00  0.00    +0.033 C 
BRANCH  12  19
ATOM     14  C   UNL     1      -4.030  -4.082  -0.525  0.00  0.00    +0.044 C 
ATOM     15  C   UNL     1      -4.888  -3.769   0.674  0.00  0.00    -0.050 A 
ATOM     16  C   UNL     1      -6.128  -4.363   0.811  0.00  0.00    +0.003 A 
ATOM     17  C   UNL     1      -6.915  -4.076   1.910  0.00  0.00    +0.004 A 
ATOM     18  C   UNL     1      -6.461  -3.194   2.873  0.00  0.00    -0.046 A 
ATOM     19  C   UNL     1      -5.221  -2.599   2.736  0.00  0.00    -0.024 A 
ATOM     20  C   UNL     1      -4.436  -2.882   1.634  0.00  0.00    +0.009 A 
ATOM     21  C   UNL     1      -7.319  -2.880   4.072  0.00  0.00    +0.044 C 
ENDBRANCH  12  19
ENDBRANCH   8  12
ENDBRANCH   1   9
BRANCH   3  22
ATOM     22  S   UNL     1      -0.017   1.417   0.010  0.00  0.00    +0.061 S 
ATOM     23  O   UNL     1       0.002  -0.004   0.002  0.00  0.00    -0.153 OA
ATOM     24  O   UNL     1       1.172   2.195   0.003  0.00  0.00    -0.153 OA
BRANCH  22  25
ATOM     25  N   UNL     1      -0.897   1.885  -1.312  0.00  0.00    -0.177 NA
ATOM     26  C   UNL     1      -1.909   1.071  -2.000  0.00  0.00    +0.109 C 
ATOM     27  C   UNL     1      -2.444   1.906  -3.183  0.00  0.00    +0.018 C 
ATOM     28  C   UNL     1      -1.295   2.918  -3.438  0.00  0.00    +0.018 C 
ATOM     29  C   UNL     1      -0.792   3.186  -1.998  0.00  0.00    +0.109 C 
ENDBRANCH  22  25
ENDBRANCH   3  22
TORSDOF 5
