REMARK  Name = ZINC49472048
REMARK  6 active torsions:
REMARK  status: ('A' for Active; 'I' for Inactive)
REMARK    1  A    between atoms: C_1  and  C_2
REMARK    2  A    between atoms: C_2  and  C_3
REMARK    3  A    between atoms: C_4  and  C_26
REMARK    4  A    between atoms: C_8  and  N_15
REMARK    5  A    between atoms: C_16  and  C_18
REMARK    6  A    between atoms: C_19  and  C_20
REMARK                            x       y       z     vdW  Elec       q    Type
REMARK                         _______ _______ _______ _____ _____    ______ ____
ROOT
ATOM      1  C   UNL     1       2.527  -3.419  -0.050  0.00  0.00    +0.020 A 
ATOM      2  C   UNL     1       1.592  -3.397   0.934  0.00  0.00    -0.033 A 
ATOM      3  C   UNL     1       2.041  -3.417   2.325  0.00  0.00    +0.002 A 
ATOM      4  C   UNL     1       1.123  -3.396   3.382  0.00  0.00    +0.012 A 
ATOM      5  C   UNL     1       1.570  -3.416   4.670  0.00  0.00    +0.024 A 
ATOM      6  C   UNL     1       2.938  -3.455   4.944  0.00  0.00    +0.036 A 
ATOM      7  C   UNL     1       3.862  -3.476   3.912  0.00  0.00    +0.049 A 
ATOM      8  C   UNL     1       3.424  -3.457   2.595  0.00  0.00    +0.051 A 
ATOM      9  N   UNL     1       4.322  -3.478   1.549  0.00  0.00    -0.322 N 
ATOM     10  H   UNL     1       5.274  -3.506   1.736  0.00  0.00    +0.169 HD
ATOM     11  C   UNL     1       3.898  -3.465   0.273  0.00  0.00    +0.253 A 
ATOM     12  O   UNL     1       4.720  -3.490  -0.627  0.00  0.00    -0.268 OA
ATOM     13  C   UNL     1       0.123  -3.353   0.600  0.00  0.00    +0.045 C 
ENDROOT
BRANCH   6  14
ATOM     14  N   UNL     1       3.378  -3.474   6.267  0.00  0.00    -0.282 N 
ATOM     15  C   UNL     1       4.587  -2.969   6.583  0.00  0.00    +0.241 C 
ATOM     16  O   UNL     1       5.260  -2.422   5.728  0.00  0.00    -0.270 OA
ATOM     17  H   UNL     1       2.813  -3.851   6.961  0.00  0.00    +0.155 HD
BRANCH  15  18
ATOM     18  C   UNL     1       5.090  -3.077   7.953  0.00  0.00    +0.068 C 
ATOM     19  C   UNL     1       6.238  -2.460   8.300  0.00  0.00    +0.013 C 
BRANCH  19  20
ATOM     20  C   UNL     1       6.864  -1.498   7.378  0.00  0.00    -0.025 A 
ATOM     21  C   UNL     1       6.092  -0.505   6.767  0.00  0.00    +0.008 A 
ATOM     22  C   UNL     1       6.686   0.392   5.906  0.00  0.00    +0.001 A 
ATOM     23  C   UNL     1       8.043   0.312   5.645  0.00  0.00    +0.000 A 
ATOM     24  C   UNL     1       8.814  -0.667   6.246  0.00  0.00    +0.001 A 
ATOM     25  C   UNL     1       8.236  -1.569   7.114  0.00  0.00    +0.008 A 
ENDBRANCH  19  20
ENDBRANCH  15  18
ENDBRANCH   6  14
BRANCH   1  27
ATOM     26  C   UNL     1       2.119  -1.960  -2.014  0.00  0.00    +0.009 C 
ATOM     27  C   UNL     1       2.096  -3.399  -1.494  0.00  0.00    +0.037 C 
ENDBRANCH   1  27
TORSDOF 4
