REMARK  Name = ZINC45521370
REMARK  6 active torsions:
REMARK  status: ('A' for Active; 'I' for Inactive)
REMARK    1  A    between atoms: C_1  and  C_2
REMARK    2  A    between atoms: C_9  and  N_14
REMARK    3  A    between atoms: N_14  and  C_15
REMARK    4  A    between atoms: C_15  and  C_17
REMARK    5  A    between atoms: C_15  and  C_18
REMARK    6  A    between atoms: N_20  and  C_21
REMARK                            x       y       z     vdW  Elec       q    Type
REMARK                         _______ _______ _______ _____ _____    ______ ____
ROOT
ATOM      1  N   UNL     1       0.119  -5.854   2.334  0.00  0.00    -0.333 N 
ATOM      2  H   UNL     1      -0.716  -6.306   2.135  0.00  0.00    +0.147 HD
ENDROOT
BRANCH   1  10
ATOM      3  C   UNL     1       0.000   1.516  -0.018  0.00  0.00    +0.062 C 
ATOM      4  C   UNL     1       0.014  -0.014  -0.021  0.00  0.00    +0.256 C 
ATOM      5  C   UNL     1      -1.402  -0.529  -0.003  0.00  0.00    +0.258 C 
ATOM      6  O   UNL     1      -2.296   0.129  -0.492  0.00  0.00    -0.271 OA
ATOM      7  N   UNL     1      -1.672  -1.727   0.560  0.00  0.00    -0.279 N 
ATOM      8  C   UNL     1      -0.627  -2.452   1.149  0.00  0.00    +0.077 A 
ATOM      9  C   UNL     1      -0.779  -3.796   1.446  0.00  0.00    +0.050 A 
ATOM     10  C   UNL     1       0.268  -4.496   2.031  0.00  0.00    +0.030 A 
ATOM     11  C   UNL     1       1.464  -3.849   2.316  0.00  0.00    +0.026 A 
ATOM     12  C   UNL     1       1.616  -2.507   2.018  0.00  0.00    +0.049 A 
ATOM     13  C   UNL     1       0.575  -1.806   1.435  0.00  0.00    +0.143 A 
ATOM     14  O   UNL     1       0.712  -0.485   1.135  0.00  0.00    -0.478 OA
ATOM     15  H   UNL     1      -2.575  -2.080   0.557  0.00  0.00    +0.155 HD
ENDBRANCH   1  10
BRANCH   1  16
ATOM     16  C   UNL     1       1.223  -6.593   2.950  0.00  0.00    +0.154 C 
ATOM     17  C   UNL     1       2.175  -7.091   1.861  0.00  0.00    +0.038 C 
BRANCH  16  18
ATOM     18  C   UNL     1       0.675  -7.770   3.715  0.00  0.00    +0.237 C 
ATOM     19  O   UNL     1      -0.520  -7.972   3.742  0.00  0.00    -0.273 OA
ATOM     20  N   UNL     1       1.514  -8.598   4.369  0.00  0.00    -0.284 N 
ATOM     21  H   UNL     1       2.473  -8.477   4.292  0.00  0.00    +0.155 HD
BRANCH  20  22
ATOM     22  C   UNL     1       1.000  -9.634   5.158  0.00  0.00    +0.034 A 
ATOM     23  C   UNL     1       1.647 -10.001   6.331  0.00  0.00    +0.024 A 
ATOM     24  C   UNL     1       1.137 -11.023   7.107  0.00  0.00    +0.017 A 
ATOM     25  C   UNL     1      -0.016 -11.681   6.718  0.00  0.00    +0.018 A 
ATOM     26  C   UNL     1      -0.662 -11.318   5.550  0.00  0.00    +0.017 A 
ATOM     27  C   UNL     1      -0.160 -10.293   4.772  0.00  0.00    +0.024 A 
ATOM     28 BR   UNL     1      -0.710 -13.081   7.784  0.00  0.00    -0.050 Br
ENDBRANCH  20  22
ENDBRANCH  16  18
ENDBRANCH   1  16
TORSDOF 4
