REMARK  Name = ZINC39601048
REMARK  7 active torsions:
REMARK  status: ('A' for Active; 'I' for Inactive)
REMARK    1  A    between atoms: C_1  and  C_2
REMARK    2  A    between atoms: C_2  and  C_3
REMARK    3  A    between atoms: C_2  and  C_4
REMARK    4  A    between atoms: C_4  and  C_5
REMARK    5  A    between atoms: C_5  and  N_6
REMARK    6  A    between atoms: C_7  and  C_9
REMARK    7  A    between atoms: C_20  and  C_22
REMARK                            x       y       z     vdW  Elec       q    Type
REMARK                         _______ _______ _______ _____ _____    ______ ____
ROOT
ATOM      1  C   UNL     1      -4.704  -4.363  -0.174  0.00  0.00    +0.100 C 
ATOM      2  C   UNL     1      -5.448  -3.754  -1.384  0.00  0.00    +0.121 C 
ATOM      3  N   UNL     1      -5.258  -4.738  -2.475  0.00  0.00    -0.296 N 
ATOM      4  C   UNL     1      -5.381  -6.056  -1.808  0.00  0.00    +0.115 C 
ATOM      5  C   UNL     1      -4.665  -5.874  -0.454  0.00  0.00    -0.004 C 
ATOM      6  C   UNL     1      -3.221  -6.356  -0.553  0.00  0.00    -0.010 C 
ATOM      7  C   UNL     1      -3.208  -7.871  -0.776  0.00  0.00    -0.082 C 
ATOM      8  N   UNL     1      -3.892  -8.537   0.339  0.00  0.00    +0.379 N 
ATOM      9  C   UNL     1      -5.304  -8.139   0.371  0.00  0.00    -0.082 C 
ATOM     10  C   UNL     1      -5.406  -6.635   0.641  0.00  0.00    -0.010 C 
ATOM     11  C   UNL     1      -5.025  -4.491  -3.779  0.00  0.00    +0.247 C 
ATOM     12  O   UNL     1      -4.977  -5.410  -4.573  0.00  0.00    -0.270 OA
ATOM     13  H   UNL     1      -3.829  -9.538   0.221  0.00  0.00    -0.086 HD
ATOM     14  H   UNL     1      -3.450  -8.275   1.208  0.00  0.00    -0.086 HD
ENDROOT
BRANCH  11  15
ATOM     15  C   UNL     1      -4.827  -3.103  -4.244  0.00  0.00    +0.045 A 
ATOM     16  C   UNL     1      -5.745  -2.106  -3.892  0.00  0.00    +0.014 A 
ATOM     17  C   UNL     1      -5.562  -0.811  -4.323  0.00  0.00    +0.001 A 
ATOM     18  C   UNL     1      -4.470  -0.479  -5.110  0.00  0.00    +0.012 A 
ATOM     19  C   UNL     1      -3.547  -1.454  -5.471  0.00  0.00    +0.031 A 
ATOM     20  C   UNL     1      -3.717  -2.777  -5.034  0.00  0.00    +0.006 A 
ATOM     21  C   UNL     1      -2.595  -3.599  -5.553  0.00  0.00    -0.006 A 
ATOM     22  C   UNL     1      -2.294  -4.947  -5.418  0.00  0.00    +0.009 A 
ATOM     23  C   UNL     1      -1.158  -5.468  -6.019  0.00  0.00    +0.001 A 
ATOM     24  C   UNL     1      -0.320  -4.653  -6.754  0.00  0.00    +0.001 A 
ATOM     25  C   UNL     1      -0.606  -3.305  -6.898  0.00  0.00    +0.012 A 
ATOM     26  C   UNL     1      -1.741  -2.771  -6.301  0.00  0.00    +0.030 A 
ATOM     27  C   UNL     1      -2.310  -1.401  -6.286  0.00  0.00    +0.194 C 
ATOM     28  O   UNL     1      -1.843  -0.419  -6.827  0.00  0.00    -0.287 OA
ENDBRANCH  11  15
BRANCH   1  30
ATOM     29  N   UNL     1      -2.700  -3.696   1.113  0.00  0.00    -0.315 N 
ATOM     30  C   UNL     1      -3.305  -3.809  -0.085  0.00  0.00    +0.218 C 
ATOM     31  O   UNL     1      -2.724  -3.466  -1.093  0.00  0.00    -0.275 OA
ATOM     32  H   UNL     1      -3.165  -3.971   1.919  0.00  0.00    +0.149 HD
BRANCH  29  33
ATOM     33  C   UNL     1      -1.340  -3.159   1.200  0.00  0.00    +0.104 C 
BRANCH  33  34
ATOM     34  C   UNL     1      -0.892  -3.138   2.662  0.00  0.00    +0.022 C 
BRANCH  34  36
ATOM     35  C   UNL     1       0.930  -2.438   4.222  0.00  0.00    +0.007 C 
ATOM     36  C   UNL     1       0.528  -2.576   2.752  0.00  0.00    -0.016 C 
ATOM     37  C   UNL     1       1.498  -3.525   2.045  0.00  0.00    +0.007 C 
ENDBRANCH  34  36
ENDBRANCH  33  34
ENDBRANCH  29  33
ENDBRANCH   1  30
TORSDOF 5
