REMARK  Name = ZINC03296043
REMARK  9 active torsions:
REMARK  status: ('A' for Active; 'I' for Inactive)
REMARK    1  A    between atoms: C_1  and  C_2
REMARK    2  A    between atoms: C_2  and  C_3
REMARK    3  A    between atoms: C_3  and  C_4
REMARK    4  A    between atoms: C_4  and  N_5
REMARK    5  A    between atoms: C_6  and  C_8
REMARK    6  A    between atoms: C_8  and  S_9
REMARK    7  A    between atoms: S_9  and  C_10
REMARK    8  A    between atoms: C_13  and  C_16
REMARK    9  A    between atoms: N_14  and  N_15
REMARK                            x       y       z     vdW  Elec       q    Type
REMARK                         _______ _______ _______ _____ _____    ______ ____
ROOT
ATOM      1  C   UNL     1      -1.770  -0.221  -0.149  0.00  0.00    +0.209 A 
ATOM      2  N   UNL     1      -2.825   0.561  -0.115  0.00  0.00    -0.121 NA
ATOM      3  N   UNL     1      -3.884  -0.134   0.102  0.00  0.00    -0.127 NA
ATOM      4  C   UNL     1      -3.568  -1.402   0.229  0.00  0.00    +0.182 A 
ATOM      5  N   UNL     1      -2.204  -1.497   0.073  0.00  0.00    -0.224 N 
ENDROOT
BRANCH   4   6
ATOM      6  C   UNL     1      -4.502  -2.518   0.492  0.00  0.00    +0.021 A 
ATOM      7  C   UNL     1      -5.872  -2.349   0.285  0.00  0.00    +0.013 A 
ATOM      8  C   UNL     1      -6.737  -3.395   0.526  0.00  0.00    +0.021 A 
ATOM      9  C   UNL     1      -6.251  -4.608   0.983  0.00  0.00    +0.041 A 
ATOM     10  C   UNL     1      -4.894  -4.780   1.196  0.00  0.00    +0.021 A 
ATOM     11  C   UNL     1      -4.017  -3.743   0.953  0.00  0.00    +0.013 A 
ATOM     12 CL   UNL     1      -7.347  -5.918   1.292  0.00  0.00    -0.084 Cl
ENDBRANCH   4   6
BRANCH   5  13
ATOM     13  N   UNL     1      -1.444  -2.630   0.127  0.00  0.00    -0.295 N 
ATOM     14  H   UNL     1      -1.204  -2.859   1.080  0.00  0.00    +0.163 HD
ATOM     15  H   UNL     1      -1.912  -3.402  -0.324  0.00  0.00    +0.163 HD
ENDBRANCH   5  13
BRANCH   1  16
ATOM     16  S   UNL     1      -0.103   0.283  -0.421  0.00  0.00    -0.075 S 
BRANCH  16  17
ATOM     17  C   UNL     1      -0.343   2.065  -0.626  0.00  0.00    +0.173 C 
BRANCH  17  19
ATOM     18  N   UNL     1       1.054   4.059  -1.061  0.00  0.00    -0.315 N 
ATOM     19  C   UNL     1       0.988   2.726  -0.877  0.00  0.00    +0.223 C 
ATOM     20  O   UNL     1       1.999   2.057  -0.914  0.00  0.00    -0.275 OA
ATOM     21  H   UNL     1       0.245   4.594  -1.031  0.00  0.00    +0.149 HD
BRANCH  18  22
ATOM     22  C   UNL     1       2.348   4.701  -1.305  0.00  0.00    +0.104 C 
BRANCH  22  23
ATOM     23  C   UNL     1       2.145   6.208  -1.478  0.00  0.00    +0.018 C 
BRANCH  23  25
ATOM     24  C   UNL     1       3.293   8.385  -1.906  0.00  0.00    +0.004 C 
ATOM     25  C   UNL     1       3.496   6.879  -1.733  0.00  0.00    -0.002 C 
ENDBRANCH  23  25
ENDBRANCH  22  23
ENDBRANCH  18  22
ENDBRANCH  17  19
ENDBRANCH  16  17
ENDBRANCH   1  16
TORSDOF 8
