REMARK  Name = ZINC16227406
REMARK  12 active torsions:
REMARK  status: ('A' for Active; 'I' for Inactive)
REMARK    1  A    between atoms: C_1  and  O_2
REMARK    2  A    between atoms: O_2  and  C_3
REMARK    3  A    between atoms: C_6  and  C_11
REMARK    4  A    between atoms: C_8  and  O_9
REMARK    5  A    between atoms: O_9  and  C_10
REMARK    6  A    between atoms: C_11  and  C_12
REMARK    7  A    between atoms: C_12  and  N_54
REMARK    8  A    between atoms: C_13  and  C_14
REMARK    9  A    between atoms: C_13  and  N_54
REMARK   10  A    between atoms: C_19  and  O_20
REMARK   11  A    between atoms: O_20  and  C_21
REMARK   12  A    between atoms: C_21  and  C_22
REMARK                            x       y       z     vdW  Elec       q    Type
REMARK                         _______ _______ _______ _____ _____    ______ ____
ROOT
ATOM      1  C   UNL     1      -2.575   2.783   4.032  0.00  0.00    -0.043 C 
ENDROOT
BRANCH   1   2
ATOM      2  C   UNL     1      -3.377   3.243   2.842  0.00  0.00    -0.022 A 
ATOM      3  C   UNL     1      -4.569   3.915   3.031  0.00  0.00    +0.020 A 
ATOM      4  C   UNL     1      -5.309   4.331   1.939  0.00  0.00    +0.018 A 
ATOM      5  C   UNL     1      -4.854   4.081   0.656  0.00  0.00    +0.019 A 
ATOM      6  C   UNL     1      -3.660   3.414   0.464  0.00  0.00    +0.047 A 
ATOM      7  C   UNL     1      -2.917   2.995   1.558  0.00  0.00    +0.122 A 
ATOM      8 BR   UNL     1      -6.944   5.245   2.199  0.00  0.00    -0.050 Br
BRANCH   7   9
ATOM      9  O   UNL     1      -1.741   2.339   1.370  0.00  0.00    -0.487 OA
BRANCH   9  10
ATOM     10  C   UNL     1      -1.332   2.114   0.020  0.00  0.00    +0.264 C 
BRANCH  10  11
ATOM     11  C   UNL     1      -0.017   1.378   0.010  0.00  0.00    -0.010 A 
ATOM     12  C   UNL     1       1.171   2.086   0.002  0.00  0.00    +0.008 A 
ATOM     13  C   UNL     1       2.377   1.412  -0.013  0.00  0.00    +0.020 A 
ATOM     14  C   UNL     1       2.397   0.029  -0.021  0.00  0.00    +0.041 A 
ATOM     15  C   UNL     1       1.208  -0.679  -0.013  0.00  0.00    +0.020 A 
ATOM     16  C   UNL     1       0.002  -0.004   0.002  0.00  0.00    +0.008 A 
ATOM     17 CL   UNL     1       3.912  -0.818  -0.039  0.00  0.00    -0.084 Cl
ENDBRANCH  10  11
ENDBRANCH   9  10
ENDBRANCH   7   9
ENDBRANCH   1   2
BRANCH   1  18
ATOM     18  N   UNL     1      -1.479   3.740   4.276  0.00  0.00    +0.382 N 
ATOM     19  H   UNL     1      -0.877   3.784   3.445  0.00  0.00    -0.085 HD
ATOM     20  H   UNL     1      -1.876   4.669   4.460  0.00  0.00    -0.085 HD
BRANCH  18  21
ATOM     21  C   UNL     1      -0.675   3.314   5.437  0.00  0.00    -0.077 C 
BRANCH  21  22
ATOM     22  C   UNL     1       0.451   4.324   5.665  0.00  0.00    +0.016 C 
BRANCH  22  26
ATOM     23  C   UNL     1       2.792   3.114   9.033  0.00  0.00    +0.161 A 
ATOM     24  C   UNL     1       1.697   3.944   9.209  0.00  0.00    +0.049 A 
ATOM     25  C   UNL     1       0.945   4.338   8.117  0.00  0.00    +0.007 A 
ATOM     26  C   UNL     1       1.277   3.897   6.850  0.00  0.00    -0.045 A 
ATOM     27  C   UNL     1       2.369   3.069   6.667  0.00  0.00    +0.053 A 
ATOM     28  C   UNL     1       3.130   2.674   7.756  0.00  0.00    +0.162 A 
BRANCH  23  30
ATOM     29  C   UNL     1       3.130   3.219  11.384  0.00  0.00    +0.277 C 
ATOM     30  O   UNL     1       3.535   2.729  10.104  0.00  0.00    -0.491 OA
ENDBRANCH  23  30
BRANCH  28  31
ATOM     31  O   UNL     1       4.204   1.859   7.578  0.00  0.00    -0.491 OA
ATOM     32  C   UNL     1       4.491   1.447   6.240  0.00  0.00    +0.277 C 
ENDBRANCH  28  31
ENDBRANCH  22  26
ENDBRANCH  21  22
ENDBRANCH  18  21
ENDBRANCH   1  18
TORSDOF 10
