REMARK  Name = ZINC15000692
REMARK  5 active torsions:
REMARK  status: ('A' for Active; 'I' for Inactive)
REMARK    1  A    between atoms: C_5  and  N_7
REMARK    2  A    between atoms: C_12  and  C_13
REMARK    3  A    between atoms: C_12  and  N_59
REMARK    4  A    between atoms: N_25  and  C_28
REMARK    5  A    between atoms: C_28  and  C_29
REMARK                            x       y       z     vdW  Elec       q    Type
REMARK                         _______ _______ _______ _____ _____    ______ ____
ROOT
ATOM      1  N   UNL     1       4.983  -2.526  -3.647  0.00  0.00    -0.333 N 
ATOM      2  C   UNL     1       5.733  -1.408  -3.058  0.00  0.00    +0.086 C 
ATOM      3  C   UNL     1       5.336  -1.250  -1.588  0.00  0.00    -0.059 C 
ATOM      4  C   UNL     1       3.138  -2.134  -2.086  0.00  0.00    -0.059 C 
ATOM      5  C   UNL     1       3.535  -2.292  -3.555  0.00  0.00    +0.086 C 
ATOM      6  N   UNL     1       3.882  -0.993  -1.512  0.00  0.00    +0.384 N 
ATOM      7  H   UNL     1       3.664  -0.147  -2.051  0.00  0.00    -0.081 HD
ENDROOT
BRANCH   1  12
ATOM      8  C   UNL     1       4.854  -2.726  -7.313  0.00  0.00    +0.003 A 
ATOM      9  C   UNL     1       6.132  -3.181  -7.611  0.00  0.00    +0.014 A 
ATOM     10  C   UNL     1       7.035  -3.421  -6.590  0.00  0.00    +0.051 A 
ATOM     11  C   UNL     1       6.655  -3.197  -5.249  0.00  0.00    +0.070 A 
ATOM     12  C   UNL     1       5.369  -2.745  -4.961  0.00  0.00    +0.043 A 
ATOM     13  C   UNL     1       4.473  -2.509  -6.006  0.00  0.00    +0.024 A 
ATOM     14  C   UNL     1       7.833  -3.538  -4.434  0.00  0.00    +0.256 C 
ATOM     15  O   UNL     1       7.898  -3.477  -3.222  0.00  0.00    -0.269 OA
ATOM     16  N   UNL     1       8.827  -3.927  -5.253  0.00  0.00    -0.230 N 
ATOM     17  C   UNL     1       8.434  -3.893  -6.540  0.00  0.00    +0.254 C 
ATOM     18  O   UNL     1       9.118  -4.191  -7.498  0.00  0.00    -0.270 OA
BRANCH  16  19
ATOM     19  C   UNL     1      10.157  -4.343  -4.803  0.00  0.00    +0.152 C 
BRANCH  19  20
ATOM     20  C   UNL     1      10.163  -5.829  -4.557  0.00  0.00    -0.023 A 
ATOM     21  C   UNL     1      10.489  -6.707  -5.574  0.00  0.00    +0.013 A 
ATOM     22  C   UNL     1      10.484  -8.039  -5.319  0.00  0.00    +0.045 A 
ATOM     23  S   UNL     1      10.008  -8.084  -3.599  0.00  0.00    -0.105 S 
ATOM     24  C   UNL     1       9.853  -6.325  -3.334  0.00  0.00    +0.050 A 
ENDBRANCH  19  20
ENDBRANCH  16  19
ENDBRANCH   1  12
BRANCH   6  25
ATOM     25  C   UNL     1       3.479  -0.784  -0.104  0.00  0.00    -0.043 C 
BRANCH  25  26
ATOM     26  C   UNL     1       2.050  -0.308  -0.073  0.00  0.00    -0.060 A 
ATOM     27  C   UNL     1       1.019  -1.225   0.020  0.00  0.00    +0.005 A 
ATOM     28  C   UNL     1      -0.293  -0.793   0.047  0.00  0.00    +0.049 A 
ATOM     29  C   UNL     1      -0.580   0.562  -0.019  0.00  0.00    +0.162 A 
ATOM     30  C   UNL     1       0.456   1.484  -0.109  0.00  0.00    +0.162 A 
ATOM     31  C   UNL     1       1.770   1.044  -0.138  0.00  0.00    +0.051 A 
ATOM     32  O   UNL     1       0.197   2.819  -0.167  0.00  0.00    -0.485 OA
ATOM     33  C   UNL     1      -1.139   3.201  -0.513  0.00  0.00    +0.270 C 
ATOM     34  C   UNL     1      -2.112   2.349   0.314  0.00  0.00    +0.270 C 
ATOM     35  O   UNL     1      -1.878   0.972   0.001  0.00  0.00    -0.485 OA
ENDBRANCH  25  26
ENDBRANCH   6  25
TORSDOF 5
