REMARK  Name = ZINC44973601
REMARK  6 active torsions:
REMARK  status: ('A' for Active; 'I' for Inactive)
REMARK    1  A    between atoms: C_1  and  C_2
REMARK    2  A    between atoms: C_2  and  C_36
REMARK    3  A    between atoms: C_6  and  C_24
REMARK    4  A    between atoms: C_11  and  S_15
REMARK    5  A    between atoms: S_15  and  C_16
REMARK    6  A    between atoms: C_16  and  C_17
REMARK                            x       y       z     vdW  Elec       q    Type
REMARK                         _______ _______ _______ _____ _____    ______ ____
ROOT
ATOM      1  C   UNL     1      -0.019   1.526   0.010  0.00  0.00    +0.011 C 
ATOM      2  C   UNL     1       0.002  -0.004   0.002  0.00  0.00    -0.023 C 
ATOM      3  C   UNL     1      -1.431  -0.539   0.039  0.00  0.00    +0.058 C 
ATOM      4  C   UNL     1      -1.407  -2.048   0.075  0.00  0.00    +0.017 C 
ATOM      5  C   UNL     1      -0.392  -2.713   0.668  0.00  0.00    +0.024 C 
ATOM      6  C   UNL     1      -0.359  -4.220   0.709  0.00  0.00    +0.091 C 
ATOM      7  C   UNL     1      -1.709  -4.805   0.423  0.00  0.00    +0.044 A 
ATOM      8  C   UNL     1      -1.995  -6.127   0.753  0.00  0.00    +0.126 A 
ATOM      9  N   UNL     1      -3.204  -6.611   0.480  0.00  0.00    -0.207 NA
ATOM     10  C   UNL     1      -4.127  -5.853  -0.095  0.00  0.00    +0.192 A 
ATOM     11  N   UNL     1      -3.888  -4.590  -0.421  0.00  0.00    -0.206 NA
ATOM     12  C   UNL     1      -2.701  -4.042  -0.176  0.00  0.00    +0.133 A 
ATOM     13  N   UNL     1      -2.446  -2.721  -0.507  0.00  0.00    -0.302 N 
ATOM     14  N   UNL     1      -1.036  -6.926   1.355  0.00  0.00    -0.343 N 
ATOM     15  C   UNL     1       0.675  -2.019   1.264  0.00  0.00    +0.162 C 
ATOM     16  O   UNL     1       1.562  -2.646   1.810  0.00  0.00    -0.292 OA
ATOM     17  C   UNL     1       0.742  -0.517   1.242  0.00  0.00    +0.086 C 
ATOM     18  C   UNL     1       0.706  -0.503  -1.262  0.00  0.00    +0.011 C 
ATOM     19  H   UNL     1      -3.009  -2.271  -1.156  0.00  0.00    +0.153 HD
ATOM     20  H   UNL     1      -0.157  -6.565   1.550  0.00  0.00    +0.144 HD
ATOM     21  H   UNL     1      -1.243  -7.846   1.581  0.00  0.00    +0.144 HD
ENDROOT
BRANCH   6  22
ATOM     22  C   UNL     1       0.621  -4.719  -0.322  0.00  0.00    -0.032 A 
ATOM     23  C   UNL     1       0.433  -4.414  -1.657  0.00  0.00    +0.008 A 
ATOM     24  C   UNL     1       1.329  -4.870  -2.606  0.00  0.00    +0.050 A 
ATOM     25  C   UNL     1       2.418  -5.634  -2.220  0.00  0.00    +0.166 A 
ATOM     26  C   UNL     1       2.607  -5.942  -0.875  0.00  0.00    +0.167 A 
ATOM     27  C   UNL     1       1.708  -5.477   0.071  0.00  0.00    +0.054 A 
ATOM     28  O   UNL     1       3.738  -6.697  -0.755  0.00  0.00    -0.453 OA
ATOM     29  C   UNL     1       4.012  -7.191  -2.079  0.00  0.00    +0.466 C 
ATOM     30  O   UNL     1       3.430  -6.197  -2.943  0.00  0.00    -0.453 OA
ENDBRANCH   6  22
BRANCH  10  31
ATOM     31  S   UNL     1      -5.712  -6.541  -0.438  0.00  0.00    -0.081 S 
BRANCH  31  32
ATOM     32  C   UNL     1      -5.587  -8.249   0.162  0.00  0.00    +0.112 C 
BRANCH  32  33
ATOM     33  C   UNL     1      -6.895  -8.961  -0.074  0.00  0.00    -0.037 A 
ATOM     34  C   UNL     1      -7.881  -8.932   0.894  0.00  0.00    +0.004 A 
ATOM     35  C   UNL     1      -9.081  -9.585   0.678  0.00  0.00    +0.000 A 
ATOM     36  C   UNL     1      -9.293 -10.266  -0.506  0.00  0.00    +0.000 A 
ATOM     37  C   UNL     1      -8.307 -10.294  -1.474  0.00  0.00    +0.000 A 
ATOM     38  C   UNL     1      -7.109  -9.637  -1.260  0.00  0.00    +0.004 A 
ENDBRANCH  32  33
ENDBRANCH  31  32
ENDBRANCH  10  31
TORSDOF 4
