REMARK  Name = ZINC12654118
REMARK  6 active torsions:
REMARK  status: ('A' for Active; 'I' for Inactive)
REMARK    1  A    between atoms: C_1  and  C_2
REMARK    2  A    between atoms: C_2  and  O_4
REMARK    3  A    between atoms: O_4  and  C_5
REMARK    4  A    between atoms: C_9  and  C_30
REMARK    5  A    between atoms: C_14  and  C_29
REMARK    6  A    between atoms: C_26  and  O_28
REMARK                            x       y       z     vdW  Elec       q    Type
REMARK                         _______ _______ _______ _____ _____    ______ ____
ROOT
ATOM      1  C   UNL     1       6.906  -0.943  -0.552  0.00  0.00    +0.180 C 
ATOM      2  C   UNL     1       6.415  -0.061   0.596  0.00  0.00    +0.046 C 
ATOM      3  C   UNL     1       4.902  -0.194   0.759  0.00  0.00    +0.015 C 
ATOM      4  C   UNL     1       4.179   0.234  -0.518  0.00  0.00    -0.008 C 
ATOM      5  C   UNL     1       2.684   0.110  -0.376  0.00  0.00    +0.003 C 
ATOM      6  C   UNL     1       2.232  -0.900   0.672  0.00  0.00    +0.005 C 
ATOM      7  C   UNL     1       0.818  -0.533   1.160  0.00  0.00    +0.012 C 
ATOM      8  C   UNL     1       0.002  -0.004   0.002  0.00  0.00    +0.027 C 
ATOM      9  C   UNL     1       0.515  -0.573  -1.331  0.00  0.00    +0.006 C 
ATOM     10  C   UNL     1       1.918  -0.095  -1.676  0.00  0.00    +0.001 C 
ATOM     11  C   UNL     1       2.555  -1.219  -2.504  0.00  0.00    +0.031 C 
ATOM     12  C   UNL     1       4.040  -1.104  -2.579  0.00  0.00    -0.027 C 
ATOM     13  C   UNL     1       4.764  -0.488  -1.694  0.00  0.00    -0.064 C 
ATOM     14  C   UNL     1       6.272  -0.480  -1.867  0.00  0.00    +0.075 C 
ATOM     15  C   UNL     1      -0.590  -0.139  -2.306  0.00  0.00    +0.041 C 
ATOM     16  C   UNL     1      -1.878  -0.454  -1.494  0.00  0.00    +0.181 C 
ATOM     17  C   UNL     1      -1.468  -0.465   0.000  0.00  0.00    +0.200 C 
ATOM     18  O   UNL     1      -1.847  -1.644  -0.699  0.00  0.00    -0.337 OA
ATOM     19  C   UNL     1      -0.019   1.528   0.010  0.00  0.00    +0.017 C 
ATOM     20  C   UNL     1       4.465   1.733  -0.722  0.00  0.00    +0.016 C 
ENDROOT
BRANCH  17  21
ATOM     21  O   UNL     1      -2.318   0.069   1.015  0.00  0.00    -0.362 OA
ATOM     22  H   UNL     1      -3.229  -0.250   0.972  0.00  0.00    +0.213 HD
ENDBRANCH  17  21
BRANCH   1  23
ATOM     23  O   UNL     1       8.351  -0.849  -0.651  0.00  0.00    -0.461 OA
BRANCH  23  25
ATOM     24  C   UNL     1      10.503  -1.908  -1.239  0.00  0.00    +0.136 C 
ATOM     25  C   UNL     1       9.002  -1.931  -1.109  0.00  0.00    +0.304 C 
ATOM     26  O   UNL     1       8.384  -2.922  -1.416  0.00  0.00    -0.251 OA
ENDBRANCH  23  25
ENDBRANCH   1  23
TORSDOF 3
