REMARK  Name = ZINC04191168
REMARK  9 active torsions:
REMARK  status: ('A' for Active; 'I' for Inactive)
REMARK    1  A    between atoms: C_1  and  C_2
REMARK    2  A    between atoms: C_2  and  C_3
REMARK    3  A    between atoms: C_2  and  C_4
REMARK    4  A    between atoms: C_2  and  C_5
REMARK    5  A    between atoms: C_5  and  N_7
REMARK    6  A    between atoms: N_9  and  C_21
REMARK    7  A    between atoms: C_13  and  S_17
REMARK    8  A    between atoms: S_17  and  N_20
REMARK    9  A    between atoms: C_21  and  C_22
REMARK                            x       y       z     vdW  Elec       q    Type
REMARK                         _______ _______ _______ _____ _____    ______ ____
ROOT
ATOM      1  N   UNL     1       1.322   3.396   0.007  0.00  0.00    -0.156 NA
ATOM      2  C   UNL     1       1.150   2.076   0.002  0.00  0.00    +0.167 A 
ATOM      3  N   UNL     1      -0.017   1.378   0.010  0.00  0.00    -0.317 N 
ATOM      4  C   UNL     1       0.002  -0.004   0.002  0.00  0.00    +0.058 A 
ATOM      5  C   UNL     1      -1.087  -0.890   0.008  0.00  0.00    +0.029 A 
ATOM      6  C   UNL     1      -0.886  -2.250  -0.000  0.00  0.00    +0.030 A 
ATOM      7  C   UNL     1       0.390  -2.788  -0.015  0.00  0.00    +0.106 A 
ATOM      8  C   UNL     1       1.481  -1.937  -0.022  0.00  0.00    +0.045 A 
ATOM      9  C   UNL     1       1.282  -0.577  -0.013  0.00  0.00    +0.041 A 
ATOM     10  S   UNL     1       2.359   0.834  -0.016  0.00  0.00    -0.052 S 
ENDROOT
BRANCH   7  11
ATOM     11  S   UNL     1       0.621  -4.534  -0.027  0.00  0.00    +0.056 S 
ATOM     12  O   UNL     1      -0.566  -5.098  -0.569  0.00  0.00    -0.153 OA
ATOM     13  O   UNL     1       1.903  -4.771  -0.592  0.00  0.00    -0.153 OA
BRANCH  11  14
ATOM     14  N   UNL     1       0.701  -5.028   1.552  0.00  0.00    -0.204 NA
ATOM     15  H   UNL     1       0.397  -5.915   1.799  0.00  0.00    +0.144 HD
ATOM     16  H   UNL     1       1.052  -4.430   2.230  0.00  0.00    +0.144 HD
ENDBRANCH  11  14
ENDBRANCH   7  11
BRANCH   1  17
ATOM     17  C   UNL     1       2.549   3.906  -0.002  0.00  0.00    +0.244 C 
ATOM     18  O   UNL     1       3.514   3.167  -0.014  0.00  0.00    -0.273 OA
BRANCH  17  20
ATOM     19  C   UNL     1       4.240   5.719  -0.008  0.00  0.00    +0.020 C 
ATOM     20  C   UNL     1       2.744   5.400   0.004  0.00  0.00    +0.041 C 
ATOM     21  C   UNL     1       2.083   6.006  -1.236  0.00  0.00    +0.020 C 
ATOM     22  C   UNL     1       2.107   5.993   1.262  0.00  0.00    +0.020 C 
ENDBRANCH  17  20
ENDBRANCH   1  17
BRANCH   3  23
ATOM     23  C   UNL     1      -1.296   2.092   0.020  0.00  0.00    +0.151 C 
BRANCH  23  24
ATOM     24  C   UNL     1      -1.131   3.408   0.736  0.00  0.00    -0.013 C 
ATOM     25  C   UNL     1      -1.465   4.525   0.140  0.00  0.00    +0.005 C 
ENDBRANCH  23  24
ENDBRANCH   3  23
TORSDOF 6
