REMARK  Name = ZINC07966386
REMARK  7 active torsions:
REMARK  status: ('A' for Active; 'I' for Inactive)
REMARK    1  A    between atoms: C_4  and  N_7
REMARK    2  A    between atoms: C_8  and  C_10
REMARK    3  A    between atoms: C_10  and  N_11
REMARK    4  A    between atoms: C_15  and  S_16
REMARK    5  A    between atoms: S_16  and  C_17
REMARK    6  A    between atoms: C_17  and  C_18
REMARK    7  A    between atoms: N_20  and  C_21
REMARK                            x       y       z     vdW  Elec       q    Type
REMARK                         _______ _______ _______ _____ _____    ______ ____
ROOT
ATOM      1  N   UNL     1       7.548   0.600   2.079  0.00  0.00    -0.282 N 
ATOM      2  C   UNL     1       8.567   1.451   1.758  0.00  0.00    +0.216 A 
ATOM      3  N   UNL     1       8.073   2.414   1.020  0.00  0.00    -0.113 NA
ATOM      4  N   UNL     1       6.702   2.176   0.857  0.00  0.00    -0.121 NA
ATOM      5  C   UNL     1       6.403   1.074   1.501  0.00  0.00    +0.194 A 
ATOM      6  N   UNL     1       9.893   1.321   2.150  0.00  0.00    -0.328 N 
ATOM      7  H   UNL     1      10.636   2.068   1.833  0.00  0.00    +0.145 HD
ATOM      8  H   UNL     1      10.200   0.471   2.777  0.00  0.00    +0.145 HD
ENDROOT
BRANCH   1   9
ATOM      9  C   UNL     1       7.662  -0.610   2.898  0.00  0.00    +0.222 C 
BRANCH   9  11
ATOM     10  N   UNL     1       8.125  -3.015   2.550  0.00  0.00    -0.311 N 
ATOM     11  C   UNL     1       7.974  -1.788   2.012  0.00  0.00    +0.233 C 
ATOM     12  O   UNL     1       8.090  -1.633   0.815  0.00  0.00    -0.274 OA
ATOM     13  H   UNL     1       8.020  -3.156   3.635  0.00  0.00    +0.149 HD
BRANCH  10  17
ATOM     14  C   UNL     1       8.159  -7.004   1.038  0.00  0.00    +0.000 C 
ATOM     15  C   UNL     1       9.460  -6.434   1.607  0.00  0.00    +0.002 C 
ATOM     16  C   UNL     1       9.143  -5.238   2.506  0.00  0.00    +0.022 C 
ATOM     17  C   UNL     1       8.429  -4.160   1.688  0.00  0.00    +0.073 C 
ATOM     18  C   UNL     1       7.128  -4.730   1.120  0.00  0.00    +0.022 C 
ATOM     19  C   UNL     1       7.445  -5.926   0.220  0.00  0.00    +0.002 C 
ENDBRANCH  10  17
ENDBRANCH   9  11
ENDBRANCH   1   9
BRANCH   5  20
ATOM     20  S   UNL     1       4.806   0.337   1.609  0.00  0.00    -0.077 S 
BRANCH  20  21
ATOM     21  C   UNL     1       3.745   1.447   0.644  0.00  0.00    +0.173 C 
BRANCH  21  22
ATOM     22  C   UNL     1       2.331   0.926   0.654  0.00  0.00    +0.224 C 
ATOM     23  O   UNL     1       2.066  -0.095   1.254  0.00  0.00    -0.275 OA
ATOM     24  N   UNL     1       1.362   1.593  -0.002  0.00  0.00    -0.312 N 
ATOM     25  H   UNL     1       1.602   2.518  -0.546  0.00  0.00    +0.149 HD
BRANCH  24  26
ATOM     26  C   UNL     1      -0.013   1.086   0.008  0.00  0.00    +0.073 C 
ATOM     27  C   UNL     1      -0.729   1.579   1.267  0.00  0.00    +0.022 C 
ATOM     28  C   UNL     1      -2.164   1.050   1.278  0.00  0.00    +0.002 C 
ATOM     29  C   UNL     1      -2.904   1.556   0.038  0.00  0.00    +0.000 C 
ATOM     30  C   UNL     1      -2.188   1.063  -1.221  0.00  0.00    +0.002 C 
ATOM     31  C   UNL     1      -0.753   1.593  -1.232  0.00  0.00    +0.022 C 
ENDBRANCH  24  26
ENDBRANCH  21  22
ENDBRANCH  20  21
ENDBRANCH   5  20
TORSDOF 7
