REMARK  Name = ZINC27688668
REMARK  10 active torsions:
REMARK  status: ('A' for Active; 'I' for Inactive)
REMARK    1  A    between atoms: C_1  and  C_2
REMARK    2  A    between atoms: C_2  and  C_4
REMARK    3  A    between atoms: C_2  and  N_20
REMARK    4  A    between atoms: C_4  and  C_5
REMARK    5  A    between atoms: C_5  and  C_6
REMARK    6  A    between atoms: N_9  and  C_16
REMARK    7  A    between atoms: C_16  and  C_17
REMARK    8  A    between atoms: C_17  and  C_19
REMARK    9  A    between atoms: C_21  and  C_23
REMARK   10  A    between atoms: C_23  and  C_28
REMARK                            x       y       z     vdW  Elec       q    Type
REMARK                         _______ _______ _______ _____ _____    ______ ____
ROOT
ATOM      1  C   UNL     1      -2.827   2.654  -3.437  0.00  0.00    +0.028 C 
ATOM      2  C   UNL     1      -3.309   3.159  -2.075  0.00  0.00    +0.070 C 
ENDROOT
BRANCH   2   3
ATOM      3  N   UNL     1      -3.535   4.605  -2.143  0.00  0.00    -0.312 N 
ATOM      4  C   UNL     1      -4.712   5.083  -2.592  0.00  0.00    +0.224 C 
ATOM      5  O   UNL     1      -5.610   4.318  -2.873  0.00  0.00    -0.275 OA
ATOM      6  H   UNL     1      -2.744   5.300  -1.826  0.00  0.00    +0.149 HD
BRANCH   4   7
ATOM      7  C   UNL     1      -4.912   6.569  -2.745  0.00  0.00    +0.072 C 
ATOM      8  C   UNL     1      -4.589   7.284  -1.422  0.00  0.00    +0.021 C 
ATOM      9  C   UNL     1      -5.884   7.997  -0.979  0.00  0.00    +0.001 C 
ATOM     10  C   UNL     1      -7.014   7.205  -1.683  0.00  0.00    +0.001 C 
ATOM     11  C   UNL     1      -6.391   6.873  -3.062  0.00  0.00    +0.021 C 
BRANCH   7  12
ATOM     12  C   UNL     1      -4.030   7.098  -3.847  0.00  0.00    -0.032 A 
ATOM     13  C   UNL     1      -3.964   8.457  -4.087  0.00  0.00    +0.004 A 
ATOM     14  C   UNL     1      -3.151   8.943  -5.094  0.00  0.00    +0.000 A 
ATOM     15  C   UNL     1      -2.412   8.067  -5.868  0.00  0.00    +0.000 A 
ATOM     16  C   UNL     1      -2.482   6.707  -5.631  0.00  0.00    +0.000 A 
ATOM     17  C   UNL     1      -3.291   6.222  -4.621  0.00  0.00    +0.004 A 
ENDBRANCH   7  12
ENDBRANCH   4   7
ENDBRANCH   2   3
BRANCH   2  18
ATOM     18  C   UNL     1      -2.249   2.857  -1.015  0.00  0.00    +0.022 C 
BRANCH  18  19
ATOM     19  C   UNL     1      -2.782   3.248   0.365  0.00  0.00    +0.011 C 
BRANCH  19  20
ATOM     20  C   UNL     1      -1.774   2.832   1.438  0.00  0.00    +0.038 C 
ATOM     21  C   UNL     1      -0.511   3.723   1.379  0.00  0.00    +0.113 C 
ATOM     22  N   UNL     1      -0.144   3.857   2.805  0.00  0.00    -0.325 N 
ATOM     23  C   UNL     1      -1.311   3.718   3.566  0.00  0.00    +0.034 A 
ATOM     24  C   UNL     1      -2.319   3.112   2.825  0.00  0.00    -0.022 A 
ATOM     25  C   UNL     1      -3.553   2.870   3.388  0.00  0.00    +0.006 A 
ATOM     26  C   UNL     1      -3.800   3.234   4.700  0.00  0.00    +0.000 A 
ATOM     27  C   UNL     1      -2.807   3.842   5.445  0.00  0.00    +0.002 A 
ATOM     28  C   UNL     1      -1.569   4.084   4.886  0.00  0.00    +0.023 A 
BRANCH  22  29
ATOM     29  C   UNL     1       0.501   5.152   3.063  0.00  0.00    +0.135 C 
BRANCH  29  30
ATOM     30  C   UNL     1       1.698   5.305   2.161  0.00  0.00    -0.063 C 
ATOM     31  C   UNL     1       1.583   5.944   1.022  0.00  0.00    +0.009 C 
ATOM     32  C   UNL     1       3.027   4.724   2.568  0.00  0.00    +0.040 C 
ENDBRANCH  29  30
ENDBRANCH  22  29
ENDBRANCH  19  20
ENDBRANCH  18  19
ENDBRANCH   2  18
TORSDOF 8
