REMARK  Name = ZINC38926360
REMARK  8 active torsions:
REMARK  status: ('A' for Active; 'I' for Inactive)
REMARK    1  A    between atoms: C_1  and  C_2
REMARK    2  A    between atoms: C_2  and  C_3
REMARK    3  A    between atoms: C_2  and  C_4
REMARK    4  A    between atoms: C_2  and  C_5
REMARK    5  A    between atoms: C_8  and  C_11
REMARK    6  A    between atoms: N_17  and  N_18
REMARK    7  A    between atoms: C_19  and  C_20
REMARK    8  A    between atoms: C_25  and  O_26
REMARK                            x       y       z     vdW  Elec       q    Type
REMARK                         _______ _______ _______ _____ _____    ______ ____
ROOT
ATOM      1  C   UNL     1       2.717  -1.881  -4.759  0.00  0.00    +0.264 C 
ATOM      2  N   UNL     1       1.772  -1.974  -5.883  0.00  0.00    -0.189 NA
ATOM      3  N   UNL     1       2.145  -1.194  -6.763  0.00  0.00    -0.219 N 
ATOM      4  C   UNL     1       3.276  -0.512  -6.436  0.00  0.00    +0.174 C 
ATOM      5  S   UNL     1       4.048   0.642  -7.437  0.00  0.00    -0.015 S 
ATOM      6  N   UNL     1       3.703  -0.879  -5.205  0.00  0.00    -0.172 N 
ATOM      7  H   UNL     1       1.678  -1.079  -7.605  0.00  0.00    +0.176 HD
ENDROOT
BRANCH   1  11
ATOM      8  C   UNL     1       0.721  -0.555  -1.223  0.00  0.00    -0.042 A 
ATOM      9  C   UNL     1       0.052  -1.345  -2.140  0.00  0.00    +0.004 A 
ATOM     10  C   UNL     1       0.698  -1.774  -3.284  0.00  0.00    +0.008 A 
ATOM     11  C   UNL     1       2.013  -1.413  -3.512  0.00  0.00    -0.002 A 
ATOM     12  C   UNL     1       2.681  -0.622  -2.596  0.00  0.00    +0.008 A 
ATOM     13  C   UNL     1       2.034  -0.189  -1.454  0.00  0.00    +0.004 A 
BRANCH   8  15
ATOM     14  C   UNL     1      -0.016   1.443   0.048  0.00  0.00    +0.015 C 
ATOM     15  C   UNL     1       0.017  -0.087   0.024  0.00  0.00    -0.013 C 
ATOM     16  C   UNL     1       0.765  -0.601   1.256  0.00  0.00    +0.015 C 
ATOM     17  C   UNL     1      -1.415  -0.627   0.035  0.00  0.00    +0.015 C 
ENDBRANCH   8  15
ENDBRANCH   1  11
BRANCH   6  18
ATOM     18  N   UNL     1       4.826  -0.413  -4.509  0.00  0.00    -0.183 NA
ATOM     19  C   UNL     1       5.662   0.394  -5.090  0.00  0.00    +0.142 C 
BRANCH  19  20
ATOM     20  C   UNL     1       6.900   0.795  -4.400  0.00  0.00    +0.038 A 
ATOM     21  C   UNL     1       7.798   1.668  -5.020  0.00  0.00    +0.028 A 
ATOM     22  C   UNL     1       8.955   2.041  -4.368  0.00  0.00    +0.020 A 
ATOM     23  C   UNL     1       9.231   1.553  -3.101  0.00  0.00    +0.034 A 
ATOM     24  C   UNL     1       8.350   0.688  -2.478  0.00  0.00    +0.061 A 
ATOM     25  C   UNL     1       7.180   0.308  -3.116  0.00  0.00    +0.139 A 
ATOM     26 BR   UNL     1       8.739   0.029  -0.748  0.00  0.00    -0.046 Br
ATOM     27 BR   UNL     1      10.171   3.221  -5.207  0.00  0.00    -0.050 Br
BRANCH  25  28
ATOM     28  O   UNL     1       6.311  -0.536  -2.502  0.00  0.00    -0.505 OA
ATOM     29  H   UNL     1       6.481  -1.472  -2.679  0.00  0.00    +0.292 HD
ENDBRANCH  25  28
ENDBRANCH  19  20
ENDBRANCH   6  18
TORSDOF 5
