REMARK  Name = ZINC07221894
REMARK  5 active torsions:
REMARK  status: ('A' for Active; 'I' for Inactive)
REMARK    1  A    between atoms: C_1  and  C_2
REMARK    2  A    between atoms: C_6  and  C_14
REMARK    3  A    between atoms: C_12  and  C_13
REMARK    4  A    between atoms: C_14  and  N_15
REMARK    5  A    between atoms: N_15  and  C_16
REMARK                            x       y       z     vdW  Elec       q    Type
REMARK                         _______ _______ _______ _____ _____    ______ ____
ROOT
ATOM      1  C   UNL     1       8.229  -2.809   4.705  0.00  0.00    +0.044 C 
ATOM      2  C   UNL     1       7.399  -2.759   3.449  0.00  0.00    -0.044 A 
ATOM      3  C   UNL     1       6.090  -2.304   3.509  0.00  0.00    +0.004 A 
ATOM      4  C   UNL     1       5.321  -2.251   2.380  0.00  0.00    +0.012 A 
ATOM      5  C   UNL     1       5.859  -2.659   1.155  0.00  0.00    +0.023 A 
ATOM      6  C   UNL     1       5.061  -2.614  -0.074  0.00  0.00    -0.013 A 
ATOM      7  C   UNL     1       5.640  -3.029  -1.229  0.00  0.00    +0.097 A 
ATOM      8  C   UNL     1       6.979  -3.478  -1.221  0.00  0.00    +0.338 A 
ATOM      9  O   UNL     1       7.488  -3.844  -2.265  0.00  0.00    -0.245 OA
ATOM     10  O   UNL     1       7.703  -3.515  -0.092  0.00  0.00    -0.422 OA
ATOM     11  C   UNL     1       7.186  -3.121   1.091  0.00  0.00    +0.142 A 
ATOM     12  C   UNL     1       7.948  -3.166   2.251  0.00  0.00    -0.005 A 
ATOM     13  C   UNL     1       9.371  -3.659   2.201  0.00  0.00    +0.048 C 
ENDROOT
BRANCH   6  14
ATOM     14  C   UNL     1       3.635  -2.127  -0.054  0.00  0.00    +0.137 C 
BRANCH  14  15
ATOM     15  N   UNL     1       3.620  -0.662  -0.045  0.00  0.00    -0.340 N 
ATOM     16  H   UNL     1       4.455  -0.168  -0.051  0.00  0.00    +0.146 HD
BRANCH  15  17
ATOM     17  C   UNL     1       2.401   0.025  -0.026  0.00  0.00    +0.031 A 
ATOM     18  C   UNL     1       1.206  -0.682  -0.016  0.00  0.00    +0.027 A 
ATOM     19  C   UNL     1       0.002  -0.004   0.002  0.00  0.00    +0.051 A 
ATOM     20  C   UNL     1      -0.017   1.383   0.010  0.00  0.00    +0.162 A 
ATOM     21  C   UNL     1       1.178   2.093   0.002  0.00  0.00    +0.164 A 
ATOM     22  C   UNL     1       2.386   1.412  -0.017  0.00  0.00    +0.072 A 
ATOM     23  O   UNL     1       1.179   3.454   0.018  0.00  0.00    -0.485 OA
ATOM     24  C   UNL     1      -0.045   4.103  -0.340  0.00  0.00    +0.270 C 
ATOM     25  C   UNL     1      -1.193   3.412   0.408  0.00  0.00    +0.270 C 
ATOM     26  O   UNL     1      -1.214   2.034   0.019  0.00  0.00    -0.485 OA
ENDBRANCH  15  17
ENDBRANCH  14  15
ENDBRANCH   6  14
TORSDOF 3
