REMARK  Name = ZINC17861192
REMARK  3 active torsions:
REMARK  status: ('A' for Active; 'I' for Inactive)
REMARK    1  A    between atoms: C_6  and  S_7
REMARK    2  A    between atoms: S_7  and  N_10
REMARK    3  A    between atoms: C_16  and  C_18
REMARK                            x       y       z     vdW  Elec       q    Type
REMARK                         _______ _______ _______ _____ _____    ______ ____
ROOT
ATOM      1  N   UNL     1      -6.859   2.451  -2.168  0.00  0.00    -0.174 NA
ATOM      2  C   UNL     1      -6.092   2.878  -3.347  0.00  0.00    +0.128 C 
ATOM      3  C   UNL     1      -5.032   1.814  -3.654  0.00  0.00    +0.125 C 
ATOM      4  N   UNL     1      -4.308   1.501  -2.414  0.00  0.00    -0.299 N 
ATOM      5  C   UNL     1      -5.074   1.068  -1.236  0.00  0.00    +0.125 C 
ATOM      6  C   UNL     1      -6.135   2.138  -0.928  0.00  0.00    +0.128 C 
ATOM      7  C   UNL     1      -2.965   1.603  -2.358  0.00  0.00    +0.219 C 
ATOM      8  O   UNL     1      -2.370   1.252  -1.361  0.00  0.00    -0.275 OA
ENDROOT
BRANCH   7   9
ATOM      9  C   UNL     1      -2.202   2.153  -3.536  0.00  0.00    +0.079 C 
ATOM     10  C   UNL     1      -0.864   2.732  -3.059  0.00  0.00    +0.017 C 
ATOM     11  C   UNL     1      -0.194   3.439  -4.239  0.00  0.00    +0.027 C 
ATOM     12  C   UNL     1      -0.190   2.541  -5.441  0.00  0.00    -0.031 C 
ATOM     13  C   UNL     1      -0.938   1.497  -5.572  0.00  0.00    -0.030 C 
ATOM     14  C   UNL     1      -1.915   1.029  -4.534  0.00  0.00    +0.039 C 
ENDBRANCH   7   9
BRANCH   1  15
ATOM     15  S   UNL     1      -8.508   2.324  -2.236  0.00  0.00    +0.061 S 
ATOM     16  O   UNL     1      -8.981   2.454  -0.902  0.00  0.00    -0.153 OA
ATOM     17  O   UNL     1      -8.939   3.182  -3.284  0.00  0.00    -0.153 OA
BRANCH  15  23
ATOM     18  C   UNL     1      -9.017   0.384  -4.089  0.00  0.00    +0.029 A 
ATOM     19  C   UNL     1      -9.309  -0.907  -4.480  0.00  0.00    +0.006 A 
ATOM     20  C   UNL     1      -9.481  -1.909  -3.534  0.00  0.00    -0.044 A 
ATOM     21  C   UNL     1      -9.350  -1.614  -2.196  0.00  0.00    -0.042 A 
ATOM     22  C   UNL     1      -9.052  -0.315  -1.804  0.00  0.00    +0.032 A 
ATOM     23  C   UNL     1      -8.884   0.680  -2.745  0.00  0.00    +0.106 A 
ATOM     24  C   UNL     1      -9.513  -2.652  -1.117  0.00  0.00    +0.035 C 
ATOM     25  C   UNL     1     -10.244  -3.879  -1.658  0.00  0.00    +0.005 C 
ATOM     26  C   UNL     1      -9.542  -4.332  -2.944  0.00  0.00    +0.005 C 
ATOM     27  C   UNL     1      -9.811  -3.293  -4.030  0.00  0.00    +0.035 C 
ENDBRANCH  15  23
ENDBRANCH   1  15
TORSDOF 3
