REMARK  Name = ZINC12372406
REMARK  11 active torsions:
REMARK  status: ('A' for Active; 'I' for Inactive)
REMARK    1  A    between atoms: C_1  and  C_2
REMARK    2  A    between atoms: C_3  and  C_22
REMARK    3  A    between atoms: C_5  and  C_7
REMARK    4  A    between atoms: C_9  and  C_20
REMARK    5  A    between atoms: C_10  and  N_19
REMARK    6  A    between atoms: C_12  and  C_18
REMARK    7  A    between atoms: C_13  and  C_14
REMARK    8  A    between atoms: C_14  and  O_16
REMARK    9  A    between atoms: O_16  and  C_17
REMARK   10  A    between atoms: C_22  and  S_23
REMARK   11  A    between atoms: S_23  and  C_24
REMARK                            x       y       z     vdW  Elec       q    Type
REMARK                         _______ _______ _______ _____ _____    ______ ____
ROOT
ATOM      1  C   UNL     1       6.241   6.399  -2.608  0.00  0.00    +0.052 C 
ATOM      2  C   UNL     1       6.687   6.695  -1.199  0.00  0.00    -0.009 A 
ATOM      3  C   UNL     1       6.127   6.307  -0.027  0.00  0.00    -0.027 A 
ATOM      4  C   UNL     1       6.719   6.697   1.160  0.00  0.00    +0.017 A 
ATOM      5  C   UNL     1       7.837   7.461   1.117  0.00  0.00    +0.003 A 
ATOM      6  S   UNL     1       8.087   7.652  -0.641  0.00  0.00    -0.097 S 
ENDROOT
BRANCH   5   7
ATOM      7  C   UNL     1       8.657   8.008   2.257  0.00  0.00    +0.111 C 
ATOM      8  C   UNL     1      10.064   7.481   2.160  0.00  0.00    +0.099 C 
ATOM      9  C   UNL     1      11.069   8.270   1.709  0.00  0.00    +0.198 C 
ATOM     10  O   UNL     1      10.856   9.542   1.331  0.00  0.00    -0.445 OA
ATOM     11  C   UNL     1       9.745  10.173   1.738  0.00  0.00    +0.115 C 
ATOM     12  C   UNL     1       8.671   9.511   2.187  0.00  0.00    +0.087 C 
ATOM     13  C   UNL     1       9.704  11.678   1.691  0.00  0.00    +0.087 C 
BRANCH   9  14
ATOM     14  N   UNL     1      12.340   7.755   1.637  0.00  0.00    -0.328 N 
ATOM     15  H   UNL     1      12.508   6.839   1.906  0.00  0.00    +0.145 HD
ATOM     16  H   UNL     1      13.069   8.309   1.316  0.00  0.00    +0.145 HD
ENDBRANCH   9  14
BRANCH  12  17
ATOM     17  C   UNL     1       7.528  10.238   2.602  0.00  0.00    +0.339 C 
ATOM     18  O   UNL     1       7.529  11.453   2.550  0.00  0.00    -0.245 OA
BRANCH  17  19
ATOM     19  O   UNL     1       6.440   9.582   3.055  0.00  0.00    -0.465 OA
ATOM     20  C   UNL     1       5.323  10.379   3.457  0.00  0.00    +0.280 C 
ENDBRANCH  17  19
ENDBRANCH  12  17
BRANCH   8  21
ATOM     21  C   UNL     1      10.342   6.131   2.548  0.00  0.00    +0.101 C 
ATOM     22  N   UNL     1      10.563   5.061   2.856  0.00  0.00    -0.191 NA
ENDBRANCH   8  21
ENDBRANCH   5   7
BRANCH   3  23
ATOM     23  C   UNL     1       4.883   5.457  -0.019  0.00  0.00    +0.112 C 
BRANCH  23  24
ATOM     24  S   UNL     1       3.422   6.526   0.001  0.00  0.00    -0.094 S 
BRANCH  24  25
ATOM     25  C   UNL     1       2.151   5.306   0.008  0.00  0.00    +0.136 A 
ATOM     26  N   UNL     1       2.264   3.996   0.001  0.00  0.00    -0.233 NA
ATOM     27  C   UNL     1       1.191   3.176   0.007  0.00  0.00    +0.079 A 
ATOM     28  C   UNL     1       1.174   1.762   0.000  0.00  0.00    +0.029 A 
ATOM     29  C   UNL     1      -0.013   1.076   0.008  0.00  0.00    +0.002 A 
ATOM     30  C   UNL     1      -1.232   1.737   0.017  0.00  0.00    +0.001 A 
ATOM     31  C   UNL     1      -1.252   3.120   0.031  0.00  0.00    +0.017 A 
ATOM     32  C   UNL     1      -0.069   3.815   0.023  0.00  0.00    +0.040 A 
ATOM     33  S   UNL     1       0.378   5.535   0.026  0.00  0.00    -0.061 S 
ENDBRANCH  24  25
ENDBRANCH  23  24
ENDBRANCH   3  23
TORSDOF 8
