REMARK  Name = ZINC09152418
REMARK  9 active torsions:
REMARK  status: ('A' for Active; 'I' for Inactive)
REMARK    1  A    between atoms: C_1  and  C_2
REMARK    2  A    between atoms: C_2  and  C_3
REMARK    3  A    between atoms: C_6  and  C_9
REMARK    4  A    between atoms: C_9  and  N_10
REMARK    5  A    between atoms: N_10  and  C_11
REMARK    6  A    between atoms: C_11  and  C_12
REMARK    7  A    between atoms: N_19  and  C_24
REMARK    8  A    between atoms: C_20  and  C_21
REMARK    9  A    between atoms: C_24  and  C_25
REMARK                            x       y       z     vdW  Elec       q    Type
REMARK                         _______ _______ _______ _____ _____    ______ ____
ROOT
ATOM      1  C   UNL     1       4.411   0.043  -7.443  0.00  0.00    -0.025 A 
ATOM      2  C   UNL     1       3.492   0.668  -8.318  0.00  0.00    +0.002 A 
ATOM      3  C   UNL     1       2.145   0.433  -8.627  0.00  0.00    +0.010 A 
ATOM      4  C   UNL     1       1.509   1.226  -9.537  0.00  0.00    +0.001 A 
ATOM      5  C   UNL     1       2.184   2.268 -10.162  0.00  0.00    +0.002 A 
ATOM      6  C   UNL     1       3.507   2.519  -9.875  0.00  0.00    +0.026 A 
ATOM      7  C   UNL     1       4.178   1.724  -8.950  0.00  0.00    +0.050 A 
ATOM      8  N   UNL     1       5.465   1.727  -8.467  0.00  0.00    -0.330 N 
ATOM      9  C   UNL     1       5.596   0.704  -7.546  0.00  0.00    +0.134 A 
ENDROOT
BRANCH   9  10
ATOM     10  C   UNL     1       6.818   0.380  -6.803  0.00  0.00    +0.403 C 
ATOM     11  O   UNL     1       7.798   1.108  -6.890  0.00  0.00    -0.239 OA
ATOM     12  O   UNL     1       6.858  -0.618  -6.095  0.00  0.00    -0.239 OA
ENDBRANCH   9  10
BRANCH   1  13
ATOM     13  C   UNL     1       4.127  -1.140  -6.553  0.00  0.00    -0.043 C 
BRANCH  13  14
ATOM     14  N   UNL     1       3.645  -0.666  -5.249  0.00  0.00    +0.384 N 
ATOM     15  H   UNL     1       2.799  -0.131  -5.377  0.00  0.00    -0.085 HD
ATOM     16  H   UNL     1       4.349  -0.085  -4.821  0.00  0.00    -0.085 HD
BRANCH  14  17
ATOM     17  C   UNL     1       3.368  -1.819  -4.381  0.00  0.00    -0.046 C 
BRANCH  17  21
ATOM     18  C   UNL     1       1.966  -0.444  -0.588  0.00  0.00    -0.048 A 
ATOM     19  C   UNL     1       1.066  -0.699  -1.606  0.00  0.00    +0.004 A 
ATOM     20  C   UNL     1       1.520  -1.144  -2.833  0.00  0.00    +0.002 A 
ATOM     21  C   UNL     1       2.873  -1.333  -3.043  0.00  0.00    -0.064 A 
ATOM     22  C   UNL     1       3.773  -1.077  -2.025  0.00  0.00    +0.002 A 
ATOM     23  C   UNL     1       3.320  -0.628  -0.799  0.00  0.00    +0.004 A 
BRANCH  18  25
ATOM     24  C   UNL     1       1.419   1.571   0.752  0.00  0.00    +0.009 C 
ATOM     25  C   UNL     1       1.471   0.042   0.751  0.00  0.00    +0.032 C 
ENDBRANCH  18  25
ENDBRANCH  17  21
ENDBRANCH  14  17
ENDBRANCH  13  14
ENDBRANCH   1  13
BRANCH   8  26
ATOM     26  C   UNL     1       6.521   2.663  -8.858  0.00  0.00    +0.159 C 
BRANCH  26  27
ATOM     27  C   UNL     1       7.365   2.044  -9.943  0.00  0.00    -0.009 A 
ATOM     28  C   UNL     1       8.466   1.277  -9.608  0.00  0.00    +0.009 A 
ATOM     29  C   UNL     1       9.240   0.709 -10.601  0.00  0.00    +0.039 A 
ATOM     30  C   UNL     1       8.914   0.906 -11.932  0.00  0.00    +0.125 A 
ATOM     31  C   UNL     1       7.812   1.674 -12.267  0.00  0.00    +0.058 A 
ATOM     32  C   UNL     1       7.034   2.238 -11.272  0.00  0.00    +0.049 A 
ATOM     33 CL   UNL     1       5.648   3.195 -11.691  0.00  0.00    -0.083 Cl
ATOM     34  F   UNL     1       9.671   0.351 -12.903  0.00  0.00    -0.205 F 
ENDBRANCH  26  27
ENDBRANCH   8  26
TORSDOF 8
