REMARK  Name = ZINC09158795
REMARK  6 active torsions:
REMARK  status: ('A' for Active; 'I' for Inactive)
REMARK    1  A    between atoms: C_1  and  O_2
REMARK    2  A    between atoms: O_2  and  C_3
REMARK    3  A    between atoms: C_7  and  C_9
REMARK    4  A    between atoms: C_16  and  N_29
REMARK    5  A    between atoms: C_17  and  C_27
REMARK    6  A    between atoms: C_18  and  C_20
REMARK                            x       y       z     vdW  Elec       q    Type
REMARK                         _______ _______ _______ _____ _____    ______ ____
ROOT
ATOM      1  C   UNL     1      -2.552  -4.150   0.016  0.00  0.00    +0.100 A 
ATOM      2  C   UNL     1      -3.512  -4.932   0.666  0.00  0.00    +0.054 A 
ATOM      3  C   UNL     1      -3.224  -6.243   0.421  0.00  0.00    +0.223 A 
ATOM      4  N   UNL     1      -2.121  -6.284  -0.355  0.00  0.00    -0.246 N 
ATOM      5  H   UNL     1      -1.685  -7.085  -0.686  0.00  0.00    +0.192 HD
ATOM      6  N   UNL     1      -1.718  -4.963  -0.604  0.00  0.00    -0.171 NA
ATOM      7  O   UNL     1      -3.974  -7.261   0.912  0.00  0.00    -0.423 OA
ATOM      8  C   UNL     1      -5.181  -6.955   1.429  0.00  0.00    +0.200 C 
ATOM      9  C   UNL     1      -5.575  -5.697   1.726  0.00  0.00    +0.098 C 
ATOM     10  C   UNL     1      -4.685  -4.499   1.506  0.00  0.00    +0.102 C 
ENDROOT
BRANCH  10  11
ATOM     11  C   UNL     1      -4.195  -3.979   2.833  0.00  0.00    -0.034 A 
ATOM     12  C   UNL     1      -3.467  -4.802   3.672  0.00  0.00    +0.005 A 
ATOM     13  C   UNL     1      -3.018  -4.326   4.889  0.00  0.00    +0.015 A 
ATOM     14  C   UNL     1      -3.296  -3.025   5.268  0.00  0.00    +0.018 A 
ATOM     15  C   UNL     1      -4.024  -2.201   4.428  0.00  0.00    +0.015 A 
ATOM     16  C   UNL     1      -4.469  -2.677   3.209  0.00  0.00    +0.005 A 
ATOM     17 BR   UNL     1      -2.681  -2.372   6.933  0.00  0.00    -0.050 Br
ENDBRANCH  10  11
BRANCH   1  22
ATOM     18  C   UNL     1      -1.200  -0.637   0.010  0.00  0.00    +0.121 A 
ATOM     19  C   UNL     1      -2.375   0.103   0.019  0.00  0.00    +0.045 A 
ATOM     20  C   UNL     1      -3.600  -0.537   0.027  0.00  0.00    +0.004 A 
ATOM     21  C   UNL     1      -3.662  -1.917   0.026  0.00  0.00    +0.010 A 
ATOM     22  C   UNL     1      -2.488  -2.667   0.017  0.00  0.00    +0.006 A 
ATOM     23  C   UNL     1      -1.254  -2.022   0.003  0.00  0.00    +0.055 A 
BRANCH  18  25
ATOM     24  C   UNL     1      -0.017   1.425   0.010  0.00  0.00    +0.277 C 
ATOM     25  O   UNL     1       0.002  -0.004   0.002  0.00  0.00    -0.495 OA
ENDBRANCH  18  25
ENDBRANCH   1  22
BRANCH   8  26
ATOM     26  N   UNL     1      -6.061  -7.981   1.668  0.00  0.00    -0.328 N 
ATOM     27  H   UNL     1      -5.807  -8.895   1.465  0.00  0.00    +0.145 HD
ATOM     28  H   UNL     1      -6.937  -7.792   2.040  0.00  0.00    +0.145 HD
ENDBRANCH   8  26
BRANCH   9  29
ATOM     29  C   UNL     1      -6.884  -5.494   2.268  0.00  0.00    +0.101 C 
ATOM     30  N   UNL     1      -7.923  -5.332   2.698  0.00  0.00    -0.191 NA
ENDBRANCH   9  29
TORSDOF 5
