REMARK  Name = ZINC01085419
REMARK  5 active torsions:
REMARK  status: ('A' for Active; 'I' for Inactive)
REMARK    1  A    between atoms: C_1  and  C_2
REMARK    2  A    between atoms: C_2  and  C_3
REMARK    3  A    between atoms: C_6  and  C_9
REMARK    4  A    between atoms: C_11  and  C_20
REMARK    5  A    between atoms: C_13  and  C_18
REMARK                            x       y       z     vdW  Elec       q    Type
REMARK                         _______ _______ _______ _____ _____    ______ ____
ROOT
ATOM      1  C   UNL     1       3.195   6.003   1.119  0.00  0.00    +0.037 C 
ATOM      2  C   UNL     1       2.478   4.886   1.167  0.00  0.00    +0.007 C 
ATOM      3  C   UNL     1       2.452   3.936  -0.002  0.00  0.00    +0.069 C 
ATOM      4  C   UNL     1       2.566   4.725  -1.307  0.00  0.00    +0.188 C 
ATOM      5  C   UNL     1       3.691   5.723  -1.193  0.00  0.00    +0.235 C 
ATOM      6  O   UNL     1       4.387   5.965  -2.156  0.00  0.00    -0.274 OA
ATOM      7  N   UNL     1       3.921   6.344  -0.022  0.00  0.00    -0.284 N 
ATOM      8  H   UNL     1       4.600   7.036   0.030  0.00  0.00    +0.155 HD
ENDROOT
BRANCH   3   9
ATOM      9  C   UNL     1       1.157   3.166   0.007  0.00  0.00    -0.038 A 
ATOM     10  C   UNL     1       1.159   1.807  -0.249  0.00  0.00    +0.004 A 
ATOM     11  C   UNL     1      -0.028   1.100  -0.241  0.00  0.00    +0.001 A 
ATOM     12  C   UNL     1      -1.220   1.752   0.017  0.00  0.00    +0.015 A 
ATOM     13  C   UNL     1      -1.222   3.110   0.279  0.00  0.00    +0.018 A 
ATOM     14  C   UNL     1      -0.033   3.817   0.271  0.00  0.00    +0.019 A 
ATOM     15 BR   UNL     1      -2.850   4.001   0.641  0.00  0.00    -0.050 Br
ENDBRANCH   3   9
BRANCH   1  19
ATOM     16  C   UNL     1       3.272   8.584   4.495  0.00  0.00    -0.048 A 
ATOM     17  C   UNL     1       3.990   8.913   3.359  0.00  0.00    +0.004 A 
ATOM     18  C   UNL     1       3.969   8.079   2.260  0.00  0.00    +0.010 A 
ATOM     19  C   UNL     1       3.222   6.902   2.296  0.00  0.00    -0.004 A 
ATOM     20  C   UNL     1       2.496   6.578   3.441  0.00  0.00    +0.010 A 
ATOM     21  C   UNL     1       2.530   7.417   4.536  0.00  0.00    +0.004 A 
BRANCH  16  23
ATOM     22  C   UNL     1       2.166  10.519   5.581  0.00  0.00    +0.009 C 
ATOM     23  C   UNL     1       3.300   9.499   5.692  0.00  0.00    +0.032 C 
ENDBRANCH  16  23
ENDBRANCH   1  19
BRANCH   4  24
ATOM     24  C   UNL     1       1.303   5.436  -1.564  0.00  0.00    +0.076 C 
ATOM     25  N   UNL     1       0.328   5.984  -1.762  0.00  0.00    -0.196 NA
ENDBRANCH   4  24
TORSDOF 4
