REMARK  Name = ZINC54367290
REMARK  2 active torsions:
REMARK  status: ('A' for Active; 'I' for Inactive)
REMARK    1  A    between atoms: C_11  and  C_13
REMARK    2  A    between atoms: C_13  and  N_14
REMARK                            x       y       z     vdW  Elec       q    Type
REMARK                         _______ _______ _______ _____ _____    ______ ____
ROOT
ATOM      1  C   UNL     1      -0.017   1.373   0.010  0.00  0.00    +0.001 A 
ATOM      2  C   UNL     1       1.169   2.096   0.002  0.00  0.00    +0.002 A 
ATOM      3  C   UNL     1       2.387   1.453  -0.013  0.00  0.00    +0.028 A 
ATOM      4  C   UNL     1       2.432   0.058  -0.021  0.00  0.00    +0.078 A 
ATOM      5  C   UNL     1       1.224  -0.674  -0.013  0.00  0.00    +0.065 A 
ATOM      6  C   UNL     1       0.002  -0.004   0.002  0.00  0.00    +0.015 A 
ATOM      7  C   UNL     1       1.306  -2.142  -0.022  0.00  0.00    +0.259 A 
ATOM      8  O   UNL     1       0.302  -2.832  -0.017  0.00  0.00    -0.267 OA
ATOM      9  N   UNL     1       2.540  -2.697  -0.038  0.00  0.00    -0.309 N 
ATOM     10  H   UNL     1       2.633  -3.663  -0.045  0.00  0.00    +0.170 HD
ATOM     11  C   UNL     1       3.650  -1.914  -0.045  0.00  0.00    +0.128 A 
ATOM     12  N   UNL     1       3.609  -0.616  -0.037  0.00  0.00    -0.232 NA
ENDROOT
BRANCH  11  13
ATOM     13  C   UNL     1       4.999  -2.586  -0.063  0.00  0.00    +0.179 C 
BRANCH  13  14
ATOM     14  N   UNL     1       6.052  -1.568  -0.069  0.00  0.00    -0.322 N 
ATOM     15  C   UNL     1       6.571  -1.037  -1.337  0.00  0.00    +0.106 C 
ATOM     16  C   UNL     1       8.101  -0.988  -1.233  0.00  0.00    +0.024 C 
ATOM     17  C   UNL     1       8.490  -0.013  -0.122  0.00  0.00    +0.038 C 
ATOM     18  C   UNL     1       7.748  -0.337   1.148  0.00  0.00    -0.025 A 
ATOM     19  C   UNL     1       6.576  -1.080   1.134  0.00  0.00    +0.033 A 
ATOM     20  C   UNL     1       5.910  -1.355   2.323  0.00  0.00    +0.024 A 
ATOM     21  C   UNL     1       6.412  -0.885   3.521  0.00  0.00    +0.017 A 
ATOM     22  C   UNL     1       7.578  -0.142   3.536  0.00  0.00    +0.018 A 
ATOM     23  C   UNL     1       8.249   0.124   2.353  0.00  0.00    +0.020 A 
ATOM     24 BR   UNL     1       8.267   0.500   5.176  0.00  0.00    -0.050 Br
ENDBRANCH  13  14
ENDBRANCH  11  13
TORSDOF 2
