REMARK  Name = ZINC40732839
REMARK  6 active torsions:
REMARK  status: ('A' for Active; 'I' for Inactive)
REMARK    1  A    between atoms: C_1  and  C_2
REMARK    2  A    between atoms: C_9  and  N_28
REMARK    3  A    between atoms: C_10  and  N_14
REMARK    4  A    between atoms: N_14  and  N_15
REMARK    5  A    between atoms: N_15  and  C_16
REMARK    6  A    between atoms: N_15  and  C_22
REMARK                            x       y       z     vdW  Elec       q    Type
REMARK                         _______ _______ _______ _____ _____    ______ ____
ROOT
ATOM      1  C   UNL     1      -5.587  -3.237  -2.665  0.00  0.00    +0.007 C 
ATOM      2  C   UNL     1      -4.412  -3.440  -1.705  0.00  0.00    -0.011 C 
ATOM      3  C   UNL     1      -4.216  -4.936  -1.447  0.00  0.00    +0.022 C 
ATOM      4  C   UNL     1      -3.019  -5.136  -0.514  0.00  0.00    +0.107 C 
ATOM      5  N   UNL     1      -3.227  -4.337   0.701  0.00  0.00    -0.314 N 
ATOM      6  C   UNL     1      -3.513  -2.902   0.562  0.00  0.00    +0.107 C 
ATOM      7  C   UNL     1      -4.705  -2.726  -0.383  0.00  0.00    +0.022 C 
ATOM      8  C   UNL     1      -3.154  -4.926   1.958  0.00  0.00    +0.147 A 
ATOM      9  C   UNL     1      -1.953  -4.934   2.669  0.00  0.00    +0.105 A 
ATOM     10  C   UNL     1      -1.936  -5.539   3.926  0.00  0.00    +0.139 A 
ATOM     11  N   UNL     1      -3.057  -6.081   4.397  0.00  0.00    -0.332 N 
ATOM     12  C   UNL     1      -4.170  -6.052   3.693  0.00  0.00    +0.200 A 
ATOM     13  N   UNL     1      -4.231  -5.486   2.504  0.00  0.00    -0.221 NA
ATOM     14  H   UNL     1      -3.054  -6.504   5.269  0.00  0.00    +0.168 HD
ENDROOT
BRANCH   9  15
ATOM     15  N   UNL     1      -0.793  -4.350   2.133  0.00  0.00    -0.353 N 
ATOM     16  H   UNL     1      -0.851  -3.798   1.337  0.00  0.00    +0.143 HD
ATOM     17  H   UNL     1       0.066  -4.498   2.559  0.00  0.00    +0.143 HD
ENDBRANCH   9  15
BRANCH  10  18
ATOM     18  N   UNL     1      -0.766  -5.576   4.676  0.00  0.00    -0.243 N 
ATOM     19  H   UNL     1       0.047  -5.179   4.326  0.00  0.00    +0.172 HD
BRANCH  18  20
ATOM     20  N   UNL     1      -0.761  -6.186   5.937  0.00  0.00    -0.221 N 
BRANCH  20  21
ATOM     21  C   UNL     1      -0.169  -7.441   6.104  0.00  0.00    +0.053 A 
ATOM     22  C   UNL     1       0.252  -8.164   4.995  0.00  0.00    +0.025 A 
ATOM     23  C   UNL     1       0.837  -9.404   5.163  0.00  0.00    +0.002 A 
ATOM     24  C   UNL     1       1.002  -9.926   6.433  0.00  0.00    +0.000 A 
ATOM     25  C   UNL     1       0.583  -9.209   7.539  0.00  0.00    +0.002 A 
ATOM     26  C   UNL     1       0.004  -7.966   7.378  0.00  0.00    +0.025 A 
ENDBRANCH  20  21
BRANCH  20  27
ATOM     27  C   UNL     1      -1.347  -5.540   7.028  0.00  0.00    +0.053 A 
ATOM     28  C   UNL     1      -0.959  -4.248   7.363  0.00  0.00    +0.025 A 
ATOM     29  C   UNL     1      -1.541  -3.613   8.442  0.00  0.00    +0.002 A 
ATOM     30  C   UNL     1      -2.508  -4.260   9.190  0.00  0.00    +0.000 A 
ATOM     31  C   UNL     1      -2.896  -5.546   8.859  0.00  0.00    +0.002 A 
ATOM     32  C   UNL     1      -2.323  -6.185   7.777  0.00  0.00    +0.025 A 
ENDBRANCH  20  27
ENDBRANCH  18  20
ENDBRANCH  10  18
TORSDOF 5
