REMARK  Name = ZINC08807623
REMARK  6 active torsions:
REMARK  status: ('A' for Active; 'I' for Inactive)
REMARK    1  A    between atoms: C_1  and  C_2
REMARK    2  A    between atoms: C_2  and  N_3
REMARK    3  A    between atoms: C_11  and  S_12
REMARK    4  A    between atoms: S_12  and  C_13
REMARK    5  A    between atoms: C_13  and  C_14
REMARK    6  A    between atoms: N_16  and  C_17
REMARK                            x       y       z     vdW  Elec       q    Type
REMARK                         _______ _______ _______ _____ _____    ______ ____
ROOT
ATOM      1  C   UNL     1      -2.047  -3.658   3.815  0.00  0.00    +0.228 C 
ATOM      2  O   UNL     1      -0.854  -3.615   4.029  0.00  0.00    -0.275 OA
ATOM      3  N   UNL     1      -2.770  -4.713   4.241  0.00  0.00    -0.284 N 
ATOM      4  H   UNL     1      -3.735  -4.712   4.141  0.00  0.00    +0.155 HD
ENDROOT
BRANCH   3   5
ATOM      5  C   UNL     1      -2.133  -5.803   4.823  0.00  0.00    +0.045 A 
ATOM      6  C   UNL     1      -0.799  -6.079   4.523  0.00  0.00    +0.024 A 
ATOM      7  C   UNL     1      -0.164  -7.159   5.098  0.00  0.00    +0.003 A 
ATOM      8  C   UNL     1      -0.839  -7.987   5.982  0.00  0.00    +0.012 A 
ATOM      9  C   UNL     1      -2.169  -7.732   6.295  0.00  0.00    +0.035 A 
ATOM     10  C   UNL     1      -2.824  -6.627   5.716  0.00  0.00    +0.054 A 
ATOM     11  C   UNL     1      -4.234  -6.354   6.054  0.00  0.00    +0.196 C 
ATOM     12  O   UNL     1      -4.738  -5.286   5.767  0.00  0.00    -0.287 OA
ATOM     13  C   UNL     1      -5.026  -7.394   6.746  0.00  0.00    +0.033 A 
ATOM     14  C   UNL     1      -6.410  -7.293   6.826  0.00  0.00    +0.012 A 
ATOM     15  C   UNL     1      -7.136  -8.277   7.476  0.00  0.00    +0.001 A 
ATOM     16  C   UNL     1      -6.493  -9.359   8.048  0.00  0.00    +0.001 A 
ATOM     17  C   UNL     1      -5.116  -9.475   7.979  0.00  0.00    +0.012 A 
ATOM     18  C   UNL     1      -4.372  -8.495   7.329  0.00  0.00    +0.033 A 
ATOM     19  C   UNL     1      -2.903  -8.609   7.233  0.00  0.00    +0.195 C 
ATOM     20  O   UNL     1      -2.303  -9.404   7.929  0.00  0.00    -0.287 OA
ENDBRANCH   3   5
BRANCH   1  21
ATOM     21  C   UNL     1      -2.721  -2.532   3.074  0.00  0.00    +0.173 C 
BRANCH  21  22
ATOM     22  S   UNL     1      -1.493  -1.275   2.640  0.00  0.00    -0.078 S 
BRANCH  22  31
ATOM     23  N   UNL     1      -2.099   1.062   1.258  0.00  0.00    -0.319 N 
ATOM     24  C   UNL     1      -3.208   1.684   0.709  0.00  0.00    +0.069 A 
ATOM     25  C   UNL     1      -3.404   2.878   0.033  0.00  0.00    +0.028 A 
ATOM     26  C   UNL     1      -4.668   3.224  -0.400  0.00  0.00    +0.002 A 
ATOM     27  C   UNL     1      -5.746   2.383  -0.164  0.00  0.00    +0.002 A 
ATOM     28  C   UNL     1      -5.568   1.188   0.498  0.00  0.00    +0.030 A 
ATOM     29  C   UNL     1      -4.295   0.827   0.947  0.00  0.00    +0.090 A 
ATOM     30  N   UNL     1      -3.815  -0.250   1.624  0.00  0.00    -0.222 NA
ATOM     31  C   UNL     1      -2.525  -0.114   1.808  0.00  0.00    +0.170 A 
BRANCH  23  33
ATOM     32  C   UNL     1       0.001   1.077   0.005  0.00  0.00    +0.027 C 
ATOM     33  C   UNL     1      -0.726   1.573   1.256  0.00  0.00    +0.121 C 
ENDBRANCH  23  33
ENDBRANCH  22  31
ENDBRANCH  21  22
ENDBRANCH   1  21
TORSDOF 5
