REMARK  Name = ZINC12568340
REMARK  11 active torsions:
REMARK  status: ('A' for Active; 'I' for Inactive)
REMARK    1  A    between atoms: C_1  and  C_2
REMARK    2  A    between atoms: C_2  and  O_3
REMARK    3  A    between atoms: O_3  and  C_4
REMARK    4  A    between atoms: C_4  and  C_6
REMARK    5  A    between atoms: C_7  and  C_34
REMARK    6  A    between atoms: C_11  and  C_15
REMARK    7  A    between atoms: C_15  and  N_16
REMARK    8  A    between atoms: N_19  and  S_22
REMARK    9  A    between atoms: S_22  and  C_25
REMARK   10  A    between atoms: C_28  and  O_31
REMARK   11  A    between atoms: O_31  and  C_32
REMARK                            x       y       z     vdW  Elec       q    Type
REMARK                         _______ _______ _______ _____ _____    ______ ____
ROOT
ATOM      1  C   UNL     1     -10.309   0.176  -2.333  0.00  0.00    +0.102 A 
ATOM      2  C   UNL     1      -9.983   0.132  -3.655  0.00  0.00    -0.017 A 
ATOM      3  C   UNL     1      -8.834   0.790  -4.111  0.00  0.00    +0.051 A 
ATOM      4  C   UNL     1      -8.309   0.876  -5.435  0.00  0.00    +0.128 A 
ATOM      5  N   UNL     1      -7.198   1.563  -5.645  0.00  0.00    -0.216 NA
ATOM      6  C   UNL     1      -6.547   2.167  -4.667  0.00  0.00    +0.146 A 
ATOM      7  N   UNL     1      -6.981   2.126  -3.422  0.00  0.00    -0.223 NA
ATOM      8  C   UNL     1      -8.082   1.469  -3.120  0.00  0.00    +0.115 A 
ATOM      9  S   UNL     1      -8.997   1.162  -1.632  0.00  0.00    -0.062 S 
ATOM     10  N   UNL     1      -8.954   0.255  -6.485  0.00  0.00    -0.343 N 
ATOM     11  C   UNL     1     -10.857  -0.622  -4.624  0.00  0.00    +0.046 C 
ATOM     12  H   UNL     1      -8.543   0.326  -7.503  0.00  0.00    +0.144 HD
ATOM     13  H   UNL     1      -9.880  -0.311  -6.304  0.00  0.00    +0.144 HD
ENDROOT
BRANCH   1  14
ATOM     14  C   UNL     1     -11.455  -0.437  -1.653  0.00  0.00    +0.346 C 
ATOM     15  O   UNL     1     -12.282  -1.056  -2.295  0.00  0.00    -0.244 OA
BRANCH  14  16
ATOM     16  O   UNL     1     -11.592  -0.313  -0.317  0.00  0.00    -0.461 OA
BRANCH  16  18
ATOM     17  C   UNL     1     -12.735  -0.700   1.798  0.00  0.00    +0.048 C 
ATOM     18  C   UNL     1     -12.751  -0.946   0.288  0.00  0.00    +0.229 C 
ENDBRANCH  16  18
ENDBRANCH  14  16
ENDBRANCH   1  14
BRANCH   6  19
ATOM     19  C   UNL     1      -5.284   2.927  -4.982  0.00  0.00    +0.160 C 
BRANCH  19  20
ATOM     20  N   UNL     1      -4.129   2.027  -4.863  0.00  0.00    -0.293 NA
ATOM     21  C   UNL     1      -2.868   2.777  -4.929  0.00  0.00    +0.102 C 
ATOM     22  C   UNL     1      -1.694   1.793  -4.984  0.00  0.00    +0.125 C 
ATOM     23  N   UNL     1      -1.808   0.866  -3.849  0.00  0.00    -0.174 NA
ATOM     24  C   UNL     1      -3.089   0.174  -3.640  0.00  0.00    +0.125 C 
ATOM     25  C   UNL     1      -4.210   1.226  -3.634  0.00  0.00    +0.102 C 
BRANCH  23  26
ATOM     26  S   UNL     1      -0.525   0.603  -2.835  0.00  0.00    +0.061 S 
ATOM     27  O   UNL     1      -0.731  -0.673  -2.243  0.00  0.00    -0.153 OA
ATOM     28  O   UNL     1       0.647   0.920  -3.572  0.00  0.00    -0.153 OA
BRANCH  26  29
ATOM     29  C   UNL     1      -0.638   1.786  -1.534  0.00  0.00    +0.106 A 
ATOM     30  C   UNL     1      -0.015   3.013  -1.662  0.00  0.00    +0.032 A 
ATOM     31  C   UNL     1      -0.106   3.945  -0.646  0.00  0.00    +0.047 A 
ATOM     32  C   UNL     1      -0.815   3.643   0.508  0.00  0.00    +0.120 A 
ATOM     33  C   UNL     1      -1.435   2.409   0.636  0.00  0.00    +0.047 A 
ATOM     34  C   UNL     1      -1.345   1.483  -0.385  0.00  0.00    +0.032 A 
BRANCH  32  35
ATOM     35  O   UNL     1      -0.902   4.556   1.511  0.00  0.00    -0.495 OA
ATOM     36  C   UNL     1      -0.239   5.806   1.311  0.00  0.00    +0.277 C 
ENDBRANCH  32  35
ENDBRANCH  26  29
ENDBRANCH  23  26
ENDBRANCH  19  20
ENDBRANCH   6  19
TORSDOF 8
