REMARK  Name = ZINC66794047
REMARK  6 active torsions:
REMARK  status: ('A' for Active; 'I' for Inactive)
REMARK    1  A    between atoms: C_5  and  C_7
REMARK    2  A    between atoms: N_10  and  C_14
REMARK    3  A    between atoms: C_14  and  N_15
REMARK    4  A    between atoms: C_16  and  C_22
REMARK    5  A    between atoms: C_22  and  C_23
REMARK    6  A    between atoms: C_23  and  C_24
REMARK                            x       y       z     vdW  Elec       q    Type
REMARK                         _______ _______ _______ _____ _____    ______ ____
ROOT
ATOM      1  C   UNL     1       1.451  -4.682  -2.835  0.00  0.00    +0.213 C 
ENDROOT
BRANCH   1   2
ATOM      2  N   UNL     1       1.977  -6.048  -2.771  0.00  0.00    -0.293 N 
ATOM      3  C   UNL     1       3.304  -6.399  -2.758  0.00  0.00    +0.133 A 
ATOM      4  N   UNL     1       3.395  -7.688  -2.696  0.00  0.00    -0.159 NA
ATOM      5  N   UNL     1       2.097  -8.216  -2.667  0.00  0.00    -0.254 N 
ATOM      6  H   UNL     1       1.859  -9.155  -2.622  0.00  0.00    +0.191 HD
ATOM      7  C   UNL     1       1.240  -7.175  -2.709  0.00  0.00    +0.177 A 
ATOM      8  S   UNL     1      -0.470  -7.268  -2.691  0.00  0.00    -0.011 S 
BRANCH   3   9
ATOM      9  C   UNL     1       4.465  -5.439  -2.807  0.00  0.00    +0.076 C 
BRANCH   9  10
ATOM     10  C   UNL     1       5.778  -6.225  -2.773  0.00  0.00    +0.011 C 
BRANCH  10  11
ATOM     11  C   UNL     1       6.957  -5.251  -2.823  0.00  0.00    -0.011 C 
ATOM     12  C   UNL     1       7.011  -4.558  -4.201  0.00  0.00    +0.003 C 
ATOM     13  C   UNL     1       8.525  -4.434  -4.504  0.00  0.00    +0.000 C 
ATOM     14  C   UNL     1       9.095  -5.764  -3.950  0.00  0.00    +0.000 C 
ATOM     15  C   UNL     1       8.281  -6.017  -2.664  0.00  0.00    +0.003 C 
ENDBRANCH  10  11
ENDBRANCH   9  10
ENDBRANCH   3   9
ENDBRANCH   1   2
BRANCH   1  18
ATOM     16  C   UNL     1       1.228  -2.186  -0.022  0.00  0.00    +0.165 C 
ATOM     17  C   UNL     1       1.345  -2.688  -1.464  0.00  0.00    +0.122 C 
ATOM     18  N   UNL     1       1.286  -4.156  -1.473  0.00  0.00    -0.280 NA
ATOM     19  C   UNL     1       0.030  -4.631  -0.874  0.00  0.00    +0.114 C 
ATOM     20  C   UNL     1      -0.073  -4.111   0.562  0.00  0.00    +0.176 C 
ATOM     21  O   UNL     1       0.018  -2.683   0.555  0.00  0.00    -0.369 OA
BRANCH  16  26
ATOM     22  C   UNL     1      -0.017   1.378   0.010  0.00  0.00    +0.001 A 
ATOM     23  C   UNL     1       1.171   2.087   0.002  0.00  0.00    +0.003 A 
ATOM     24  C   UNL     1       2.377   1.414  -0.013  0.00  0.00    +0.039 A 
ATOM     25  C   UNL     1       2.397   0.029  -0.021  0.00  0.00    +0.129 A 
ATOM     26  C   UNL     1       1.208  -0.679  -0.013  0.00  0.00    +0.018 A 
ATOM     27  C   UNL     1       0.002  -0.004   0.002  0.00  0.00    +0.009 A 
ATOM     28  F   UNL     1       3.577  -0.630  -0.036  0.00  0.00    -0.205 F 
ENDBRANCH  16  26
ENDBRANCH   1  18
TORSDOF 6
