REMARK  Name = ZINC08695749
REMARK  11 active torsions:
REMARK  status: ('A' for Active; 'I' for Inactive)
REMARK    1  A    between atoms: C_1  and  N_2
REMARK    2  A    between atoms: N_2  and  C_3
REMARK    3  A    between atoms: N_2  and  C_4
REMARK    4  A    between atoms: C_7  and  N_10
REMARK    5  A    between atoms: C_11  and  C_13
REMARK    6  A    between atoms: C_13  and  C_15
REMARK    7  A    between atoms: C_13  and  N_22
REMARK    8  A    between atoms: N_22  and  C_23
REMARK    9  A    between atoms: C_23  and  C_24
REMARK   10  A    between atoms: C_30  and  C_32
REMARK   11  A    between atoms: C_32  and  N_33
REMARK                            x       y       z     vdW  Elec       q    Type
REMARK                         _______ _______ _______ _____ _____    ______ ____
ROOT
ATOM      1  N   UNL     1       2.383  -3.448   0.820  0.00  0.00    -0.284 N 
ATOM      2  C   UNL     1       3.230  -4.189   0.078  0.00  0.00    +0.234 C 
ATOM      3  O   UNL     1       3.164  -4.156  -1.133  0.00  0.00    -0.274 OA
ENDROOT
BRANCH   1   4
ATOM      4  C   UNL     1       1.316  -2.684   0.169  0.00  0.00    +0.166 C 
BRANCH   4   5
ATOM      5  C   UNL     1       1.389  -1.223   0.617  0.00  0.00    +0.023 C 
ATOM      6  C   UNL     1       0.315  -0.405  -0.112  0.00  0.00    +0.010 C 
ATOM      7  C   UNL     1       0.292   1.004   0.483  0.00  0.00    +0.027 C 
ATOM      8  C   UNL     1       1.684   1.562   0.544  0.00  0.00    -0.031 C 
ATOM      9  C   UNL     1       2.757   0.845   0.453  0.00  0.00    -0.031 C 
ATOM     10  C   UNL     1       2.760  -0.644   0.264  0.00  0.00    +0.032 C 
ENDBRANCH   4   5
BRANCH   4  12
ATOM     11  N   UNL     1      -1.088  -3.087  -0.253  0.00  0.00    -0.284 N 
ATOM     12  C   UNL     1      -0.022  -3.261   0.553  0.00  0.00    +0.238 C 
ATOM     13  O   UNL     1      -0.140  -3.883   1.588  0.00  0.00    -0.273 OA
ATOM     14  H   UNL     1      -1.005  -2.551  -1.058  0.00  0.00    +0.155 HD
BRANCH  11  18
ATOM     15  C   UNL     1      -4.742  -4.852   0.710  0.00  0.00    +0.029 A 
ATOM     16  C   UNL     1      -4.422  -4.598  -0.617  0.00  0.00    +0.025 A 
ATOM     17  C   UNL     1      -3.212  -4.014  -0.936  0.00  0.00    +0.025 A 
ATOM     18  C   UNL     1      -2.316  -3.680   0.071  0.00  0.00    +0.034 A 
ATOM     19  C   UNL     1      -2.633  -3.939   1.397  0.00  0.00    +0.025 A 
ATOM     20  C   UNL     1      -3.845  -4.518   1.717  0.00  0.00    +0.025 A 
BRANCH  15  22
ATOM     21  C   UNL     1      -6.843  -5.943  -0.030  0.00  0.00    +0.129 C 
ATOM     22  N   UNL     1      -5.967  -5.445   1.034  0.00  0.00    -0.336 N 
ATOM     23  C   UNL     1      -6.374  -5.567   2.436  0.00  0.00    +0.129 C 
ENDBRANCH  15  22
ENDBRANCH  11  18
ENDBRANCH   4  12
ENDBRANCH   1   4
BRANCH   1  24
ATOM     24  C   UNL     1       2.529  -3.408   2.277  0.00  0.00    +0.143 C 
BRANCH  24  25
ATOM     25  C   UNL     1       3.338  -2.198   2.667  0.00  0.00    -0.030 A 
ATOM     26  C   UNL     1       4.709  -2.198   2.492  0.00  0.00    +0.005 A 
ATOM     27  C   UNL     1       5.452  -1.087   2.845  0.00  0.00    +0.000 A 
ATOM     28  C   UNL     1       4.824   0.021   3.384  0.00  0.00    +0.000 A 
ATOM     29  C   UNL     1       3.453   0.019   3.565  0.00  0.00    +0.000 A 
ATOM     30  C   UNL     1       2.711  -1.091   3.206  0.00  0.00    +0.005 A 
ENDBRANCH  24  25
ENDBRANCH   1  24
BRANCH   2  31
ATOM     31  C   UNL     1       4.261  -5.057   0.753  0.00  0.00    +0.210 C 
BRANCH  31  32
ATOM     32  N   UNL     1       5.101  -5.697  -0.263  0.00  0.00    -0.255 N 
ATOM     33  C   UNL     1       4.827  -6.934  -0.841  0.00  0.00    +0.048 A 
ATOM     34  C   UNL     1       3.777  -7.824  -0.653  0.00  0.00    +0.024 A 
ATOM     35  C   UNL     1       3.730  -9.005  -1.369  0.00  0.00    +0.002 A 
ATOM     36  C   UNL     1       4.721  -9.317  -2.284  0.00  0.00    +0.001 A 
ATOM     37  C   UNL     1       5.771  -8.445  -2.492  0.00  0.00    +0.014 A 
ATOM     38  C   UNL     1       5.827  -7.250  -1.775  0.00  0.00    +0.048 A 
ATOM     39  C   UNL     1       6.787  -6.130  -1.760  0.00  0.00    +0.250 C 
ATOM     40  O   UNL     1       7.798  -6.013  -2.419  0.00  0.00    -0.282 OA
ATOM     41  C   UNL     1       6.236  -5.167  -0.750  0.00  0.00    +0.292 C 
ATOM     42  O   UNL     1       6.726  -4.104  -0.431  0.00  0.00    -0.266 OA
ENDBRANCH  31  32
ENDBRANCH   2  31
TORSDOF 9
