REMARK  Name = ZINC66875623
REMARK  12 active torsions:
REMARK  status: ('A' for Active; 'I' for Inactive)
REMARK    1  A    between atoms: C_1  and  C_2
REMARK    2  A    between atoms: C_2  and  C_3
REMARK    3  A    between atoms: C_2  and  C_4
REMARK    4  A    between atoms: C_4  and  C_6
REMARK    5  A    between atoms: C_4  and  N_13
REMARK    6  A    between atoms: N_8  and  C_9
REMARK    7  A    between atoms: C_9  and  C_10
REMARK    8  A    between atoms: C_9  and  C_11
REMARK    9  A    between atoms: C_9  and  C_12
REMARK   10  A    between atoms: C_16  and  N_19
REMARK   11  A    between atoms: C_20  and  C_22
REMARK   12  A    between atoms: C_22  and  C_23
REMARK                            x       y       z     vdW  Elec       q    Type
REMARK                         _______ _______ _______ _____ _____    ______ ____
ROOT
ATOM      1  N   UNL     1      -0.659  -0.349  -2.718  0.00  0.00    +0.388 N 
ATOM      2  C   UNL     1      -0.885   1.092  -2.887  0.00  0.00    -0.076 C 
ATOM      3  C   UNL     1      -2.011   1.319  -3.898  0.00  0.00    +0.004 C 
ATOM      4  C   UNL     1      -1.615   0.702  -5.243  0.00  0.00    +0.069 C 
ATOM      5  C   UNL     1      -1.309  -0.784  -5.040  0.00  0.00    +0.004 C 
ATOM      6  C   UNL     1      -0.209  -0.934  -3.987  0.00  0.00    -0.076 C 
ATOM      7  H   UNL     1      -1.519  -0.791  -2.431  0.00  0.00    -0.081 HD
ENDROOT
BRANCH   4   8
ATOM      8  N   UNL     1      -2.720   0.850  -6.194  0.00  0.00    -0.313 N 
ATOM      9  C   UNL     1      -2.471   0.862  -7.519  0.00  0.00    +0.213 C 
ATOM     10  O   UNL     1      -1.333   0.750  -7.923  0.00  0.00    -0.276 OA
ATOM     11  H   UNL     1      -3.630   0.939  -5.870  0.00  0.00    +0.149 HD
BRANCH   9  12
ATOM     12  C   UNL     1      -3.607   1.014  -8.497  0.00  0.00    +0.099 C 
BRANCH  12  13
ATOM     13  C   UNL     1      -3.057   0.996  -9.924  0.00  0.00    -0.002 C 
ATOM     14  C   UNL     1      -2.215   2.263 -10.182  0.00  0.00    +0.004 C 
ATOM     15  C   UNL     1      -2.528   2.634 -11.653  0.00  0.00    +0.000 C 
ATOM     16  C   UNL     1      -4.038   2.308 -11.774  0.00  0.00    +0.000 C 
ATOM     17  C   UNL     1      -4.215   1.024 -10.937  0.00  0.00    +0.004 C 
ENDBRANCH  12  13
ENDBRANCH   9  12
ENDBRANCH   4   8
BRANCH   1  18
ATOM     18  C   UNL     1       0.368  -0.564  -1.690  0.00  0.00    +0.022 C 
BRANCH  18  19
ATOM     19  C   UNL     1       1.617   0.195  -2.061  0.00  0.00    +0.200 C 
ATOM     20  O   UNL     1       1.782   0.570  -3.202  0.00  0.00    -0.278 OA
ATOM     21  N   UNL     1       2.550   0.456  -1.124  0.00  0.00    -0.312 N 
ATOM     22  H   UNL     1       2.417   0.156  -0.211  0.00  0.00    +0.149 HD
BRANCH  21  23
ATOM     23  C   UNL     1       3.763   1.193  -1.484  0.00  0.00    +0.026 C 
ATOM     24  C   UNL     1       3.381   2.574  -2.020  0.00  0.00    +0.031 C 
ATOM     25  C   UNL     1       4.649   1.353  -0.246  0.00  0.00    +0.031 C 
ATOM     26  C   UNL     1       4.528   0.422  -2.562  0.00  0.00    +0.031 C 
ENDBRANCH  21  23
ENDBRANCH  18  19
BRANCH  18  28
ATOM     27  C   UNL     1      -0.594  -2.867  -1.793  0.00  0.00    +0.006 C 
ATOM     28  C   UNL     1       0.688  -2.057  -1.594  0.00  0.00    -0.022 C 
ATOM     29  C   UNL     1       1.703  -2.432  -2.676  0.00  0.00    +0.006 C 
ENDBRANCH  18  28
ENDBRANCH   1  18
TORSDOF 7
