REMARK  Name = ZINC66597898
REMARK  9 active torsions:
REMARK  status: ('A' for Active; 'I' for Inactive)
REMARK    1  A    between atoms: C_1  and  C_2
REMARK    2  A    between atoms: C_2  and  C_4
REMARK    3  A    between atoms: C_2  and  N_15
REMARK    4  A    between atoms: C_7  and  S_10
REMARK    5  A    between atoms: S_10  and  N_13
REMARK    6  A    between atoms: N_13  and  C_14
REMARK    7  A    between atoms: N_18  and  C_19
REMARK    8  A    between atoms: C_19  and  C_20
REMARK    9  A    between atoms: C_20  and  C_25
REMARK                            x       y       z     vdW  Elec       q    Type
REMARK                         _______ _______ _______ _____ _____    ______ ____
ROOT
ATOM      1  C   UNL     1      -0.019   1.526   0.010  0.00  0.00    +0.033 C 
ATOM      2  C   UNL     1       0.002  -0.004   0.002  0.00  0.00    +0.102 C 
ENDROOT
BRANCH   2   3
ATOM      3  C   UNL     1      -1.412  -0.526   0.013  0.00  0.00    -0.027 A 
ATOM      4  C   UNL     1      -2.123  -0.571   1.197  0.00  0.00    +0.007 A 
ATOM      5  C   UNL     1      -3.420  -1.049   1.207  0.00  0.00    +0.029 A 
ATOM      6  C   UNL     1      -4.006  -1.482   0.032  0.00  0.00    +0.105 A 
ATOM      7  C   UNL     1      -3.295  -1.436  -1.153  0.00  0.00    +0.029 A 
ATOM      8  C   UNL     1      -2.000  -0.954  -1.163  0.00  0.00    +0.007 A 
BRANCH   6   9
ATOM      9  S   UNL     1      -5.658  -2.093   0.045  0.00  0.00    +0.058 S 
ATOM     10  O   UNL     1      -5.785  -2.944  -1.086  0.00  0.00    -0.153 OA
ATOM     11  O   UNL     1      -5.915  -2.542   1.369  0.00  0.00    -0.153 OA
BRANCH   9  12
ATOM     12  N   UNL     1      -6.660  -0.801  -0.219  0.00  0.00    -0.193 NA
ATOM     13  C   UNL     1      -6.617  -0.091  -1.500  0.00  0.00    +0.127 C 
ATOM     14  H   UNL     1      -7.275  -0.515   0.474  0.00  0.00    +0.148 HD
ENDBRANCH   9  12
ENDBRANCH   6   9
ENDBRANCH   2   3
BRANCH   2  15
ATOM     15  N   UNL     1       0.711  -0.489   1.189  0.00  0.00    -0.293 N 
ATOM     16  C   UNL     1       2.054  -0.600   1.174  0.00  0.00    +0.300 C 
ATOM     17  O   UNL     1       2.677  -0.297   0.175  0.00  0.00    -0.253 OA
ATOM     18  N   UNL     1       2.706  -1.046   2.266  0.00  0.00    -0.299 N 
ATOM     19  H   UNL     1       0.213  -0.731   1.986  0.00  0.00    +0.151 HD
ATOM     20  H   UNL     1       2.208  -1.288   3.062  0.00  0.00    +0.150 HD
BRANCH  18  21
ATOM     21  C   UNL     1       4.166  -1.166   2.249  0.00  0.00    +0.112 C 
BRANCH  21  22
ATOM     22  C   UNL     1       4.649  -1.692   3.602  0.00  0.00    -0.016 C 
ATOM     23  C   UNL     1       4.295  -0.686   4.717  0.00  0.00    +0.008 C 
ATOM     24  C   UNL     1       5.507  -0.744   5.680  0.00  0.00    +0.001 C 
ATOM     25  C   UNL     1       6.707  -0.892   4.712  0.00  0.00    +0.001 C 
ATOM     26  C   UNL     1       6.183  -1.823   3.599  0.00  0.00    +0.008 C 
ATOM     27  C   UNL     1       4.008  -3.049   3.897  0.00  0.00    +0.013 C 
ENDBRANCH  21  22
ENDBRANCH  18  21
ENDBRANCH   2  15
TORSDOF 6
