REMARK  Name = ZINC06173231
REMARK  10 active torsions:
REMARK  status: ('A' for Active; 'I' for Inactive)
REMARK    1  A    between atoms: C_1  and  C_2
REMARK    2  A    between atoms: C_2  and  N_48
REMARK    3  A    between atoms: C_3  and  C_4
REMARK    4  A    between atoms: C_3  and  N_48
REMARK    5  A    between atoms: C_5  and  N_6
REMARK    6  A    between atoms: C_5  and  N_48
REMARK    7  A    between atoms: C_13  and  N_16
REMARK    8  A    between atoms: C_14  and  O_15
REMARK    9  A    between atoms: N_17  and  C_18
REMARK   10  A    between atoms: C_18  and  C_20
REMARK                            x       y       z     vdW  Elec       q    Type
REMARK                         _______ _______ _______ _____ _____    ______ ____
ROOT
ATOM      1  N   UNL     1      -2.251   4.098   0.052  0.00  0.00    -0.327 N 
ATOM      2  C   UNL     1      -1.173   3.228   0.047  0.00  0.00    +0.052 A 
ATOM      3  C   UNL     1      -1.081   1.841   0.051  0.00  0.00    +0.026 A 
ATOM      4  C   UNL     1       0.156   1.232   0.048  0.00  0.00    +0.002 A 
ATOM      5  C   UNL     1       1.316   1.990   0.030  0.00  0.00    +0.001 A 
ATOM      6  C   UNL     1       1.245   3.368   0.021  0.00  0.00    +0.012 A 
ATOM      7  C   UNL     1       0.002   3.994   0.029  0.00  0.00    +0.031 A 
ATOM      8  C   UNL     1      -0.428   5.407   0.023  0.00  0.00    +0.152 A 
ATOM      9  C   UNL     1      -1.828   5.385   0.038  0.00  0.00    +0.220 A 
ENDROOT
BRANCH   9  10
ATOM     10  O   UNL     1      -2.627   6.471   0.038  0.00  0.00    -0.492 OA
ATOM     11  H   UNL     1      -2.870   6.782  -0.845  0.00  0.00    +0.294 HD
ENDBRANCH   9  10
BRANCH   8  12
ATOM     12  N   UNL     1       0.358   6.486   0.007  0.00  0.00    -0.151 NA
ATOM     13  N   UNL     1      -0.165   7.665   0.004  0.00  0.00    -0.075 NA
BRANCH  13  14
ATOM     14  C   UNL     1       0.628   8.755  -0.012  0.00  0.00    +0.286 C 
ATOM     15  O   UNL     1       1.839   8.626  -0.024  0.00  0.00    -0.267 OA
BRANCH  14  16
ATOM     16  C   UNL     1       0.029  10.107  -0.016  0.00  0.00    +0.054 A 
ATOM     17  C   UNL     1      -1.359  10.258  -0.009  0.00  0.00    +0.014 A 
ATOM     18  C   UNL     1      -1.912  11.521  -0.008  0.00  0.00    +0.001 A 
ATOM     19  C   UNL     1      -1.095  12.639  -0.025  0.00  0.00    +0.001 A 
ATOM     20  C   UNL     1       0.281  12.497  -0.037  0.00  0.00    +0.016 A 
ATOM     21  C   UNL     1       0.848  11.238  -0.033  0.00  0.00    +0.030 A 
ATOM     22 BR   UNL     1       2.729  11.046  -0.051  0.00  0.00    -0.050 Br
ENDBRANCH  14  16
ENDBRANCH  13  14
ENDBRANCH   8  12
BRANCH   1  23
ATOM     23  C   UNL     1      -3.656   3.684   0.070  0.00  0.00    +0.050 C 
BRANCH  23  24
ATOM     24  N   UNL     1      -4.182   3.729  -1.310  0.00  0.00    +0.391 N 
ATOM     25  H   UNL     1      -3.868   4.598  -1.758  0.00  0.00    -0.079 HD
BRANCH  24  27
ATOM     26  C   UNL     1      -4.191   1.264  -1.499  0.00  0.00    -0.017 C 
ATOM     27  C   UNL     1      -3.669   2.578  -2.083  0.00  0.00    -0.080 C 
ENDBRANCH  24  27
BRANCH  24  28
ATOM     28  C   UNL     1      -5.660   3.705  -1.290  0.00  0.00    -0.080 C 
ATOM     29  C   UNL     1      -6.177   4.099  -2.674  0.00  0.00    -0.017 C 
ENDBRANCH  24  28
ENDBRANCH  23  24
ENDBRANCH   1  23
TORSDOF 8
