REMARK  Name = ZINC32504571
REMARK  6 active torsions:
REMARK  status: ('A' for Active; 'I' for Inactive)
REMARK    1  A    between atoms: C_1  and  C_2
REMARK    2  A    between atoms: C_5  and  C_8
REMARK    3  A    between atoms: C_8  and  C_9
REMARK    4  A    between atoms: C_9  and  N_11
REMARK    5  A    between atoms: N_13  and  C_24
REMARK    6  A    between atoms: C_27  and  C_30
REMARK                            x       y       z     vdW  Elec       q    Type
REMARK                         _______ _______ _______ _____ _____    ______ ____
ROOT
ATOM      1  N   UNL     1       1.759  -5.961   0.208  0.00  0.00    -0.159 NA
ATOM      2  C   UNL     1       2.974  -6.440  -0.033  0.00  0.00    +0.154 C 
ATOM      3  N   UNL     1       4.159  -5.709  -0.162  0.00  0.00    -0.276 N 
ATOM      4  C   UNL     1       5.265  -6.469   0.338  0.00  0.00    +0.116 C 
ATOM      5  C   UNL     1       6.724  -6.052   0.312  0.00  0.00    +0.190 C 
ATOM      6  S   UNL     1       7.452  -7.664   0.880  0.00  0.00    -0.028 S 
ATOM      7  O   UNL     1       7.554  -7.654   2.297  0.00  0.00    -0.174 OA
ATOM      8  O   UNL     1       8.602  -7.954   0.097  0.00  0.00    -0.174 OA
ATOM      9  C   UNL     1       6.077  -8.799   0.381  0.00  0.00    +0.182 C 
ATOM     10  C   UNL     1       5.211  -7.834  -0.451  0.00  0.00    +0.097 C 
ATOM     11  S   UNL     1       3.409  -8.065  -0.242  0.00  0.00    -0.086 S 
ENDROOT
BRANCH   3  12
ATOM     12  C   UNL     1       4.251  -4.422  -0.701  0.00  0.00    +0.036 A 
ATOM     13  C   UNL     1       4.718  -3.372   0.080  0.00  0.00    +0.024 A 
ATOM     14  C   UNL     1       4.808  -2.102  -0.456  0.00  0.00    +0.005 A 
ATOM     15  C   UNL     1       4.434  -1.875  -1.767  0.00  0.00    -0.050 A 
ATOM     16  C   UNL     1       3.968  -2.918  -2.547  0.00  0.00    +0.005 A 
ATOM     17  C   UNL     1       3.881  -4.191  -2.019  0.00  0.00    +0.024 A 
ATOM     18  C   UNL     1       4.533  -0.488  -2.348  0.00  0.00    +0.044 C 
ENDBRANCH   3  12
BRANCH   1  19
ATOM     19  C   UNL     1       1.595  -4.669   0.480  0.00  0.00    +0.243 C 
ATOM     20  O   UNL     1       2.184  -4.165   1.417  0.00  0.00    -0.273 OA
BRANCH  19  21
ATOM     21  C   UNL     1       0.681  -3.829  -0.374  0.00  0.00    +0.133 C 
BRANCH  21  26
ATOM     22  C   UNL     1       0.646   1.603   1.598  0.00  0.00    +0.044 C 
ATOM     23  C   UNL     1       0.655   0.186   1.083  0.00  0.00    -0.050 A 
ATOM     24  C   UNL     1       1.578  -0.196   0.128  0.00  0.00    +0.003 A 
ATOM     25  C   UNL     1       1.586  -1.496  -0.344  0.00  0.00    +0.004 A 
ATOM     26  C   UNL     1       0.672  -2.413   0.140  0.00  0.00    -0.039 A 
ATOM     27  C   UNL     1      -0.250  -2.030   1.097  0.00  0.00    +0.004 A 
ATOM     28  C   UNL     1      -0.256  -0.732   1.571  0.00  0.00    +0.003 A 
ENDBRANCH  21  26
ENDBRANCH  19  21
ENDBRANCH   1  19
TORSDOF 4
