REMARK  Name = ZINC09792402
REMARK  4 active torsions:
REMARK  status: ('A' for Active; 'I' for Inactive)
REMARK    1  A    between atoms: C_1  and  C_2
REMARK    2  A    between atoms: C_2  and  C_22
REMARK    3  A    between atoms: N_5  and  C_9
REMARK    4  A    between atoms: C_9  and  C_10
REMARK                            x       y       z     vdW  Elec       q    Type
REMARK                         _______ _______ _______ _____ _____    ______ ____
ROOT
ATOM      1  C   UNL     1       4.041   5.902   4.215  0.00  0.00    +0.047 C 
ATOM      2  C   UNL     1       2.516   5.914   4.093  0.00  0.00    +0.135 C 
ATOM      3  C   UNL     1       1.994   4.549   3.690  0.00  0.00    +0.251 C 
ATOM      4  O   UNL     1       2.106   3.512   4.307  0.00  0.00    -0.272 OA
ATOM      5  N   UNL     1       1.383   4.729   2.502  0.00  0.00    -0.215 N 
ATOM      6  C   UNL     1       1.439   6.006   2.107  0.00  0.00    +0.310 C 
ATOM      7  O   UNL     1       0.954   6.414   1.069  0.00  0.00    -0.252 OA
ATOM      8  N   UNL     1       2.092   6.788   2.985  0.00  0.00    -0.281 N 
ATOM      9  H   UNL     1       2.252   7.741   2.905  0.00  0.00    +0.152 HD
ENDROOT
BRANCH   2  10
ATOM     10  C   UNL     1       1.885   6.357   5.388  0.00  0.00    -0.012 A 
ATOM     11  C   UNL     1       1.584   5.423   6.362  0.00  0.00    +0.010 A 
ATOM     12  C   UNL     1       1.006   5.822   7.554  0.00  0.00    +0.050 A 
ATOM     13  C   UNL     1       0.729   7.162   7.769  0.00  0.00    +0.162 A 
ATOM     14  C   UNL     1       1.031   8.099   6.791  0.00  0.00    +0.162 A 
ATOM     15  C   UNL     1       1.615   7.697   5.601  0.00  0.00    +0.055 A 
ATOM     16  O   UNL     1       0.755   9.417   7.012  0.00  0.00    -0.488 OA
ATOM     17  C   UNL     1      -0.630   9.764   7.066  0.00  0.00    +0.232 C 
ATOM     18  C   UNL     1      -1.192   9.527   8.459  0.00  0.00    +0.082 C 
ATOM     19  C   UNL     1      -1.180   8.057   8.847  0.00  0.00    +0.232 C 
ATOM     20  O   UNL     1       0.160   7.568   8.940  0.00  0.00    -0.488 OA
ENDBRANCH   2  10
BRANCH   5  21
ATOM     21  C   UNL     1       0.733   3.659   1.741  0.00  0.00    +0.213 C 
BRANCH  21  22
ATOM     22  C   UNL     1       1.732   3.030   0.805  0.00  0.00    +0.234 C 
ATOM     23  O   UNL     1       2.875   3.434   0.777  0.00  0.00    -0.274 OA
ATOM     24  N   UNL     1       1.356   2.017  -0.000  0.00  0.00    -0.296 N 
ATOM     25  C   UNL     1       2.308   1.380  -0.926  0.00  0.00    +0.113 C 
ATOM     26  C   UNL     1       2.485  -0.073  -0.490  0.00  0.00    +0.054 C 
ATOM     27  C   UNL     1       1.151  -0.724  -0.236  0.00  0.00    -0.041 A 
ATOM     28  C   UNL     1       1.100  -2.113  -0.243  0.00  0.00    +0.004 A 
ATOM     29  C   UNL     1      -0.087  -2.772  -0.005  0.00  0.00    +0.000 A 
ATOM     30  C   UNL     1      -1.239  -2.048   0.242  0.00  0.00    +0.000 A 
ATOM     31  C   UNL     1      -1.192  -0.669   0.244  0.00  0.00    +0.005 A 
ATOM     32  C   UNL     1       0.002  -0.004   0.002  0.00  0.00    -0.027 A 
ATOM     33  C   UNL     1      -0.018   1.504   0.010  0.00  0.00    +0.143 C 
ENDBRANCH  21  22
ENDBRANCH   5  21
TORSDOF 3
