REMARK  Name = ZINC33014761
REMARK  11 active torsions:
REMARK  status: ('A' for Active; 'I' for Inactive)
REMARK    1  A    between atoms: C_1  and  C_2
REMARK    2  A    between atoms: C_2  and  O_3
REMARK    3  A    between atoms: O_3  and  C_4
REMARK    4  A    between atoms: C_7  and  S_10
REMARK    5  A    between atoms: S_10  and  N_13
REMARK    6  A    between atoms: N_13  and  N_14
REMARK    7  A    between atoms: N_14  and  C_15
REMARK    8  A    between atoms: N_25  and  C_28
REMARK    9  A    between atoms: C_28  and  C_29
REMARK   10  A    between atoms: C_32  and  O_35
REMARK   11  A    between atoms: O_35  and  C_36
REMARK                            x       y       z     vdW  Elec       q    Type
REMARK                         _______ _______ _______ _____ _____    ______ ____
ROOT
ATOM      1  C   UNL     1      -5.012   2.446  -3.936  0.00  0.00    +0.099 C 
ATOM      2  C   UNL     1      -4.067   3.350  -3.503  0.00  0.00    +0.060 C 
ATOM      3  C   UNL     1      -3.684   4.508  -4.338  0.00  0.00    +0.000 A 
ATOM      4  C   UNL     1      -4.256   4.732  -5.585  0.00  0.00    +0.009 A 
ATOM      5  C   UNL     1      -3.865   5.828  -6.327  0.00  0.00    +0.001 A 
ATOM      6  C   UNL     1      -2.907   6.704  -5.838  0.00  0.00    +0.001 A 
ATOM      7  C   UNL     1      -2.328   6.498  -4.604  0.00  0.00    +0.013 A 
ATOM      8  C   UNL     1      -2.710   5.397  -3.838  0.00  0.00    +0.045 A 
ATOM      9  C   UNL     1      -2.123   5.144  -2.516  0.00  0.00    +0.254 C 
ATOM     10  O   UNL     1      -1.286   5.910  -2.076  0.00  0.00    -0.270 OA
ATOM     11  N   UNL     1      -2.491   4.079  -1.785  0.00  0.00    -0.230 N 
ATOM     12  C   UNL     1      -3.411   3.193  -2.200  0.00  0.00    +0.255 C 
ATOM     13  O   UNL     1      -3.704   2.250  -1.488  0.00  0.00    -0.269 OA
ENDROOT
BRANCH   1  14
ATOM     14  N   UNL     1      -5.980   2.837  -4.805  0.00  0.00    -0.268 N 
ATOM     15  H   UNL     1      -6.082   3.900  -5.072  0.00  0.00    +0.167 HD
BRANCH  14  16
ATOM     16  N   UNL     1      -6.848   1.889  -5.360  0.00  0.00    -0.110 NA
ATOM     17  H   UNL     1      -6.489   1.121  -5.833  0.00  0.00    +0.171 HD
BRANCH  16  18
ATOM     18  S   UNL     1      -8.486   2.078  -5.211  0.00  0.00    +0.073 S 
ATOM     19  O   UNL     1      -9.086   1.051  -5.990  0.00  0.00    -0.152 OA
ATOM     20  O   UNL     1      -8.752   2.236  -3.824  0.00  0.00    -0.152 OA
BRANCH  18  24
ATOM     21  C   UNL     1      -9.567   6.004  -7.192  0.00  0.00    +0.121 A 
ATOM     22  C   UNL     1      -9.562   4.831  -7.932  0.00  0.00    +0.047 A 
ATOM     23  C   UNL     1      -9.232   3.634  -7.325  0.00  0.00    +0.032 A 
ATOM     24  C   UNL     1      -8.907   3.605  -5.982  0.00  0.00    +0.107 A 
ATOM     25  C   UNL     1      -8.916   4.773  -5.240  0.00  0.00    +0.032 A 
ATOM     26  C   UNL     1      -9.240   5.973  -5.844  0.00  0.00    +0.047 A 
BRANCH  21  27
ATOM     27  O   UNL     1      -9.891   7.182  -7.786  0.00  0.00    -0.492 OA
BRANCH  27  29
ATOM     28  C   UNL     1     -10.264   9.570  -7.801  0.00  0.00    +0.048 C 
ATOM     29  C   UNL     1      -9.875   8.350  -6.963  0.00  0.00    +0.225 C 
ENDBRANCH  27  29
ENDBRANCH  21  27
ENDBRANCH  18  24
ENDBRANCH  16  18
ENDBRANCH  14  16
ENDBRANCH   1  14
BRANCH  11  30
ATOM     30  C   UNL     1      -1.865   3.877  -0.476  0.00  0.00    +0.152 C 
BRANCH  30  31
ATOM     31  C   UNL     1      -0.628   3.031  -0.635  0.00  0.00    -0.029 A 
ATOM     32  C   UNL     1      -0.719   1.654  -0.552  0.00  0.00    +0.009 A 
ATOM     33  C   UNL     1       0.414   0.876  -0.692  0.00  0.00    +0.046 A 
ATOM     34  C   UNL     1       1.642   1.477  -0.928  0.00  0.00    +0.120 A 
ATOM     35  C   UNL     1       1.729   2.859  -1.016  0.00  0.00    +0.046 A 
ATOM     36  C   UNL     1       0.594   3.633  -0.870  0.00  0.00    +0.009 A 
BRANCH  34  37
ATOM     37  O   UNL     1       2.757   0.714  -1.072  0.00  0.00    -0.495 OA
ATOM     38  C   UNL     1       3.986   1.401  -1.313  0.00  0.00    +0.277 C 
ENDBRANCH  34  37
ENDBRANCH  30  31
ENDBRANCH  11  30
TORSDOF 9
