REMARK  Name = ZINC12805556
REMARK  7 active torsions:
REMARK  status: ('A' for Active; 'I' for Inactive)
REMARK    1  A    between atoms: C_1  and  C_2
REMARK    2  A    between atoms: C_2  and  N_3
REMARK    3  A    between atoms: N_3  and  C_4
REMARK    4  A    between atoms: C_9  and  C_10
REMARK    5  A    between atoms: C_11  and  C_13
REMARK    6  A    between atoms: C_13  and  N_14
REMARK    7  A    between atoms: C_22  and  C_24
REMARK                            x       y       z     vdW  Elec       q    Type
REMARK                         _______ _______ _______ _____ _____    ______ ____
ROOT
ATOM      1  N   UNL     1      -2.159  -0.833   3.607  0.00  0.00    -0.282 NA
ATOM      2  C   UNL     1      -3.328   0.057   3.642  0.00  0.00    +0.091 C 
ATOM      3  C   UNL     1      -4.404  -0.572   4.544  0.00  0.00    +0.058 C 
ATOM      4  C   UNL     1      -3.735  -1.027   5.800  0.00  0.00    -0.004 A 
ATOM      5  C   UNL     1      -2.394  -1.158   6.006  0.00  0.00    -0.015 A 
ATOM      6  C   UNL     1      -1.999  -1.599   7.267  0.00  0.00    +0.013 A 
ATOM      7  C   UNL     1      -2.930  -1.875   8.210  0.00  0.00    +0.046 A 
ATOM      8  S   UNL     1      -4.451  -1.516   7.343  0.00  0.00    -0.101 S 
ATOM      9  C   UNL     1      -1.423  -0.827   4.878  0.00  0.00    +0.125 C 
ENDROOT
BRANCH   9  10
ATOM     10  C   UNL     1      -0.328  -1.861   4.833  0.00  0.00    +0.011 A 
ATOM     11  C   UNL     1       0.938  -1.786   5.312  0.00  0.00    +0.013 A 
ATOM     12  C   UNL     1       1.780  -2.871   5.157  0.00  0.00    +0.008 A 
ATOM     13  C   UNL     1       1.314  -3.979   4.530  0.00  0.00    +0.045 A 
ATOM     14  S   UNL     1      -0.363  -3.507   4.142  0.00  0.00    -0.100 S 
ENDBRANCH   9  10
BRANCH   1  15
ATOM     15  C   UNL     1      -1.274  -0.497   2.484  0.00  0.00    +0.181 C 
BRANCH  15  17
ATOM     16  N   UNL     1      -1.372  -0.511   0.012  0.00  0.00    -0.270 N 
ATOM     17  C   UNL     1      -1.993  -0.751   1.184  0.00  0.00    +0.234 C 
ATOM     18  O   UNL     1      -3.131  -1.171   1.193  0.00  0.00    -0.274 OA
BRANCH  16  19
ATOM     19  C   UNL     1      -2.040  -0.747  -1.194  0.00  0.00    +0.039 A 
ATOM     20  C   UNL     1      -1.961  -1.993  -1.802  0.00  0.00    +0.024 A 
ATOM     21  C   UNL     1      -2.621  -2.223  -2.993  0.00  0.00    +0.002 A 
ATOM     22  C   UNL     1      -3.361  -1.213  -3.581  0.00  0.00    +0.000 A 
ATOM     23  C   UNL     1      -3.441   0.029  -2.979  0.00  0.00    +0.005 A 
ATOM     24  C   UNL     1      -2.788   0.263  -1.784  0.00  0.00    -0.029 A 
ATOM     25  C   UNL     1      -2.882   1.616  -1.126  0.00  0.00    +0.045 C 
ENDBRANCH  16  19
BRANCH  16  27
ATOM     26  C   UNL     1      -0.019   1.526   0.010  0.00  0.00    +0.025 C 
ATOM     27  C   UNL     1       0.002  -0.004   0.002  0.00  0.00    +0.110 C 
ENDBRANCH  16  27
ENDBRANCH  15  17
ENDBRANCH   1  15
TORSDOF 5
