REMARK  Name = ZINC40827517
REMARK  5 active torsions:
REMARK  status: ('A' for Active; 'I' for Inactive)
REMARK    1  A    between atoms: C_1  and  C_2
REMARK    2  A    between atoms: C_2  and  C_3
REMARK    3  A    between atoms: C_3  and  N_4
REMARK    4  A    between atoms: N_17  and  N_18
REMARK    5  A    between atoms: C_19  and  C_20
REMARK                            x       y       z     vdW  Elec       q    Type
REMARK                         _______ _______ _______ _____ _____    ______ ____
ROOT
ATOM      1  N   UNL     1      -1.413  -1.998   0.005  0.00  0.00    -0.323 N 
ATOM      2  C   UNL     1      -1.408  -2.783  -1.137  0.00  0.00    +0.053 A 
ATOM      3  C   UNL     1      -1.419  -2.465  -2.491  0.00  0.00    +0.027 A 
ATOM      4  C   UNL     1      -1.409  -3.468  -3.437  0.00  0.00    +0.017 A 
ATOM      5  C   UNL     1      -1.390  -4.800  -3.052  0.00  0.00    +0.019 A 
ATOM      6  C   UNL     1      -1.380  -5.136  -1.714  0.00  0.00    +0.027 A 
ATOM      7  C   UNL     1      -1.388  -4.131  -0.749  0.00  0.00    +0.030 A 
ATOM      8  C   UNL     1      -1.381  -4.139   0.724  0.00  0.00    +0.138 A 
ATOM      9  C   UNL     1      -1.392  -2.788   1.128  0.00  0.00    +0.166 A 
ATOM     10  N   UNL     1      -1.382  -2.519   2.429  0.00  0.00    -0.192 NA
ATOM     11  C   UNL     1      -1.360  -3.520   3.299  0.00  0.00    +0.256 A 
ATOM     12  N   UNL     1      -1.347  -4.786   2.894  0.00  0.00    -0.111 NA
ATOM     13  N   UNL     1      -1.363  -5.094   1.643  0.00  0.00    -0.142 NA
ATOM     14  N   UNL     1      -1.350  -3.241   4.655  0.00  0.00    -0.204 N 
ATOM     15 BR   UNL     1      -1.378  -6.161  -4.365  0.00  0.00    -0.050 Br
ATOM     16  H   UNL     1      -1.359  -2.321   4.962  0.00  0.00    +0.177 HD
ENDROOT
BRANCH  14  17
ATOM     17  N   UNL     1      -1.327  -4.288   5.586  0.00  0.00    -0.188 NA
ATOM     18  C   UNL     1      -1.317  -4.027   6.857  0.00  0.00    +0.138 C 
BRANCH  18  19
ATOM     19  C   UNL     1      -1.292  -5.129   7.836  0.00  0.00    -0.005 A 
ATOM     20  C   UNL     1      -1.273  -6.456   7.399  0.00  0.00    +0.009 A 
ATOM     21  C   UNL     1      -1.250  -7.482   8.321  0.00  0.00    +0.001 A 
ATOM     22  C   UNL     1      -1.246  -7.200   9.676  0.00  0.00    +0.000 A 
ATOM     23  C   UNL     1      -1.265  -5.888  10.116  0.00  0.00    +0.001 A 
ATOM     24  C   UNL     1      -1.282  -4.852   9.206  0.00  0.00    +0.009 A 
ENDBRANCH  18  19
ENDBRANCH  14  17
BRANCH   1  25
ATOM     25  C   UNL     1      -1.433  -0.534   0.013  0.00  0.00    +0.123 C 
BRANCH  25  27
ATOM     26  C   UNL     1      -0.019   1.526   0.010  0.00  0.00    +0.005 C 
ATOM     27  C   UNL     1       0.002  -0.004   0.002  0.00  0.00    +0.018 C 
ENDBRANCH  25  27
ENDBRANCH   1  25
TORSDOF 4
