REMARK  Name = ZINC39847192
REMARK  5 active torsions:
REMARK  status: ('A' for Active; 'I' for Inactive)
REMARK    1  A    between atoms: C_1  and  C_2
REMARK    2  A    between atoms: C_5  and  C_9
REMARK    3  A    between atoms: C_7  and  C_8
REMARK    4  A    between atoms: C_9  and  C_10
REMARK    5  A    between atoms: N_16  and  C_17
REMARK                            x       y       z     vdW  Elec       q    Type
REMARK                         _______ _______ _______ _____ _____    ______ ____
ROOT
ATOM      1  C   UNL     1       1.508  -4.767  -0.032  0.00  0.00    +0.144 C 
ATOM      2  C   UNL     1       1.575  -6.285  -0.069  0.00  0.00    +0.232 C 
ATOM      3  O   UNL     1       1.127  -6.928  -0.995  0.00  0.00    -0.274 OA
ATOM      4  N   UNL     1       2.153  -6.861   0.971  0.00  0.00    -0.264 N 
ATOM      5  C   UNL     1       2.665  -6.140   2.026  0.00  0.00    +0.164 C 
ATOM      6  N   UNL     1       3.259  -6.596   3.110  0.00  0.00    -0.200 NA
ATOM      7  S   UNL     1       2.336  -4.441   1.580  0.00  0.00    -0.077 S 
ATOM      8  H   UNL     1       2.219  -7.828   0.992  0.00  0.00    +0.157 HD
ENDROOT
BRANCH   6   9
ATOM      9  C   UNL     1       3.703  -5.734   4.050  0.00  0.00    +0.196 A 
ATOM     10  N   UNL     1       3.629  -4.416   4.065  0.00  0.00    -0.221 NA
ATOM     11  C   UNL     1       4.121  -3.678   5.082  0.00  0.00    +0.081 A 
ATOM     12  C   UNL     1       4.109  -2.270   5.223  0.00  0.00    +0.029 A 
ATOM     13  C   UNL     1       4.657  -1.672   6.328  0.00  0.00    +0.002 A 
ATOM     14  C   UNL     1       5.240  -2.419   7.342  0.00  0.00    +0.001 A 
ATOM     15  C   UNL     1       5.269  -3.798   7.237  0.00  0.00    +0.017 A 
ATOM     16  C   UNL     1       4.723  -4.405   6.135  0.00  0.00    +0.041 A 
ATOM     17  S   UNL     1       4.532  -6.087   5.593  0.00  0.00    -0.048 S 
ENDBRANCH   6   9
BRANCH   1  18
ATOM     18  C   UNL     1       0.059  -4.275  -0.021  0.00  0.00    +0.059 C 
BRANCH  18  23
ATOM     19  C   UNL     1      -0.018   1.503   0.010  0.00  0.00    +0.044 C 
ATOM     20  C   UNL     1       0.002  -0.004   0.002  0.00  0.00    -0.048 A 
ATOM     21  C   UNL     1       0.006  -0.689  -1.199  0.00  0.00    +0.004 A 
ATOM     22  C   UNL     1       0.025  -2.071  -1.207  0.00  0.00    +0.004 A 
ATOM     23  C   UNL     1       0.040  -2.768  -0.013  0.00  0.00    -0.046 A 
ATOM     24  C   UNL     1       0.037  -2.084   1.188  0.00  0.00    +0.007 A 
ATOM     25  C   UNL     1       0.023  -0.702   1.195  0.00  0.00    -0.047 A 
ATOM     26  C   UNL     1       0.025   0.045   2.504  0.00  0.00    +0.044 C 
ENDBRANCH  18  23
ENDBRANCH   1  18
TORSDOF 3
