REMARK  Name = ZINC40313307
REMARK  14 active torsions:
REMARK  status: ('A' for Active; 'I' for Inactive)
REMARK    1  A    between atoms: C_1  and  C_2
REMARK    2  A    between atoms: C_6  and  O_8
REMARK    3  A    between atoms: O_8  and  C_9
REMARK    4  A    between atoms: C_9  and  C_10
REMARK    5  A    between atoms: C_10  and  C_12
REMARK    6  A    between atoms: C_10  and  O_39
REMARK    7  A    between atoms: C_12  and  N_13
REMARK    8  A    between atoms: N_13  and  C_14
REMARK    9  A    between atoms: C_15  and  C_28
REMARK   10  A    between atoms: C_20  and  C_24
REMARK   11  A    between atoms: C_24  and  C_25
REMARK   12  A    between atoms: C_24  and  C_26
REMARK   13  A    between atoms: C_24  and  C_27
REMARK   14  A    between atoms: N_30  and  C_31
REMARK                            x       y       z     vdW  Elec       q    Type
REMARK                         _______ _______ _______ _____ _____    ______ ____
ROOT
ATOM      1  C   UNL     1      -0.237  -8.248   5.118  0.00  0.00    +0.078 A 
ATOM      2  C   UNL     1      -0.351  -8.950   6.309  0.00  0.00    +0.068 A 
ATOM      3  C   UNL     1      -0.451 -10.398   6.219  0.00  0.00    -0.023 A 
ATOM      4  C   UNL     1      -0.419 -10.876   4.957  0.00  0.00    -0.004 A 
ATOM      5  S   UNL     1      -0.266  -9.440   3.936  0.00  0.00    -0.078 S 
ATOM      6  C   UNL     1      -0.501 -12.311   4.537  0.00  0.00    +0.046 C 
ATOM      7  C   UNL     1      -1.008 -13.134   5.730  0.00  0.00    -0.000 C 
ATOM      8  C   UNL     1      -0.207 -12.746   6.976  0.00  0.00    +0.009 C 
ATOM      9  C   UNL     1      -0.582 -11.329   7.415  0.00  0.00    +0.037 C 
ENDROOT
BRANCH   7  10
ATOM     10  C   UNL     1      -0.820 -14.625   5.440  0.00  0.00    -0.035 C 
ATOM     11  C   UNL     1       0.665 -14.917   5.214  0.00  0.00    +0.011 C 
ATOM     12  C   UNL     1      -1.326 -15.444   6.630  0.00  0.00    +0.011 C 
ATOM     13  C   UNL     1      -1.611 -15.005   4.187  0.00  0.00    +0.011 C 
ENDBRANCH   7  10
BRANCH   2  14
ATOM     14  C   UNL     1      -0.371  -8.263   7.602  0.00  0.00    +0.247 C 
ATOM     15  O   UNL     1      -1.429  -7.901   8.084  0.00  0.00    -0.270 OA
ATOM     16  N   UNL     1       0.783  -8.030   8.259  0.00  0.00    -0.307 N 
ATOM     17  H   UNL     1       1.626  -8.318   7.875  0.00  0.00    +0.149 HD
BRANCH  16  18
ATOM     18  C   UNL     1       0.764  -7.343   9.553  0.00  0.00    +0.096 C 
ATOM     19  C   UNL     1       0.793  -5.821   9.332  0.00  0.00    +0.046 C 
ATOM     20  C   UNL     1       1.095  -5.100  10.668  0.00  0.00    +0.168 C 
ATOM     21  S   UNL     1       2.081  -6.351  11.588  0.00  0.00    -0.029 S 
ATOM     22  O   UNL     1       1.371  -6.730  12.759  0.00  0.00    -0.174 OA
ATOM     23  O   UNL     1       3.421  -5.891  11.702  0.00  0.00    -0.174 OA
ATOM     24  C   UNL     1       2.023  -7.737  10.376  0.00  0.00    +0.188 C 
ENDBRANCH  16  18
ENDBRANCH   2  14
BRANCH   1  25
ATOM     25  N   UNL     1      -0.130  -6.881   4.945  0.00  0.00    -0.335 N 
ATOM     26  H   UNL     1      -0.125  -6.293   5.716  0.00  0.00    +0.147 HD
BRANCH  25  27
ATOM     27  C   UNL     1      -0.023  -6.320   3.595  0.00  0.00    +0.136 C 
BRANCH  27  28
ATOM     28  C   UNL     1       0.083  -4.796   3.683  0.00  0.00    +0.169 C 
BRANCH  28  29
ATOM     29  O   UNL     1       1.302  -4.441   4.338  0.00  0.00    -0.387 OA
ATOM     30  H   UNL     1       2.097  -4.756   3.887  0.00  0.00    +0.210 HD
ENDBRANCH  28  29
BRANCH  28  31
ATOM     31  C   UNL     1       0.069  -4.202   2.274  0.00  0.00    +0.261 C 
BRANCH  31  32
ATOM     32  O   UNL     1       0.050  -2.776   2.358  0.00  0.00    -0.489 OA
BRANCH  32  38
ATOM     33  C   UNL     1      -0.018   1.503   0.010  0.00  0.00    +0.044 C 
ATOM     34  C   UNL     1       0.002  -0.004   0.002  0.00  0.00    -0.047 A 
ATOM     35  C   UNL     1       0.006  -0.688  -1.200  0.00  0.00    +0.003 A 
ATOM     36  C   UNL     1       0.024  -2.071  -1.211  0.00  0.00    +0.004 A 
ATOM     37  C   UNL     1       0.039  -2.772  -0.020  0.00  0.00    +0.045 A 
ATOM     38  C   UNL     1       0.035  -2.088   1.186  0.00  0.00    +0.121 A 
ATOM     39  C   UNL     1       0.023  -0.700   1.195  0.00  0.00    +0.049 A 
ENDBRANCH  32  38
ENDBRANCH  31  32
ENDBRANCH  28  31
ENDBRANCH  27  28
ENDBRANCH  25  27
ENDBRANCH   1  25
TORSDOF 10
