REMARK  Name = ZINC14943642
REMARK  10 active torsions:
REMARK  status: ('A' for Active; 'I' for Inactive)
REMARK    1  A    between atoms: C_1  and  C_2
REMARK    2  A    between atoms: C_2  and  O_3
REMARK    3  A    between atoms: O_3  and  C_4
REMARK    4  A    between atoms: C_4  and  C_6
REMARK    5  A    between atoms: C_6  and  C_7
REMARK    6  A    between atoms: C_7  and  C_9
REMARK    7  A    between atoms: C_7  and  N_66
REMARK    8  A    between atoms: N_11  and  C_12
REMARK    9  A    between atoms: C_15  and  C_18
REMARK   10  A    between atoms: N_31  and  C_32
REMARK                            x       y       z     vdW  Elec       q    Type
REMARK                         _______ _______ _______ _____ _____    ______ ____
ROOT
ATOM      1  C   UNL     1      -4.849  -1.272  -0.782  0.00  0.00    +0.030 C 
ENDROOT
BRANCH   1  13
ATOM      2  C   UNL     1      -4.061   1.006  -0.559  0.00  0.00    -0.075 C 
ATOM      3  C   UNL     1      -2.821   1.860  -0.281  0.00  0.00    +0.017 C 
ATOM      4  C   UNL     1      -1.807   1.660  -1.403  0.00  0.00    +0.109 C 
ATOM      5  C   UNL     1      -1.460   0.180  -1.546  0.00  0.00    +0.017 C 
ATOM      6  C   UNL     1      -2.744  -0.620  -1.784  0.00  0.00    -0.075 C 
ATOM      7  C   UNL     1      -2.346   2.203  -2.704  0.00  0.00    +0.238 C 
ATOM      8  O   UNL     1      -3.166   1.661  -3.414  0.00  0.00    -0.273 OA
ATOM      9  N   UNL     1      -1.763   3.398  -2.939  0.00  0.00    -0.298 N 
ATOM     10  C   UNL     1      -0.840   3.719  -1.843  0.00  0.00    +0.214 C 
ATOM     11  N   UNL     1      -0.582   2.444  -1.133  0.00  0.00    -0.300 N 
ATOM     12  H   UNL     1      -1.929   3.958  -3.713  0.00  0.00    +0.150 HD
ATOM     13  N   UNL     1      -3.655  -0.414  -0.638  0.00  0.00    +0.388 N 
ATOM     14  H   UNL     1      -3.164  -0.668   0.227  0.00  0.00    -0.081 HD
BRANCH  11  15
ATOM     15  C   UNL     1      -0.420   2.658   0.237  0.00  0.00    +0.032 A 
ATOM     16  C   UNL     1       0.472   1.879   0.963  0.00  0.00    +0.023 A 
ATOM     17  C   UNL     1       0.632   2.096   2.317  0.00  0.00    +0.002 A 
ATOM     18  C   UNL     1      -0.102   3.081   2.953  0.00  0.00    +0.000 A 
ATOM     19  C   UNL     1      -0.995   3.854   2.235  0.00  0.00    +0.002 A 
ATOM     20  C   UNL     1      -1.156   3.646   0.879  0.00  0.00    +0.023 A 
ENDBRANCH  11  15
ENDBRANCH   1  13
BRANCH   1  21
ATOM     21  C   UNL     1      -5.556  -0.984  -2.082  0.00  0.00    +0.204 C 
ATOM     22  O   UNL     1      -5.293   0.022  -2.705  0.00  0.00    -0.277 OA
ATOM     23  N   UNL     1      -6.480  -1.846  -2.552  0.00  0.00    -0.287 N 
ATOM     24  H   UNL     1      -6.738  -2.616  -2.022  0.00  0.00    +0.155 HD
BRANCH  23  25
ATOM     25  C   UNL     1      -7.066  -1.629  -3.804  0.00  0.00    +0.033 A 
ATOM     26  C   UNL     1      -7.355  -0.336  -4.222  0.00  0.00    +0.024 A 
ATOM     27  C   UNL     1      -7.928  -0.125  -5.460  0.00  0.00    +0.014 A 
ATOM     28  C   UNL     1      -8.225  -1.199  -6.279  0.00  0.00    +0.055 A 
ATOM     29  C   UNL     1      -7.943  -2.487  -5.863  0.00  0.00    +0.014 A 
ATOM     30  C   UNL     1      -7.365  -2.705  -4.628  0.00  0.00    +0.024 A 
BRANCH  28  31
ATOM     31  C   UNL     1      -8.857  -0.965  -7.627  0.00  0.00    +0.417 C 
ATOM     32  F   UNL     1     -10.250  -0.979  -7.498  0.00  0.00    -0.166 F 
ATOM     33  F   UNL     1      -8.446   0.276  -8.125  0.00  0.00    -0.166 F 
ATOM     34  F   UNL     1      -8.460  -1.976  -8.509  0.00  0.00    -0.166 F 
ENDBRANCH  28  31
ENDBRANCH  23  25
ENDBRANCH   1  21
BRANCH   1  35
ATOM     35  C   UNL     1      -5.800  -1.002   0.386  0.00  0.00    +0.114 C 
BRANCH  35  36
ATOM     36  C   UNL     1      -5.123  -1.373   1.680  0.00  0.00    +0.306 C 
ATOM     37  O   UNL     1      -3.971  -1.738   1.677  0.00  0.00    -0.251 OA
BRANCH  36  38
ATOM     38  O   UNL     1      -5.800  -1.298   2.837  0.00  0.00    -0.465 OA
BRANCH  38  40
ATOM     39  C   UNL     1      -6.012  -1.523   5.253  0.00  0.00    +0.048 C 
ATOM     40  C   UNL     1      -5.085  -1.671   4.045  0.00  0.00    +0.229 C 
ENDBRANCH  38  40
ENDBRANCH  36  38
ENDBRANCH  35  36
ENDBRANCH   1  35
TORSDOF 9
