REMARK  Name = ZINC11604087
REMARK  10 active torsions:
REMARK  status: ('A' for Active; 'I' for Inactive)
REMARK    1  A    between atoms: C_1  and  C_2
REMARK    2  A    between atoms: C_2  and  C_3
REMARK    3  A    between atoms: C_6  and  C_9
REMARK    4  A    between atoms: C_9  and  C_11
REMARK    5  A    between atoms: C_9  and  N_55
REMARK    6  A    between atoms: C_11  and  N_12
REMARK    7  A    between atoms: C_13  and  C_15
REMARK    8  A    between atoms: C_15  and  C_16
REMARK    9  A    between atoms: C_29  and  N_55
REMARK   10  A    between atoms: C_30  and  N_55
REMARK                            x       y       z     vdW  Elec       q    Type
REMARK                         _______ _______ _______ _____ _____    ______ ____
ROOT
ATOM      1  N   UNL     1      -0.055   0.909  -2.209  0.00  0.00    -0.316 N 
ATOM      2  C   UNL     1      -0.457   0.859  -0.923  0.00  0.00    +0.215 C 
ATOM      3  O   UNL     1      -1.631   0.985  -0.649  0.00  0.00    -0.276 OA
ATOM      4  H   UNL     1       0.884   0.809  -2.428  0.00  0.00    +0.149 HD
ENDROOT
BRANCH   1   5
ATOM      5  C   UNL     1      -1.038   1.117  -3.276  0.00  0.00    +0.093 C 
BRANCH   5   6
ATOM      6  C   UNL     1      -0.325   1.134  -4.629  0.00  0.00    -0.021 C 
BRANCH   6  10
ATOM      7  C   UNL     1      -3.133   2.084  -7.705  0.00  0.00    -0.048 A 
ATOM      8  C   UNL     1      -3.058   2.870  -6.570  0.00  0.00    +0.004 A 
ATOM      9  C   UNL     1      -2.150   2.563  -5.575  0.00  0.00    +0.002 A 
ATOM     10  C   UNL     1      -1.316   1.469  -5.714  0.00  0.00    -0.059 A 
ATOM     11  C   UNL     1      -1.387   0.686  -6.851  0.00  0.00    +0.002 A 
ATOM     12  C   UNL     1      -2.298   0.991  -7.845  0.00  0.00    +0.004 A 
BRANCH   7  14
ATOM     13  C   UNL     1      -3.474   3.367  -9.800  0.00  0.00    +0.009 C 
ATOM     14  C   UNL     1      -4.124   2.419  -8.790  0.00  0.00    +0.032 C 
ENDBRANCH   7  14
ENDBRANCH   6  10
BRANCH   6  17
ATOM     15  C   UNL     1       1.553   2.078  -5.831  0.00  0.00    -0.096 C 
ATOM     16  C   UNL     1       0.184   3.492  -4.422  0.00  0.00    -0.096 C 
ATOM     17  N   UNL     1       0.757   2.140  -4.587  0.00  0.00    +0.382 N 
ATOM     18  H   UNL     1       1.370   1.937  -3.788  0.00  0.00    -0.082 HD
ENDBRANCH   6  17
ENDBRANCH   5   6
ENDBRANCH   1   5
BRANCH   2  19
ATOM     19  C   UNL     1       0.554   0.645   0.174  0.00  0.00    +0.119 C 
BRANCH  19  20
ATOM     20  C   UNL     1      -0.158   0.628   1.528  0.00  0.00    +0.146 C 
ATOM     21  C   UNL     1       0.859   0.538   2.635  0.00  0.00    +0.231 C 
ATOM     22  O   UNL     1       1.186   1.559   3.203  0.00  0.00    -0.274 OA
ATOM     23  N   UNL     1       1.415  -0.606   3.020  0.00  0.00    -0.284 N 
ATOM     24  C   UNL     1       1.092  -1.882   2.570  0.00  0.00    +0.048 A 
ATOM     25  C   UNL     1       1.967  -2.934   2.816  0.00  0.00    +0.044 A 
ATOM     26  C   UNL     1       1.669  -4.208   2.373  0.00  0.00    +0.043 A 
ATOM     27  C   UNL     1       0.492  -4.454   1.688  0.00  0.00    +0.021 A 
ATOM     28  C   UNL     1      -0.396  -3.420   1.451  0.00  0.00    +0.018 A 
ATOM     29  C   UNL     1      -0.103  -2.142   1.897  0.00  0.00    +0.030 A 
ATOM     30  S   UNL     1      -1.248  -0.825   1.628  0.00  0.00    -0.110 S 
ATOM     31 CL   UNL     1       2.777  -5.509   2.678  0.00  0.00    -0.083 Cl
ATOM     32  H   UNL     1       2.120  -0.544   3.684  0.00  0.00    +0.155 HD
ENDBRANCH  19  20
ENDBRANCH   2  19
TORSDOF 7
