REMARK  Name = ZINC40980832
REMARK  12 active torsions:
REMARK  status: ('A' for Active; 'I' for Inactive)
REMARK    1  A    between atoms: C_1  and  C_2
REMARK    2  A    between atoms: C_2  and  C_3
REMARK    3  A    between atoms: C_3  and  S_4
REMARK    4  A    between atoms: S_4  and  C_5
REMARK    5  A    between atoms: C_10  and  C_19
REMARK    6  A    between atoms: C_12  and  C_16
REMARK    7  A    between atoms: C_13  and  C_15
REMARK    8  A    between atoms: C_22  and  O_27
REMARK    9  A    between atoms: C_23  and  O_25
REMARK   10  A    between atoms: O_25  and  C_26
REMARK   11  A    between atoms: O_27  and  C_28
REMARK   12  A    between atoms: C_28  and  C_29
REMARK                            x       y       z     vdW  Elec       q    Type
REMARK                         _______ _______ _______ _____ _____    ______ ____
ROOT
ATOM      1  C   UNL     1      -3.193  -2.614  -0.411  0.00  0.00    +0.210 A 
ATOM      2  N   UNL     1      -4.272  -1.821  -0.330  0.00  0.00    -0.187 NA
ATOM      3  C   UNL     1      -5.337  -2.553  -0.143  0.00  0.00    +0.219 A 
ATOM      4  N   UNL     1      -4.954  -3.853  -0.104  0.00  0.00    -0.220 N 
ATOM      5  N   UNL     1      -3.571  -3.867  -0.281  0.00  0.00    -0.141 NA
ATOM      6  C   UNL     1      -5.884  -4.964   0.081  0.00  0.00    +0.177 C 
ATOM      7  C   UNL     1      -7.224  -4.430   0.510  0.00  0.00    +0.060 C 
ATOM      8  C   UNL     1      -7.546  -3.129   0.453  0.00  0.00    +0.018 C 
ATOM      9  N   UNL     1      -6.665  -2.176   0.005  0.00  0.00    -0.287 N 
ATOM     10  C   UNL     1      -8.921  -2.700   0.896  0.00  0.00    +0.061 C 
ATOM     11  H   UNL     1      -6.959  -1.275  -0.200  0.00  0.00    +0.155 HD
ENDROOT
BRANCH   6  12
ATOM     12  C   UNL     1      -6.034  -5.715  -1.217  0.00  0.00    -0.015 A 
ATOM     13  C   UNL     1      -6.505  -5.062  -2.341  0.00  0.00    +0.010 A 
ATOM     14  C   UNL     1      -6.645  -5.747  -3.534  0.00  0.00    +0.050 A 
ATOM     15  C   UNL     1      -6.312  -7.090  -3.604  0.00  0.00    +0.162 A 
ATOM     16  C   UNL     1      -5.838  -7.747  -2.473  0.00  0.00    +0.162 A 
ATOM     17  C   UNL     1      -5.696  -7.054  -1.282  0.00  0.00    +0.055 A 
BRANCH  16  18
ATOM     18  O   UNL     1      -5.510  -9.066  -2.538  0.00  0.00    -0.491 OA
ATOM     19  C   UNL     1      -5.030  -9.674  -1.337  0.00  0.00    +0.277 C 
ENDBRANCH  16  18
BRANCH  15  20
ATOM     20  O   UNL     1      -6.450  -7.766  -4.777  0.00  0.00    -0.484 OA
BRANCH  20  21
ATOM     21  C   UNL     1      -6.943  -7.027  -5.897  0.00  0.00    +0.267 C 
BRANCH  21  22
ATOM     22  C   UNL     1      -7.027  -7.934  -7.098  0.00  0.00    +0.025 A 
ATOM     23  C   UNL     1      -6.657  -9.261  -6.990  0.00  0.00    +0.010 A 
ATOM     24  C   UNL     1      -6.735 -10.092  -8.092  0.00  0.00    +0.001 A 
ATOM     25  C   UNL     1      -7.183  -9.597  -9.303  0.00  0.00    +0.003 A 
ATOM     26  C   UNL     1      -7.553  -8.271  -9.413  0.00  0.00    +0.039 A 
ATOM     27  C   UNL     1      -7.481  -7.438  -8.308  0.00  0.00    +0.130 A 
ATOM     28  F   UNL     1      -7.848  -6.142  -8.414  0.00  0.00    -0.205 F 
ENDBRANCH  21  22
ENDBRANCH  20  21
ENDBRANCH  15  20
ENDBRANCH   6  12
BRANCH   7  29
ATOM     29  C   UNL     1      -8.190  -5.343   0.996  0.00  0.00    +0.241 C 
ATOM     30  O   UNL     1      -8.137  -5.728   2.150  0.00  0.00    -0.271 OA
ATOM     31  N   UNL     1      -9.168  -5.786   0.182  0.00  0.00    -0.325 N 
ATOM     32  H   UNL     1      -9.210  -5.479  -0.737  0.00  0.00    +0.145 HD
ATOM     33  H   UNL     1      -9.830  -6.412   0.515  0.00  0.00    +0.145 HD
ENDBRANCH   7  29
BRANCH   1  34
ATOM     34  S   UNL     1      -1.537  -2.065  -0.659  0.00  0.00    -0.084 S 
BRANCH  34  35
ATOM     35  C   UNL     1      -1.683  -0.260  -0.758  0.00  0.00    +0.077 C 
BRANCH  35  37
ATOM     36  C   UNL     1      -0.421   1.875  -1.059  0.00  0.00    +0.004 C 
ATOM     37  C   UNL     1      -0.298   0.353  -0.975  0.00  0.00    +0.008 C 
ENDBRANCH  35  37
ENDBRANCH  34  35
ENDBRANCH   1  34
TORSDOF 9
