REMARK  Name = ZINC29910025
REMARK  8 active torsions:
REMARK  status: ('A' for Active; 'I' for Inactive)
REMARK    1  A    between atoms: C_1  and  C_2
REMARK    2  A    between atoms: C_2  and  C_3
REMARK    3  A    between atoms: C_3  and  C_5
REMARK    4  A    between atoms: C_3  and  N_23
REMARK    5  A    between atoms: C_5  and  N_6
REMARK    6  A    between atoms: C_7  and  C_9
REMARK    7  A    between atoms: C_9  and  N_10
REMARK    8  A    between atoms: N_19  and  C_22
REMARK                            x       y       z     vdW  Elec       q    Type
REMARK                         _______ _______ _______ _____ _____    ______ ____
ROOT
ATOM      1  N   UNL     1       3.968  -4.500   4.622  0.00  0.00    -0.316 N 
ATOM      2  C   UNL     1       3.010  -3.634   4.235  0.00  0.00    +0.231 C 
ATOM      3  O   UNL     1       2.041  -4.034   3.626  0.00  0.00    -0.274 OA
ATOM      4  H   UNL     1       4.847  -4.137   5.174  0.00  0.00    +0.149 HD
ENDROOT
BRANCH   1   5
ATOM      5  C   UNL     1       3.837  -5.925   4.306  0.00  0.00    +0.089 C 
BRANCH   5   6
ATOM      6  C   UNL     1       5.106  -6.661   4.741  0.00  0.00    -0.051 C 
BRANCH   6   7
ATOM      7  N   UNL     1       6.269  -6.078   4.060  0.00  0.00    +0.385 N 
ATOM      8  C   UNL     1       6.402  -6.609   2.694  0.00  0.00    -0.073 C 
ATOM      9  C   UNL     1       7.376  -5.720   1.920  0.00  0.00    +0.017 C 
ATOM     10  C   UNL     1       8.642  -5.531   2.716  0.00  0.00    -0.048 A 
ATOM     11  C   UNL     1       9.771  -5.064   2.060  0.00  0.00    +0.004 A 
ATOM     12  C   UNL     1      10.949  -4.869   2.752  0.00  0.00    +0.000 A 
ATOM     13  C   UNL     1      11.003  -5.140   4.107  0.00  0.00    +0.000 A 
ATOM     14  C   UNL     1       9.881  -5.606   4.760  0.00  0.00    +0.002 A 
ATOM     15  C   UNL     1       8.696  -5.805   4.065  0.00  0.00    -0.061 A 
ATOM     16  C   UNL     1       7.499  -6.319   4.821  0.00  0.00    -0.042 C 
ATOM     17  H   UNL     1       6.109  -4.991   3.999  0.00  0.00    -0.081 HD
ENDBRANCH   6   7
BRANCH   6  19
ATOM     18  C   UNL     1       6.188  -8.905   4.936  0.00  0.00    +0.002 C 
ATOM     19  C   UNL     1       4.988  -8.142   4.372  0.00  0.00    -0.017 C 
ENDBRANCH   6  19
ENDBRANCH   5   6
ENDBRANCH   1   5
BRANCH   2  20
ATOM     20  C   UNL     1       3.144  -2.168   4.559  0.00  0.00    +0.213 C 
BRANCH  20  21
ATOM     21  N   UNL     1       1.984  -1.444   4.035  0.00  0.00    -0.215 N 
ATOM     22  C   UNL     1       0.845  -1.233   4.728  0.00  0.00    +0.247 C 
ATOM     23  O   UNL     1       0.597  -1.593   5.859  0.00  0.00    -0.273 OA
ATOM     24  C   UNL     1      -0.055  -0.454   3.797  0.00  0.00    +0.115 C 
ATOM     25  C   UNL     1      -1.328  -1.242   3.506  0.00  0.00    +0.035 C 
ATOM     26  C   UNL     1      -2.213  -0.450   2.541  0.00  0.00    +0.003 C 
ATOM     27  C   UNL     1      -2.562   0.903   3.165  0.00  0.00    +0.000 C 
ATOM     28  C   UNL     1      -1.278   1.691   3.428  0.00  0.00    +0.003 C 
ATOM     29  C   UNL     1      -0.389   0.907   4.396  0.00  0.00    +0.035 C 
ATOM     30  N   UNL     1       0.744  -0.298   2.575  0.00  0.00    -0.274 N 
ATOM     31  C   UNL     1       1.921  -0.909   2.810  0.00  0.00    +0.312 C 
ATOM     32  O   UNL     1       2.825  -0.969   1.999  0.00  0.00    -0.252 OA
ATOM     33  C   UNL     1       0.341   0.388   1.345  0.00  0.00    +0.134 C 
ENDBRANCH  20  21
ENDBRANCH   2  20
TORSDOF 6
