REMARK  Name = ZINC02451686
REMARK  2 active torsions:
REMARK  status: ('A' for Active; 'I' for Inactive)
REMARK    1  A    between atoms: C_6  and  C_7
REMARK    2  A    between atoms: N_12  and  C_13
REMARK                            x       y       z     vdW  Elec       q    Type
REMARK                         _______ _______ _______ _____ _____    ______ ____
ROOT
ATOM      1  C   UNL     1       1.665   3.379  -0.640  0.00  0.00    +0.251 C 
ATOM      2  O   UNL     1       0.533   3.819  -0.689  0.00  0.00    -0.270 OA
ATOM      3  N   UNL     1       2.700   4.207  -0.398  0.00  0.00    -0.235 N 
ATOM      4  C   UNL     1       2.480   5.523  -0.209  0.00  0.00    +0.321 C 
ATOM      5  O   UNL     1       1.359   5.976  -0.331  0.00  0.00    -0.251 OA
ATOM      6  N   UNL     1       3.504   6.338   0.114  0.00  0.00    -0.177 N 
ATOM      7  C   UNL     1       3.269   7.633   0.406  0.00  0.00    +0.320 C 
ATOM      8  O   UNL     1       2.127   8.043   0.470  0.00  0.00    -0.251 OA
ATOM      9  N   UNL     1       4.301   8.472   0.626  0.00  0.00    -0.243 N 
ATOM     10  C   UNL     1       4.060   9.772   1.024  0.00  0.00    +0.162 C 
ATOM     11  N   UNL     1       2.866  10.244   1.205  0.00  0.00    -0.356 N 
ATOM     12  C   UNL     1       2.966  11.635   1.645  0.00  0.00    +0.102 C 
ATOM     13  C   UNL     1       1.950  12.546   1.036  0.00  0.00    +0.026 C 
ATOM     14  C   UNL     1       2.454  13.259  -0.215  0.00  0.00    +0.002 C 
ATOM     15  C   UNL     1       3.753  13.987   0.155  0.00  0.00    +0.002 C 
ATOM     16  C   UNL     1       4.820  12.938   0.433  0.00  0.00    +0.024 C 
ATOM     17  C   UNL     1       4.433  11.989   1.550  0.00  0.00    +0.095 C 
ATOM     18  N   UNL     1       5.061  10.672   1.269  0.00  0.00    -0.314 N 
ATOM     19  H   UNL     1       3.724   3.809  -0.354  0.00  0.00    +0.159 HD
ATOM     20  H   UNL     1       5.334   8.121   0.487  0.00  0.00    +0.159 HD
ATOM     21  H   UNL     1       6.157  10.571   1.287  0.00  0.00    +0.149 HD
ATOM     22  H   UNL     1       1.989   9.605   1.024  0.00  0.00    +0.162 HD
ENDROOT
BRANCH   1  28
ATOM     23  C   UNL     1       0.835   1.076  -1.099  0.00  0.00    +0.014 A 
ATOM     24  C   UNL     1       1.066  -0.270  -1.291  0.00  0.00    +0.021 A 
ATOM     25  C   UNL     1       2.357  -0.768  -1.236  0.00  0.00    +0.041 A 
ATOM     26  C   UNL     1       3.423   0.080  -0.987  0.00  0.00    +0.021 A 
ATOM     27  C   UNL     1       3.205   1.428  -0.792  0.00  0.00    +0.014 A 
ATOM     28  C   UNL     1       1.906   1.937  -0.847  0.00  0.00    +0.037 A 
ATOM     29 CL   UNL     1       2.640  -2.464  -1.480  0.00  0.00    -0.084 Cl
ENDBRANCH   1  28
BRANCH   6  30
ATOM     30  C   UNL     1       4.814   5.838   0.148  0.00  0.00    +0.047 A 
ATOM     31  C   UNL     1       5.704   6.151  -0.871  0.00  0.00    +0.025 A 
ATOM     32  C   UNL     1       6.995   5.661  -0.834  0.00  0.00    +0.022 A 
ATOM     33  C   UNL     1       7.399   4.852   0.213  0.00  0.00    +0.041 A 
ATOM     34  C   UNL     1       6.512   4.534   1.227  0.00  0.00    +0.022 A 
ATOM     35  C   UNL     1       5.221   5.025   1.197  0.00  0.00    +0.025 A 
ATOM     36 CL   UNL     1       9.020   4.233   0.255  0.00  0.00    -0.084 Cl
ENDBRANCH   6  30
TORSDOF 2
