REMARK  Name = ZINC09142345
REMARK  6 active torsions:
REMARK  status: ('A' for Active; 'I' for Inactive)
REMARK    1  A    between atoms: C_3  and  C_9
REMARK    2  A    between atoms: C_12  and  C_14
REMARK    3  A    between atoms: N_16  and  C_17
REMARK    4  A    between atoms: C_17  and  N_19
REMARK    5  A    between atoms: N_19  and  C_20
REMARK    6  A    between atoms: C_25  and  O_26
REMARK                            x       y       z     vdW  Elec       q    Type
REMARK                         _______ _______ _______ _____ _____    ______ ____
ROOT
ATOM      1  C   UNL     1       0.231  -0.641  -5.915  0.00  0.00    +0.285 C 
ATOM      2  O   UNL     1       0.248  -1.858  -5.922  0.00  0.00    -0.266 OA
ATOM      3  N   UNL     1       0.137   0.025  -4.746  0.00  0.00    -0.261 N 
ATOM      4  H   UNL     1       0.124   0.995  -4.740  0.00  0.00    +0.157 HD
ENDROOT
BRANCH   1   8
ATOM      5  C   UNL     1       0.396   1.764  -8.607  0.00  0.00    +0.137 A 
ATOM      6  C   UNL     1       0.464   0.612  -9.338  0.00  0.00    +0.051 A 
ATOM      7  C   UNL     1       0.418  -0.453  -8.433  0.00  0.00    +0.055 A 
ATOM      8  C   UNL     1       0.313   0.100  -7.174  0.00  0.00    +0.190 A 
ATOM      9  O   UNL     1       0.306   1.444  -7.306  0.00  0.00    -0.450 OA
BRANCH   5  12
ATOM     10  C   UNL     1       1.426   4.789 -10.578  0.00  0.00    +0.021 A 
ATOM     11  C   UNL     1       1.412   3.509 -10.064  0.00  0.00    +0.014 A 
ATOM     12  C   UNL     1       0.419   3.134  -9.157  0.00  0.00    +0.036 A 
ATOM     13  C   UNL     1      -0.549   4.064  -8.766  0.00  0.00    +0.053 A 
ATOM     14  C   UNL     1      -0.521   5.343  -9.284  0.00  0.00    +0.040 A 
ATOM     15  C   UNL     1       0.463   5.706 -10.187  0.00  0.00    +0.042 A 
ATOM     16 CL   UNL     1       0.492   7.316 -10.834  0.00  0.00    -0.083 Cl
ATOM     17 CL   UNL     1      -1.784   3.610  -7.633  0.00  0.00    -0.083 Cl
ENDBRANCH   5  12
ENDBRANCH   1   8
BRANCH   3  18
ATOM     18  C   UNL     1       0.061  -0.657  -3.587  0.00  0.00    +0.141 C 
ATOM     19  S   UNL     1       0.085  -2.369  -3.597  0.00  0.00    -0.018 S 
BRANCH  18  20
ATOM     20  N   UNL     1      -0.033   0.008  -2.418  0.00  0.00    -0.294 N 
ATOM     21  H   UNL     1      -0.109   0.975  -2.416  0.00  0.00    +0.154 HD
BRANCH  20  22
ATOM     22  C   UNL     1      -0.020  -0.697  -1.208  0.00  0.00    +0.076 A 
ATOM     23  C   UNL     1      -0.823  -1.817  -1.047  0.00  0.00    +0.047 A 
ATOM     24  C   UNL     1      -0.813  -2.508   0.151  0.00  0.00    +0.043 A 
ATOM     25  C   UNL     1      -0.000  -2.087   1.189  0.00  0.00    +0.023 A 
ATOM     26  C   UNL     1       0.806  -0.974   1.033  0.00  0.00    +0.049 A 
ATOM     27  C   UNL     1       0.801  -0.277  -0.164  0.00  0.00    +0.138 A 
ATOM     28 CL   UNL     1      -1.822  -3.906   0.353  0.00  0.00    -0.083 Cl
BRANCH  27  29
ATOM     29  O   UNL     1       1.593   0.817  -0.318  0.00  0.00    -0.505 OA
ATOM     30  H   UNL     1       2.474   0.620  -0.664  0.00  0.00    +0.292 HD
ENDBRANCH  27  29
ENDBRANCH  20  22
ENDBRANCH  18  20
ENDBRANCH   3  18
TORSDOF 6
