REMARK  Name = ZINC19345595
REMARK  6 active torsions:
REMARK  status: ('A' for Active; 'I' for Inactive)
REMARK    1  A    between atoms: C_6  and  C_7
REMARK    2  A    between atoms: C_7  and  C_9
REMARK    3  A    between atoms: C_7  and  O_28
REMARK    4  A    between atoms: C_9  and  N_10
REMARK    5  A    between atoms: C_17  and  O_27
REMARK    6  A    between atoms: C_21  and  O_26
REMARK                            x       y       z     vdW  Elec       q    Type
REMARK                         _______ _______ _______ _____ _____    ______ ____
ROOT
ATOM      1  N   UNL     1      -0.023   1.432   2.459  0.00  0.00    +0.382 N 
ATOM      2  C   UNL     1       1.412   1.734   2.375  0.00  0.00    -0.075 C 
ATOM      3  C   UNL     1       2.140   1.086   3.556  0.00  0.00    +0.029 C 
ATOM      4  C   UNL     1       1.558   1.622   4.865  0.00  0.00    +0.110 C 
ATOM      5  C   UNL     1       0.054   1.341   4.905  0.00  0.00    +0.029 C 
ATOM      6  C   UNL     1      -0.612   1.983   3.686  0.00  0.00    -0.075 C 
ATOM      7  C   UNL     1       2.240   0.931   6.051  0.00  0.00    +0.084 C 
ATOM      8  C   UNL     1       1.561   1.403   7.339  0.00  0.00    +0.152 C 
ATOM      9  C   UNL     1       1.433   2.905   7.327  0.00  0.00    +0.026 A 
ATOM     10  C   UNL     1       1.192   3.561   8.522  0.00  0.00    +0.055 A 
ATOM     11  C   UNL     1       1.057   4.940   8.548  0.00  0.00    +0.117 A 
ATOM     12  C   UNL     1       1.164   5.666   7.371  0.00  0.00    +0.049 A 
ATOM     13  C   UNL     1       1.407   5.014   6.180  0.00  0.00    +0.049 A 
ATOM     14  C   UNL     1       1.545   3.630   6.154  0.00  0.00    +0.127 A 
ATOM     15  O   UNL     1       1.790   3.026   4.960  0.00  0.00    -0.485 OA
ATOM     16  H   UNL     1      -0.133   0.338   2.497  0.00  0.00    -0.082 HD
ENDROOT
BRANCH  11  17
ATOM     17  O   UNL     1       0.819   5.579   9.724  0.00  0.00    -0.507 OA
ATOM     18  H   UNL     1       0.712   6.674   9.743  0.00  0.00    +0.292 HD
ENDBRANCH  11  17
BRANCH   8  19
ATOM     19  O   UNL     1       2.346   1.001   8.463  0.00  0.00    -0.387 OA
ATOM     20  H   UNL     1       2.016   1.252   9.482  0.00  0.00    +0.210 HD
ENDBRANCH   8  19
BRANCH   1  21
ATOM     21  C   UNL     1      -0.733   1.918   1.269  0.00  0.00    -0.042 C 
BRANCH  21  22
ATOM     22  C   UNL     1      -0.034   1.401   0.010  0.00  0.00    +0.128 C 
BRANCH  22  28
ATOM     23  C   UNL     1      -1.925   1.217  -1.617  0.00  0.00    +0.010 A 
ATOM     24  C   UNL     1      -2.616   1.647  -2.736  0.00  0.00    +0.050 A 
ATOM     25  C   UNL     1      -2.155   2.741  -3.448  0.00  0.00    +0.162 A 
ATOM     26  C   UNL     1      -1.005   3.402  -3.040  0.00  0.00    +0.162 A 
ATOM     27  C   UNL     1      -0.319   2.973  -1.917  0.00  0.00    +0.055 A 
ATOM     28  C   UNL     1      -0.780   1.875  -1.210  0.00  0.00    -0.017 A 
ATOM     29  O   UNL     1      -0.559   4.479  -3.749  0.00  0.00    -0.488 OA
ATOM     30  C   UNL     1      -0.062   4.202  -5.060  0.00  0.00    +0.232 C 
ATOM     31  C   UNL     1      -1.199   4.150  -6.069  0.00  0.00    +0.082 C 
ATOM     32  C   UNL     1      -2.157   3.000  -5.802  0.00  0.00    +0.232 C 
ATOM     33  O   UNL     1      -2.827   3.177  -4.553  0.00  0.00    -0.488 OA
ENDBRANCH  22  28
BRANCH  22  34
ATOM     34  O   UNL     1      -0.013  -0.028   0.030  0.00  0.00    -0.389 OA
ATOM     35  H   UNL     1       0.490  -0.559   0.851  0.00  0.00    +0.210 HD
ENDBRANCH  22  34
ENDBRANCH  21  22
ENDBRANCH   1  21
TORSDOF 6
