REMARK  Name = ZINC35350362
REMARK  10 active torsions:
REMARK  status: ('A' for Active; 'I' for Inactive)
REMARK    1  A    between atoms: C_1  and  C_2
REMARK    2  A    between atoms: C_2  and  C_3
REMARK    3  A    between atoms: C_3  and  C_5
REMARK    4  A    between atoms: C_3  and  C_6
REMARK    5  A    between atoms: C_6  and  N_7
REMARK    6  A    between atoms: C_8  and  C_10
REMARK    7  A    between atoms: C_10  and  N_11
REMARK    8  A    between atoms: N_13  and  C_33
REMARK    9  A    between atoms: C_22  and  C_24
REMARK   10  A    between atoms: C_24  and  C_26
REMARK                            x       y       z     vdW  Elec       q    Type
REMARK                         _______ _______ _______ _____ _____    ______ ____
ROOT
ATOM      1  N   UNL     1       2.947  -5.782   3.631  0.00  0.00    -0.275 N 
ATOM      2  C   UNL     1       2.067  -6.735   4.308  0.00  0.00    +0.217 C 
ATOM      3  N   UNL     1       2.430  -8.086   3.861  0.00  0.00    -0.300 N 
ATOM      4  C   UNL     1       3.537  -7.911   2.912  0.00  0.00    +0.115 C 
ATOM      5  C   UNL     1       3.798  -6.430   2.819  0.00  0.00    +0.241 C 
ATOM      6  O   UNL     1       4.643  -5.908   2.124  0.00  0.00    -0.273 OA
ATOM      7  C   UNL     1       4.781  -8.637   3.425  0.00  0.00    +0.054 C 
ATOM      8  C   UNL     1       4.476 -10.132   3.562  0.00  0.00    +0.110 C 
ATOM      9  N   UNL     1       3.965 -10.630   2.277  0.00  0.00    -0.300 N 
ATOM     10  C   UNL     1       2.818  -9.949   1.661  0.00  0.00    +0.110 C 
ATOM     11  C   UNL     1       3.138  -8.456   1.541  0.00  0.00    +0.054 C 
ATOM     12  C   UNL     1       4.539 -11.691   1.675  0.00  0.00    +0.238 C 
ATOM     13  O   UNL     1       4.168 -12.036   0.573  0.00  0.00    -0.274 OA
ENDROOT
BRANCH   3  14
ATOM     14  C   UNL     1       1.843  -9.289   4.258  0.00  0.00    +0.032 A 
ATOM     15  C   UNL     1       0.742  -9.281   5.104  0.00  0.00    +0.023 A 
ATOM     16  C   UNL     1       0.163 -10.473   5.494  0.00  0.00    +0.002 A 
ATOM     17  C   UNL     1       0.680 -11.674   5.042  0.00  0.00    +0.000 A 
ATOM     18  C   UNL     1       1.776 -11.686   4.200  0.00  0.00    +0.002 A 
ATOM     19  C   UNL     1       2.356 -10.497   3.802  0.00  0.00    +0.023 A 
ENDBRANCH   3  14
BRANCH  12  20
ATOM     20  C   UNL     1       5.640 -12.448   2.372  0.00  0.00    +0.196 C 
ATOM     21 CL   UNL     1       7.236 -11.927   1.715  0.00  0.00    -0.107 Cl
BRANCH  20  22
ATOM     22  C   UNL     1       5.459 -13.926   2.138  0.00  0.00    -0.021 A 
ATOM     23  C   UNL     1       5.579 -14.443   0.862  0.00  0.00    +0.005 A 
ATOM     24  C   UNL     1       5.413 -15.799   0.647  0.00  0.00    +0.000 A 
ATOM     25  C   UNL     1       5.127 -16.637   1.709  0.00  0.00    +0.000 A 
ATOM     26  C   UNL     1       5.008 -16.119   2.985  0.00  0.00    +0.000 A 
ATOM     27  C   UNL     1       5.178 -14.764   3.200  0.00  0.00    +0.005 A 
ENDBRANCH  20  22
ENDBRANCH  12  20
BRANCH   1  28
ATOM     28  C   UNL     1       2.902  -4.329   3.810  0.00  0.00    +0.205 C 
BRANCH  28  30
ATOM     29  N   UNL     1       1.748  -2.396   2.784  0.00  0.00    -0.314 N 
ATOM     30  C   UNL     1       1.951  -3.728   2.807  0.00  0.00    +0.230 C 
ATOM     31  O   UNL     1       1.367  -4.444   2.021  0.00  0.00    -0.274 OA
ATOM     32  H   UNL     1       2.215  -1.824   3.413  0.00  0.00    +0.149 HD
BRANCH  29  33
ATOM     33  C   UNL     1       0.823  -1.813   1.810  0.00  0.00    +0.107 C 
BRANCH  33  34
ATOM     34  C   UNL     1       0.776  -0.295   1.996  0.00  0.00    +0.003 C 
ATOM     35  C   UNL     1       0.180   0.033   3.367  0.00  0.00    +0.009 C 
BRANCH  34  37
ATOM     36  C   UNL     1      -0.038   1.852   1.011  0.00  0.00    +0.004 C 
ATOM     37  C   UNL     1      -0.092   0.327   0.901  0.00  0.00    +0.001 C 
ENDBRANCH  34  37
ENDBRANCH  33  34
ENDBRANCH  29  33
ENDBRANCH  28  30
ENDBRANCH   1  28
TORSDOF 8
