REMARK  Name = ZINC27167835
REMARK  10 active torsions:
REMARK  status: ('A' for Active; 'I' for Inactive)
REMARK    1  A    between atoms: C_1  and  C_2
REMARK    2  A    between atoms: C_2  and  C_4
REMARK    3  A    between atoms: C_2  and  N_12
REMARK    4  A    between atoms: C_7  and  S_10
REMARK    5  A    between atoms: S_10  and  C_11
REMARK    6  A    between atoms: C_13  and  C_15
REMARK    7  A    between atoms: C_15  and  C_17
REMARK    8  A    between atoms: C_15  and  N_28
REMARK    9  A    between atoms: C_17  and  C_18
REMARK   10  A    between atoms: C_29  and  C_31
REMARK                            x       y       z     vdW  Elec       q    Type
REMARK                         _______ _______ _______ _____ _____    ______ ____
ROOT
ATOM      1  C   UNL     1       1.248   1.716  -0.001  0.00  0.00    +0.163 C 
ENDROOT
BRANCH   1   3
ATOM      2  N   UNL     1       2.521   3.037   1.658  0.00  0.00    -0.307 N 
ATOM      3  C   UNL     1       1.327   2.576   1.234  0.00  0.00    +0.234 C 
ATOM      4  O   UNL     1       0.318   2.854   1.845  0.00  0.00    -0.274 OA
ATOM      5  H   UNL     1       3.437   2.785   1.103  0.00  0.00    +0.149 HD
BRANCH   2   7
ATOM      6  C   UNL     1       2.667   2.981   4.099  0.00  0.00    +0.033 C 
ATOM      7  C   UNL     1       2.598   3.874   2.858  0.00  0.00    +0.100 C 
BRANCH   7   8
ATOM      8  C   UNL     1       3.833   4.736   2.791  0.00  0.00    -0.027 A 
ATOM      9  C   UNL     1       5.017   4.207   2.310  0.00  0.00    +0.006 A 
ATOM     10  C   UNL     1       6.149   4.995   2.242  0.00  0.00    +0.015 A 
ATOM     11  C   UNL     1       6.100   6.318   2.667  0.00  0.00    +0.008 A 
ATOM     12  C   UNL     1       4.909   6.843   3.154  0.00  0.00    +0.015 A 
ATOM     13  C   UNL     1       3.780   6.051   3.214  0.00  0.00    +0.006 A 
BRANCH  11  14
ATOM     14  S   UNL     1       7.543   7.325   2.590  0.00  0.00    -0.129 S 
ATOM     15  C   UNL     1       8.810   6.224   1.903  0.00  0.00    +0.090 C 
ENDBRANCH  11  14
ENDBRANCH   7   8
ENDBRANCH   2   7
ENDBRANCH   1   3
BRANCH   1  16
ATOM     16  N   UNL     1      -0.011   0.966   0.007  0.00  0.00    -0.299 N 
ATOM     17  C   UNL     1      -1.187   1.624   0.017  0.00  0.00    +0.251 C 
ATOM     18  O   UNL     1      -1.204   2.841   0.023  0.00  0.00    -0.270 OA
ATOM     19  H   UNL     1       0.004  -0.134   0.006  0.00  0.00    +0.150 HD
BRANCH  17  20
ATOM     20  C   UNL     1      -2.447   0.874   0.018  0.00  0.00    +0.074 A 
ATOM     21  C   UNL     1      -3.748   1.351   0.027  0.00  0.00    +0.021 A 
ATOM     22  C   UNL     1      -4.756   0.419   0.026  0.00  0.00    +0.008 A 
ATOM     23  C   UNL     1      -4.438  -0.902   0.017  0.00  0.00    +0.046 A 
ATOM     24  S   UNL     1      -2.704  -0.892   0.002  0.00  0.00    -0.092 S 
ENDBRANCH  17  20
ENDBRANCH   1  16
BRANCH   1  25
ATOM     25  C   UNL     1       1.305   2.603  -1.246  0.00  0.00    +0.069 C 
BRANCH  25  26
ATOM     26  C   UNL     1       1.349   1.737  -2.478  0.00  0.00    -0.020 A 
ATOM     27  C   UNL     1       2.449   1.352  -3.145  0.00  0.00    +0.087 A 
ATOM     28  N   UNL     1       2.098   0.569  -4.211  0.00  0.00    -0.360 N 
ATOM     29  H   UNL     1       2.876   0.157  -4.870  0.00  0.00    +0.165 HD
ATOM     30  C   UNL     1       0.728   0.435  -4.263  0.00  0.00    +0.047 A 
ATOM     31  C   UNL     1       0.199   1.161  -3.180  0.00  0.00    +0.003 A 
ATOM     32  C   UNL     1      -1.181   1.203  -2.978  0.00  0.00    +0.010 A 
ATOM     33  C   UNL     1      -2.013   0.539  -3.836  0.00  0.00    +0.001 A 
ATOM     34  C   UNL     1      -1.496  -0.177  -4.906  0.00  0.00    +0.002 A 
ATOM     35  C   UNL     1      -0.137  -0.233  -5.123  0.00  0.00    +0.026 A 
ENDBRANCH  25  26
ENDBRANCH   1  25
TORSDOF 8
