REMARK  Name = ZINC39197596
REMARK  8 active torsions:
REMARK  status: ('A' for Active; 'I' for Inactive)
REMARK    1  A    between atoms: C_1  and  C_2
REMARK    2  A    between atoms: C_6  and  O_33
REMARK    3  A    between atoms: C_7  and  O_32
REMARK    4  A    between atoms: N_12  and  C_13
REMARK    5  A    between atoms: C_13  and  C_14
REMARK    6  A    between atoms: C_17  and  S_20
REMARK    7  A    between atoms: S_20  and  C_23
REMARK    8  A    between atoms: C_23  and  C_24
REMARK                            x       y       z     vdW  Elec       q    Type
REMARK                         _______ _______ _______ _____ _____    ______ ____
ROOT
ATOM      1  C   UNL     1       0.704  -0.515   3.627  0.00  0.00    -0.064 A 
ATOM      2  C   UNL     1       0.549  -1.774   4.177  0.00  0.00    +0.003 A 
ATOM      3  C   UNL     1       1.262  -2.127   5.307  0.00  0.00    +0.027 A 
ATOM      4  C   UNL     1       2.130  -1.221   5.888  0.00  0.00    +0.089 A 
ATOM      5  C   UNL     1       2.285   0.038   5.339  0.00  0.00    +0.027 A 
ATOM      6  C   UNL     1       1.575   0.390   4.205  0.00  0.00    +0.003 A 
ENDROOT
BRANCH   4   7
ATOM      7  S   UNL     1       3.037  -1.670   7.330  0.00  0.00    +0.001 S 
ATOM      8  O   UNL     1       3.303  -0.440   7.989  0.00  0.00    -0.169 OA
ATOM      9  O   UNL     1       2.248  -2.672   7.957  0.00  0.00    -0.169 OA
BRANCH   7  10
ATOM     10  C   UNL     1       4.580  -2.391   6.704  0.00  0.00    +0.209 C 
BRANCH  10  11
ATOM     11  C   UNL     1       5.443  -2.815   7.864  0.00  0.00    +0.011 A 
ATOM     12  C   UNL     1       6.347  -1.925   8.416  0.00  0.00    +0.047 A 
ATOM     13  C   UNL     1       7.139  -2.316   9.481  0.00  0.00    +0.020 A 
ATOM     14  C   UNL     1       7.028  -3.595   9.993  0.00  0.00    +0.003 A 
ATOM     15  C   UNL     1       6.125  -4.484   9.442  0.00  0.00    +0.020 A 
ATOM     16  C   UNL     1       5.328  -4.093   8.381  0.00  0.00    +0.047 A 
ATOM     17 CL   UNL     1       4.188  -5.208   7.694  0.00  0.00    -0.083 Cl
ATOM     18 CL   UNL     1       6.488  -0.319   7.772  0.00  0.00    -0.083 Cl
ENDBRANCH  10  11
ENDBRANCH   7  10
ENDBRANCH   4   7
BRANCH   1  19
ATOM     19  C   UNL     1      -0.073  -0.130   2.395  0.00  0.00    -0.042 C 
BRANCH  19  30
ATOM     20  C   UNL     1      -0.019   1.526   0.010  0.00  0.00    -0.008 C 
ATOM     21  C   UNL     1       0.002  -0.004   0.002  0.00  0.00    -0.040 C 
ATOM     22  C   UNL     1       0.696  -0.484  -1.245  0.00  0.00    -0.054 A 
ATOM     23  C   UNL     1       0.435   0.170  -2.441  0.00  0.00    +0.051 A 
ATOM     24  C   UNL     1       1.049  -0.239  -3.611  0.00  0.00    +0.158 A 
ATOM     25  C   UNL     1       1.933  -1.315  -3.587  0.00  0.00    +0.158 A 
ATOM     26  C   UNL     1       2.190  -1.964  -2.393  0.00  0.00    +0.053 A 
ATOM     27  C   UNL     1       1.573  -1.548  -1.223  0.00  0.00    -0.044 A 
ATOM     28  C   UNL     1       1.889  -2.279   0.057  0.00  0.00    +0.017 C 
ATOM     29  C   UNL     1       0.838  -1.946   1.117  0.00  0.00    -0.073 C 
ATOM     30  N   UNL     1       0.701  -0.484   1.198  0.00  0.00    +0.387 N 
ATOM     31  H   UNL     1       1.615  -0.061   1.247  0.00  0.00    -0.080 HD
BRANCH  25  32
ATOM     32  O   UNL     1       2.540  -1.725  -4.733  0.00  0.00    -0.503 OA
ATOM     33  H   UNL     1       3.385  -1.290  -4.908  0.00  0.00    +0.292 HD
ENDBRANCH  25  32
BRANCH  24  34
ATOM     34  O   UNL     1       0.790   0.406  -4.780  0.00  0.00    -0.503 OA
ATOM     35  H   UNL     1       1.385   1.147  -4.960  0.00  0.00    +0.292 HD
ENDBRANCH  24  34
ENDBRANCH  19  30
ENDBRANCH   1  19
TORSDOF 7
