REMARK  Name = ZINC19200448
REMARK  6 active torsions:
REMARK  status: ('A' for Active; 'I' for Inactive)
REMARK    1  A    between atoms: C_3  and  O_22
REMARK    2  A    between atoms: C_6  and  N_7
REMARK    3  A    between atoms: C_8  and  C_10
REMARK    4  A    between atoms: C_10  and  C_11
REMARK    5  A    between atoms: C_14  and  C_16
REMARK    6  A    between atoms: O_22  and  C_23
REMARK                            x       y       z     vdW  Elec       q    Type
REMARK                         _______ _______ _______ _____ _____    ______ ____
ROOT
ATOM      1  N   UNL     1       0.060  -4.174  -0.019  0.00  0.00    -0.285 N 
ATOM      2  C   UNL     1      -1.093  -4.865   0.090  0.00  0.00    +0.223 C 
ATOM      3  O   UNL     1      -2.153  -4.277   0.103  0.00  0.00    -0.275 OA
ATOM      4  H   UNL     1       1.015  -4.710  -0.118  0.00  0.00    +0.155 HD
ENDROOT
BRANCH   1  10
ATOM      5  C   UNL     1      -0.903  -2.099   0.756  0.00  0.00    +0.027 A 
ATOM      6  C   UNL     1      -0.922  -0.717   0.768  0.00  0.00    +0.049 A 
ATOM      7  C   UNL     1       0.001  -0.004   0.018  0.00  0.00    +0.145 A 
ATOM      8  C   UNL     1       0.942  -0.678  -0.749  0.00  0.00    +0.084 A 
ATOM      9  C   UNL     1       0.965  -2.059  -0.757  0.00  0.00    +0.047 A 
ATOM     10  C   UNL     1       0.040  -2.773  -0.006  0.00  0.00    +0.035 A 
ATOM     11 CL   UNL     1       2.093   0.216  -1.692  0.00  0.00    -0.080 Cl
BRANCH   7  12
ATOM     12  O   UNL     1      -0.019   1.355   0.030  0.00  0.00    -0.433 OA
BRANCH  12  13
ATOM     13  C   UNL     1      -1.018   1.983   0.837  0.00  0.00    +0.541 C 
ATOM     14  F   UNL     1      -2.287   1.592   0.396  0.00  0.00    -0.166 F 
ATOM     15  F   UNL     1      -0.850   1.597   2.172  0.00  0.00    -0.166 F 
ENDBRANCH  12  13
ENDBRANCH   7  12
ENDBRANCH   1  10
BRANCH   2  16
ATOM     16  C   UNL     1      -1.063  -6.368   0.197  0.00  0.00    +0.152 C 
BRANCH  16  17
ATOM     17  C   UNL     1      -2.471  -6.892   0.307  0.00  0.00    +0.058 A 
ATOM     18  C   UNL     1      -2.921  -7.823  -0.572  0.00  0.00    +0.071 A 
ATOM     19  S   UNL     1      -4.591  -8.060   0.023  0.00  0.00    -0.075 S 
ATOM     20  C   UNL     1      -4.511  -6.888   1.371  0.00  0.00    +0.109 A 
ATOM     21  N   UNL     1      -3.268  -6.443   1.252  0.00  0.00    -0.243 NA
BRANCH  20  22
ATOM     22  C   UNL     1      -5.551  -6.515   2.352  0.00  0.00    +0.014 A 
ATOM     23  C   UNL     1      -6.814  -7.102   2.312  0.00  0.00    +0.018 A 
ATOM     24  C   UNL     1      -7.738  -6.734   3.227  0.00  0.00    +0.046 A 
ATOM     25  S   UNL     1      -6.852  -5.528   4.199  0.00  0.00    -0.104 S 
ATOM     26  C   UNL     1      -5.295  -5.588   3.328  0.00  0.00    +0.055 A 
ENDBRANCH  20  22
ENDBRANCH  16  17
ENDBRANCH   2  16
TORSDOF 6
