REMARK  Name = ZINC36571370
REMARK  10 active torsions:
REMARK  status: ('A' for Active; 'I' for Inactive)
REMARK    1  A    between atoms: C_1  and  C_2
REMARK    2  A    between atoms: C_2  and  C_3
REMARK    3  A    between atoms: C_3  and  N_4
REMARK    4  A    between atoms: N_4  and  C_5
REMARK    5  A    between atoms: C_5  and  C_7
REMARK    6  A    between atoms: C_5  and  C_15
REMARK    7  A    between atoms: N_17  and  C_18
REMARK    8  A    between atoms: C_24  and  C_26
REMARK    9  A    between atoms: C_30  and  O_33
REMARK   10  A    between atoms: C_31  and  O_32
REMARK                            x       y       z     vdW  Elec       q    Type
REMARK                         _______ _______ _______ _____ _____    ______ ____
ROOT
ATOM      1  C   UNL     1      -0.758  -3.362   1.598  0.00  0.00    +0.195 C 
ENDROOT
BRANCH   1   2
ATOM      2  C   UNL     1       0.655  -3.325   2.120  0.00  0.00    +0.018 A 
ATOM      3  C   UNL     1       1.246  -2.114   2.431  0.00  0.00    +0.048 A 
ATOM      4  C   UNL     1       2.544  -2.081   2.910  0.00  0.00    +0.020 A 
ATOM      5  C   UNL     1       3.249  -3.257   3.078  0.00  0.00    +0.003 A 
ATOM      6  C   UNL     1       2.659  -4.468   2.768  0.00  0.00    +0.020 A 
ATOM      7  C   UNL     1       1.360  -4.503   2.294  0.00  0.00    +0.048 A 
ATOM      8 CL   UNL     1       0.616  -6.024   1.912  0.00  0.00    -0.083 Cl
ATOM      9 CL   UNL     1       0.361  -0.636   2.219  0.00  0.00    -0.083 Cl
ENDBRANCH   1   2
BRANCH   1  10
ATOM     10  C   UNL     1      -1.548  -2.232   2.206  0.00  0.00    +0.238 C 
ATOM     11  O   UNL     1      -2.050  -1.390   1.492  0.00  0.00    -0.273 OA
ATOM     12  N   UNL     1      -1.697  -2.157   3.543  0.00  0.00    -0.311 N 
ATOM     13  H   UNL     1      -1.295  -2.830   4.115  0.00  0.00    +0.149 HD
BRANCH  12  14
ATOM     14  C   UNL     1      -2.465  -1.058   4.134  0.00  0.00    +0.073 C 
ATOM     15  C   UNL     1      -1.556   0.160   4.314  0.00  0.00    +0.022 C 
ATOM     16  C   UNL     1      -2.358   1.308   4.931  0.00  0.00    +0.002 C 
ATOM     17  C   UNL     1      -2.904   0.874   6.293  0.00  0.00    +0.000 C 
ATOM     18  C   UNL     1      -3.813  -0.344   6.113  0.00  0.00    +0.002 C 
ATOM     19  C   UNL     1      -3.011  -1.492   5.496  0.00  0.00    +0.022 C 
ENDBRANCH  12  14
ENDBRANCH   1  10
BRANCH   1  20
ATOM     20  N   UNL     1      -0.744  -3.220   0.140  0.00  0.00    -0.282 N 
ATOM     21  C   UNL     1      -1.595  -3.942  -0.616  0.00  0.00    +0.251 C 
ATOM     22  O   UNL     1      -1.498  -3.922  -1.827  0.00  0.00    -0.270 OA
BRANCH  21  23
ATOM     23  C   UNL     1      -2.643  -4.757   0.027  0.00  0.00    +0.082 A 
ATOM     24  C   UNL     1      -3.054  -4.470   1.333  0.00  0.00    +0.017 A 
ATOM     25  C   UNL     1      -4.034  -5.233   1.929  0.00  0.00    +0.005 A 
ATOM     26  C   UNL     1      -4.617  -6.285   1.243  0.00  0.00    +0.049 A 
ATOM     27  C   UNL     1      -4.221  -6.582  -0.050  0.00  0.00    +0.159 A 
ATOM     28  C   UNL     1      -3.236  -5.817  -0.669  0.00  0.00    +0.171 A 
BRANCH  28  29
ATOM     29  O   UNL     1      -2.849  -6.100  -1.938  0.00  0.00    -0.503 OA
ATOM     30  H   UNL     1      -2.119  -6.732  -1.995  0.00  0.00    +0.292 HD
ENDBRANCH  28  29
BRANCH  27  31
ATOM     31  O   UNL     1      -4.798  -7.617  -0.718  0.00  0.00    -0.503 OA
ATOM     32  H   UNL     1      -5.582  -7.369  -1.226  0.00  0.00    +0.292 HD
ENDBRANCH  27  31
ENDBRANCH  21  23
BRANCH  20  33
ATOM     33  C   UNL     1       0.195  -2.292  -0.496  0.00  0.00    +0.109 C 
BRANCH  33  35
ATOM     34  C   UNL     1       2.615  -1.822  -0.900  0.00  0.00    +0.005 C 
ATOM     35  C   UNL     1       1.608  -2.876  -0.436  0.00  0.00    +0.016 C 
ENDBRANCH  33  35
ENDBRANCH  20  33
ENDBRANCH   1  20
TORSDOF 9
