REMARK  Name = ZINC21078176
REMARK  8 active torsions:
REMARK  status: ('A' for Active; 'I' for Inactive)
REMARK    1  A    between atoms: C_3  and  O_29
REMARK    2  A    between atoms: C_6  and  C_7
REMARK    3  A    between atoms: N_8  and  N_9
REMARK    4  A    between atoms: C_12  and  S_15
REMARK    5  A    between atoms: S_15  and  C_16
REMARK    6  A    between atoms: C_16  and  C_17
REMARK    7  A    between atoms: C_17  and  C_18
REMARK    8  A    between atoms: N_20  and  C_21
REMARK                            x       y       z     vdW  Elec       q    Type
REMARK                         _______ _______ _______ _____ _____    ______ ____
ROOT
ATOM      1  N   UNL     1     -10.930  -0.570  -0.799  0.00  0.00    -0.205 N 
ATOM      2  C   UNL     1      -9.570  -0.318  -0.685  0.00  0.00    +0.232 A 
ATOM      3  N   UNL     1      -8.984   0.916  -0.628  0.00  0.00    -0.186 NA
ATOM      4  C   UNL     1      -7.634   0.738  -0.518  0.00  0.00    +0.210 A 
ATOM      5  N   UNL     1      -7.395  -0.551  -0.512  0.00  0.00    -0.144 NA
ATOM      6  N   UNL     1      -8.622  -1.220  -0.612  0.00  0.00    -0.245 N 
ATOM      7  H   UNL     1     -11.642   0.266  -0.853  0.00  0.00    +0.177 HD
ATOM      8  H   UNL     1      -8.878  -2.290  -0.636  0.00  0.00    +0.192 HD
ENDROOT
BRANCH   1  10
ATOM      9  C   UNL     1     -12.668  -2.127  -0.953  0.00  0.00    +0.138 C 
ATOM     10  N   UNL     1     -11.395  -1.891  -0.846  0.00  0.00    -0.188 NA
BRANCH   9  16
ATOM     11  C   UNL     1     -12.254  -4.581  -0.940  0.00  0.00    +0.013 A 
ATOM     12  C   UNL     1     -12.717  -5.878  -0.982  0.00  0.00    +0.046 A 
ATOM     13  C   UNL     1     -14.078  -6.129  -1.097  0.00  0.00    +0.117 A 
ATOM     14  C   UNL     1     -14.979  -5.074  -1.164  0.00  0.00    +0.046 A 
ATOM     15  C   UNL     1     -14.526  -3.774  -1.118  0.00  0.00    +0.013 A 
ATOM     16  C   UNL     1     -13.157  -3.517  -1.003  0.00  0.00    -0.005 A 
BRANCH  13  17
ATOM     17  O   UNL     1     -14.530  -7.410  -1.143  0.00  0.00    -0.507 OA
ATOM     18  H   UNL     1     -15.607  -7.610  -1.233  0.00  0.00    +0.292 HD
ENDBRANCH  13  17
ENDBRANCH   9  16
ENDBRANCH   1  10
BRANCH   4  19
ATOM     19  S   UNL     1      -6.426   2.016  -0.410  0.00  0.00    -0.084 S 
BRANCH  19  20
ATOM     20  C   UNL     1      -4.852   1.123  -0.286  0.00  0.00    +0.086 C 
BRANCH  20  21
ATOM     21  C   UNL     1      -3.703   2.127  -0.184  0.00  0.00    +0.107 C 
BRANCH  21  22
ATOM     22  C   UNL     1      -2.395   1.385  -0.081  0.00  0.00    +0.218 C 
ATOM     23  O   UNL     1      -2.384   0.172  -0.088  0.00  0.00    -0.275 OA
ATOM     24  N   UNL     1      -1.238   2.069   0.019  0.00  0.00    -0.284 N 
ATOM     25  H   UNL     1      -1.254   3.165   0.117  0.00  0.00    +0.155 HD
BRANCH  24  26
ATOM     26  C   UNL     1      -0.016   1.385  -0.001  0.00  0.00    +0.052 A 
ATOM     27  C   UNL     1       0.076   0.144  -0.617  0.00  0.00    +0.026 A 
ATOM     28  C   UNL     1       1.283  -0.526  -0.641  0.00  0.00    +0.022 A 
ATOM     29  C   UNL     1       2.401   0.038  -0.053  0.00  0.00    +0.042 A 
ATOM     30  C   UNL     1       2.313   1.275   0.561  0.00  0.00    +0.041 A 
ATOM     31  C   UNL     1       1.108   1.950   0.589  0.00  0.00    +0.064 A 
ATOM     32 CL   UNL     1       0.997   3.502   1.359  0.00  0.00    -0.082 Cl
ATOM     33 CL   UNL     1       3.917  -0.807  -0.085  0.00  0.00    -0.083 Cl
ENDBRANCH  24  26
ENDBRANCH  21  22
ENDBRANCH  20  21
ENDBRANCH  19  20
ENDBRANCH   4  19
TORSDOF 8
