REMARK  Name = ZINC01107299
REMARK  12 active torsions:
REMARK  status: ('A' for Active; 'I' for Inactive)
REMARK    1  A    between atoms: C_1  and  C_2
REMARK    2  A    between atoms: C_3  and  C_34
REMARK    3  A    between atoms: C_4  and  C_33
REMARK    4  A    between atoms: N_5  and  C_7
REMARK    5  A    between atoms: C_7  and  C_8
REMARK    6  A    between atoms: C_10  and  C_16
REMARK    7  A    between atoms: C_13  and  O_14
REMARK    8  A    between atoms: O_14  and  C_15
REMARK    9  A    between atoms: C_18  and  C_31
REMARK   10  A    between atoms: C_19  and  N_30
REMARK   11  A    between atoms: C_26  and  C_28
REMARK   12  A    between atoms: C_26  and  C_29
REMARK                            x       y       z     vdW  Elec       q    Type
REMARK                         _______ _______ _______ _____ _____    ______ ____
ROOT
ATOM      1  C   UNL     1      -2.977   1.649   1.445  0.00  0.00    +0.016 A 
ATOM      2  C   UNL     1      -3.755   2.626   2.036  0.00  0.00    +0.013 A 
ATOM      3  C   UNL     1      -4.186   2.473   3.340  0.00  0.00    -0.034 A 
ATOM      4  C   UNL     1      -3.841   1.341   4.057  0.00  0.00    +0.008 A 
ATOM      5  C   UNL     1      -3.064   0.361   3.471  0.00  0.00    +0.046 A 
ATOM      6  C   UNL     1      -2.634   0.510   2.160  0.00  0.00    +0.125 A 
ENDROOT
BRANCH   3   7
ATOM      7  C   UNL     1      -5.035   3.540   3.982  0.00  0.00    +0.101 C 
ATOM      8  C   UNL     1      -4.328   4.077   5.195  0.00  0.00    +0.098 C 
ATOM      9  C   UNL     1      -4.696   3.678   6.436  0.00  0.00    +0.198 C 
ATOM     10  O   UNL     1      -5.691   2.796   6.620  0.00  0.00    -0.445 OA
ATOM     11  C   UNL     1      -6.617   2.622   5.659  0.00  0.00    +0.115 C 
ATOM     12  C   UNL     1      -6.367   2.950   4.378  0.00  0.00    +0.046 C 
ATOM     13  C   UNL     1      -7.331   2.753   3.371  0.00  0.00    +0.164 C 
ATOM     14  O   UNL     1      -7.073   3.074   2.228  0.00  0.00    -0.292 OA
ATOM     15  C   UNL     1      -8.675   2.154   3.684  0.00  0.00    +0.086 C 
ATOM     16  C   UNL     1      -8.536   1.235   4.902  0.00  0.00    -0.021 C 
ATOM     17  C   UNL     1      -7.956   2.050   6.060  0.00  0.00    +0.081 C 
ATOM     18  C   UNL     1      -7.596   0.076   4.567  0.00  0.00    +0.012 C 
ATOM     19  C   UNL     1      -9.909   0.686   5.296  0.00  0.00    +0.012 C 
BRANCH   9  20
ATOM     20  N   UNL     1      -4.038   4.186   7.529  0.00  0.00    -0.328 N 
ATOM     21  H   UNL     1      -3.317   4.824   7.407  0.00  0.00    +0.145 HD
ATOM     22  H   UNL     1      -4.293   3.907   8.422  0.00  0.00    +0.145 HD
ENDBRANCH   9  20
BRANCH   8  23
ATOM     23  C   UNL     1      -3.258   5.016   5.037  0.00  0.00    +0.101 C 
ATOM     24  N   UNL     1      -2.409   5.761   4.912  0.00  0.00    -0.191 NA
ENDBRANCH   8  23
ENDBRANCH   3   7
BRANCH   6  25
ATOM     25  O   UNL     1      -1.874  -0.455   1.579  0.00  0.00    -0.495 OA
ATOM     26  C   UNL     1      -1.560  -1.599   2.375  0.00  0.00    +0.277 C 
ENDBRANCH   6  25
BRANCH   1  27
ATOM     27  C   UNL     1      -2.507   1.816   0.023  0.00  0.00    +0.182 C 
BRANCH  27  32
ATOM     28  C   UNL     1       1.476   4.871   0.012  0.00  0.00    +0.068 C 
ATOM     29  C   UNL     1       0.609   3.638   0.015  0.00  0.00    +0.064 A 
ATOM     30  C   UNL     1       1.064   2.315   0.004  0.00  0.00    +0.006 A 
ATOM     31  C   UNL     1      -0.018   1.503   0.010  0.00  0.00    +0.041 A 
ATOM     32  N   UNL     1      -1.119   2.284   0.019  0.00  0.00    -0.264 N 
ATOM     33  N   UNL     1      -0.700   3.620   0.027  0.00  0.00    -0.176 NA
ATOM     34  C   UNL     1       0.002  -0.004   0.002  0.00  0.00    +0.065 C 
BRANCH  30  35
ATOM     35  C   UNL     1       2.504   1.873  -0.011  0.00  0.00    +0.118 C 
ATOM     36 BR   UNL     1       3.113   1.691  -1.872  0.00  0.00    -0.087 Br
ENDBRANCH  30  35
ENDBRANCH  27  32
ENDBRANCH   1  27
TORSDOF 7
