REMARK  Name = ZINC22067278
REMARK  8 active torsions:
REMARK  status: ('A' for Active; 'I' for Inactive)
REMARK    1  A    between atoms: C_1  and  O_2
REMARK    2  A    between atoms: O_2  and  C_3
REMARK    3  A    between atoms: C_8  and  O_9
REMARK    4  A    between atoms: O_9  and  C_10
REMARK    5  A    between atoms: C_16  and  O_20
REMARK    6  A    between atoms: O_20  and  C_21
REMARK    7  A    between atoms: C_22  and  N_26
REMARK    8  A    between atoms: C_27  and  C_29
REMARK                            x       y       z     vdW  Elec       q    Type
REMARK                         _______ _______ _______ _____ _____    ______ ____
ROOT
ATOM      1  C   UNL     1      -3.311  -1.872   0.017  0.00  0.00    +0.162 A 
ATOM      2  C   UNL     1      -4.120  -0.755   0.033  0.00  0.00    +0.053 A 
ATOM      3  C   UNL     1      -3.615   0.540   0.040  0.00  0.00    -0.036 A 
ATOM      4  C   UNL     1      -2.231   0.729   0.030  0.00  0.00    -0.007 A 
ATOM      5  C   UNL     1      -1.426  -0.429   0.011  0.00  0.00    +0.010 A 
ATOM      6  C   UNL     1      -1.922  -1.721   0.005  0.00  0.00    +0.166 A 
ATOM      7  C   UNL     1       0.002  -0.004  -0.003  0.00  0.00    +0.075 C 
ATOM      8  C   UNL     1      -0.018   1.518   0.008  0.00  0.00    -0.031 A 
ATOM      9  C   UNL     1      -1.370   1.930   0.024  0.00  0.00    -0.009 A 
ATOM     10  C   UNL     1      -1.767   3.267   0.057  0.00  0.00    -0.016 A 
ATOM     11  C   UNL     1      -0.897   4.330   0.073  0.00  0.00    +0.055 A 
ATOM     12  C   UNL     1       0.419   4.521   0.058  0.00  0.00    +0.167 A 
ATOM     13  C   UNL     1       1.409   3.538   0.012  0.00  0.00    +0.221 A 
ATOM     14  O   UNL     1       2.579   3.899  -0.015  0.00  0.00    -0.284 OA
ATOM     15  C   UNL     1       1.147   2.190  -0.004  0.00  0.00    +0.059 A 
ATOM     16  C   UNL     1      -3.204   3.705   0.073  0.00  0.00    +0.104 C 
ATOM     17  C   UNL     1      -4.156   2.860  -0.694  0.00  0.00    +0.032 C 
ATOM     18  C   UNL     1      -4.611   1.646   0.058  0.00  0.00    +0.038 C 
ENDROOT
BRANCH  16  19
ATOM     19  N   UNL     1      -3.650   3.743   1.468  0.00  0.00    -0.301 N 
ATOM     20  C   UNL     1      -4.579   4.639   1.854  0.00  0.00    +0.318 C 
ATOM     21  O   UNL     1      -5.046   5.414   1.047  0.00  0.00    -0.266 OA
ATOM     22  H   UNL     1      -3.225   3.040   2.200  0.00  0.00    +0.150 HD
BRANCH  20  23
ATOM     23  C   UNL     1      -5.037   4.678   3.289  0.00  0.00    +0.469 C 
ATOM     24  F   UNL     1      -5.998   5.683   3.444  0.00  0.00    -0.162 F 
ATOM     25  F   UNL     1      -5.595   3.442   3.634  0.00  0.00    -0.162 F 
ATOM     26  F   UNL     1      -3.945   4.945   4.120  0.00  0.00    -0.162 F 
ENDBRANCH  20  23
ENDBRANCH  16  19
BRANCH   1  28
ATOM     27  C   UNL     1      -5.290  -3.190   0.025  0.00  0.00    +0.277 C 
ATOM     28  O   UNL     1      -3.863  -3.114   0.012  0.00  0.00    -0.491 OA
ENDBRANCH   1  28
BRANCH   6  29
ATOM     29  O   UNL     1      -1.092  -2.799  -0.011  0.00  0.00    -0.491 OA
ATOM     30  C   UNL     1      -0.685  -3.323   1.255  0.00  0.00    +0.277 C 
ENDBRANCH   6  29
BRANCH  12  31
ATOM     31  O   UNL     1       0.844   5.808   0.090  0.00  0.00    -0.491 OA
ATOM     32  C   UNL     1      -0.159   6.824   0.020  0.00  0.00    +0.277 C 
ENDBRANCH  12  31
TORSDOF 5
