REMARK  Name = ZINC36146386
REMARK  14 active torsions:
REMARK  status: ('A' for Active; 'I' for Inactive)
REMARK    1  A    between atoms: C_1  and  C_2
REMARK    2  A    between atoms: C_2  and  C_3
REMARK    3  A    between atoms: C_2  and  C_4
REMARK    4  A    between atoms: C_2  and  O_5
REMARK    5  A    between atoms: O_5  and  C_6
REMARK    6  A    between atoms: C_6  and  C_7
REMARK    7  A    between atoms: C_7  and  C_9
REMARK    8  A    between atoms: C_7  and  O_34
REMARK    9  A    between atoms: C_9  and  N_10
REMARK   10  A    between atoms: N_10  and  C_11
REMARK   11  A    between atoms: N_10  and  C_19
REMARK   12  A    between atoms: C_11  and  C_12
REMARK   13  A    between atoms: C_19  and  C_20
REMARK   14  A    between atoms: C_23  and  C_26
REMARK                            x       y       z     vdW  Elec       q    Type
REMARK                         _______ _______ _______ _____ _____    ______ ____
ROOT
ATOM      1  N   UNL     1       4.819  -0.536  -4.081  0.00  0.00    +0.387 N 
ATOM      2  H   UNL     1       4.890  -1.514  -4.318  0.00  0.00    -0.081 HD
ENDROOT
BRANCH   1   3
ATOM      3  C   UNL     1       4.314  -0.400  -2.708  0.00  0.00    -0.044 C 
BRANCH   3   4
ATOM      4  C   UNL     1       2.992  -1.158  -2.574  0.00  0.00    +0.124 C 
BRANCH   4   5
ATOM      5  O   UNL     1       3.224  -2.556  -2.755  0.00  0.00    -0.391 OA
ATOM      6  H   UNL     1       3.838  -2.939  -2.114  0.00  0.00    +0.210 HD
ENDBRANCH   4   5
BRANCH   4   7
ATOM      7  C   UNL     1       2.403  -0.914  -1.183  0.00  0.00    +0.189 C 
BRANCH   7   8
ATOM      8  O   UNL     1       1.114  -1.526  -1.098  0.00  0.00    -0.372 OA
BRANCH   8  10
ATOM      9  C   UNL     1       0.285   0.136   0.449  0.00  0.00    +0.041 C 
ATOM     10  C   UNL     1       0.473  -1.356   0.168  0.00  0.00    +0.061 C 
ATOM     11  C   UNL     1       1.341  -1.976   1.266  0.00  0.00    +0.041 C 
ATOM     12  C   UNL     1      -0.891  -2.047   0.146  0.00  0.00    +0.041 C 
ENDBRANCH   8  10
ENDBRANCH   7   8
ENDBRANCH   4   7
ENDBRANCH   3   4
ENDBRANCH   1   3
BRANCH   1  13
ATOM     13  C   UNL     1       3.895   0.127  -5.011  0.00  0.00    -0.043 C 
BRANCH  13  14
ATOM     14  C   UNL     1       3.753   1.578  -4.629  0.00  0.00    -0.063 A 
ATOM     15  C   UNL     1       2.800   1.959  -3.703  0.00  0.00    +0.002 A 
ATOM     16  C   UNL     1       2.669   3.290  -3.352  0.00  0.00    +0.002 A 
ATOM     17  C   UNL     1       3.492   4.240  -3.927  0.00  0.00    +0.020 A 
ATOM     18  C   UNL     1       4.446   3.860  -4.854  0.00  0.00    +0.041 A 
ATOM     19  C   UNL     1       4.580   2.527  -5.200  0.00  0.00    +0.021 A 
ATOM     20 CL   UNL     1       5.479   5.053  -5.577  0.00  0.00    -0.084 Cl
ENDBRANCH  13  14
ENDBRANCH   1  13
BRANCH   1  21
ATOM     21  C   UNL     1       6.145   0.089  -4.179  0.00  0.00    -0.030 C 
BRANCH  21  22
ATOM     22  C   UNL     1       6.768  -0.245  -5.536  0.00  0.00    +0.194 C 
ATOM     23  C   UNL     1       8.167   0.399  -5.677  0.00  0.00    +0.104 C 
ATOM     24  C   UNL     1       8.192   0.816  -7.136  0.00  0.00    +0.091 C 
ATOM     25  N   UNL     1       6.983   0.784  -7.587  0.00  0.00    -0.089 NA
ATOM     26  O   UNL     1       6.041   0.389  -6.608  0.00  0.00    -0.392 OA
BRANCH  24  27
ATOM     27  C   UNL     1       9.393   1.193  -7.907  0.00  0.00    +0.001 A 
ATOM     28  C   UNL     1      10.650   1.181  -7.298  0.00  0.00    +0.011 A 
ATOM     29  C   UNL     1      11.768   1.535  -8.023  0.00  0.00    +0.022 A 
ATOM     30  C   UNL     1      11.648   1.901  -9.353  0.00  0.00    +0.059 A 
ATOM     31  C   UNL     1      10.404   1.915  -9.963  0.00  0.00    +0.060 A 
ATOM     32  C   UNL     1       9.278   1.558  -9.249  0.00  0.00    +0.031 A 
ATOM     33 CL   UNL     1      10.263   2.375 -11.631  0.00  0.00    -0.082 Cl
ATOM     34 CL   UNL     1      13.061   2.345 -10.258  0.00  0.00    -0.082 Cl
ENDBRANCH  24  27
ENDBRANCH  21  22
ENDBRANCH   1  21
TORSDOF 11
