REMARK  Name = ZINC21227813
REMARK  9 active torsions:
REMARK  status: ('A' for Active; 'I' for Inactive)
REMARK    1  A    between atoms: C_1  and  C_2
REMARK    2  A    between atoms: N_13  and  C_32
REMARK    3  A    between atoms: C_14  and  S_16
REMARK    4  A    between atoms: S_16  and  C_17
REMARK    5  A    between atoms: C_17  and  C_19
REMARK    6  A    between atoms: C_17  and  C_20
REMARK    7  A    between atoms: N_22  and  C_23
REMARK    8  A    between atoms: C_26  and  C_29
REMARK    9  A    between atoms: C_32  and  C_33
REMARK                            x       y       z     vdW  Elec       q    Type
REMARK                         _______ _______ _______ _____ _____    ______ ____
ROOT
ATOM      1  C   UNL     1       1.322   3.929   8.768  0.00  0.00    +0.008 C 
ATOM      2  C   UNL     1       0.781   3.233   7.517  0.00  0.00    -0.009 C 
ATOM      3  C   UNL     1       1.776   3.403   6.365  0.00  0.00    +0.008 C 
ATOM      4  C   UNL     1       1.370   2.508   5.193  0.00  0.00    +0.037 C 
ATOM      5  C   UNL     1      -0.092   2.781   4.848  0.00  0.00    -0.023 A 
ATOM      6  C   UNL     1      -0.907   3.388   5.734  0.00  0.00    -0.004 A 
ATOM      7  S   UNL     1      -2.476   3.497   4.916  0.00  0.00    -0.073 S 
ATOM      8  C   UNL     1      -2.031   2.723   3.382  0.00  0.00    +0.117 A 
ATOM      9  C   UNL     1      -0.674   2.406   3.558  0.00  0.00    +0.076 A 
ATOM     10  C   UNL     1      -0.036   1.757   2.453  0.00  0.00    +0.263 A 
ATOM     11  O   UNL     1       1.140   1.444   2.515  0.00  0.00    -0.267 OA
ATOM     12  N   UNL     1      -0.754   1.498   1.345  0.00  0.00    -0.283 N 
ATOM     13  C   UNL     1      -2.071   1.847   1.256  0.00  0.00    +0.174 A 
ATOM     14  N   UNL     1      -2.683   2.441   2.260  0.00  0.00    -0.216 NA
ATOM     15  C   UNL     1      -0.557   3.866   7.110  0.00  0.00    +0.046 C 
ENDROOT
BRANCH  13  16
ATOM     16  S   UNL     1      -2.966   1.492  -0.220  0.00  0.00    -0.075 S 
BRANCH  16  17
ATOM     17  C   UNL     1      -4.588   2.155   0.229  0.00  0.00    +0.137 C 
ATOM     18  C   UNL     1      -4.487   3.671   0.415  0.00  0.00    +0.029 C 
BRANCH  17  19
ATOM     19  C   UNL     1      -5.577   1.849  -0.866  0.00  0.00    +0.230 C 
ATOM     20  O   UNL     1      -5.184   1.581  -1.981  0.00  0.00    -0.274 OA
ATOM     21  N   UNL     1      -6.900   1.872  -0.605  0.00  0.00    -0.285 N 
ATOM     22  H   UNL     1      -7.255   2.029   0.424  0.00  0.00    +0.155 HD
BRANCH  21  23
ATOM     23  C   UNL     1      -7.817   1.697  -1.641  0.00  0.00    +0.033 A 
ATOM     24  C   UNL     1      -7.527   2.179  -2.914  0.00  0.00    +0.024 A 
ATOM     25  C   UNL     1      -8.429   2.003  -3.939  0.00  0.00    +0.015 A 
ATOM     26  C   UNL     1      -9.641   1.351  -3.698  0.00  0.00    +0.037 A 
ATOM     27  C   UNL     1      -9.931   0.873  -2.417  0.00  0.00    +0.015 A 
ATOM     28  C   UNL     1      -9.023   1.047  -1.397  0.00  0.00    +0.024 A 
BRANCH  26  29
ATOM     29  C   UNL     1     -10.612   1.165  -4.794  0.00  0.00    +0.242 C 
ATOM     30  O   UNL     1     -11.666   0.597  -4.583  0.00  0.00    -0.270 OA
ATOM     31  N   UNL     1     -10.331   1.627  -6.029  0.00  0.00    -0.325 N 
ATOM     32  H   UNL     1     -11.054   1.489  -6.846  0.00  0.00    +0.145 HD
ATOM     33  H   UNL     1      -9.377   2.141  -6.220  0.00  0.00    +0.145 HD
ENDBRANCH  26  29
ENDBRANCH  21  23
ENDBRANCH  17  19
ENDBRANCH  16  17
ENDBRANCH  13  16
BRANCH  12  34
ATOM     34  C   UNL     1      -0.108   0.834   0.210  0.00  0.00    +0.154 C 
BRANCH  34  35
ATOM     35  C   UNL     1      -0.252  -0.659   0.353  0.00  0.00    -0.013 C 
ATOM     36  C   UNL     1      -0.787  -1.361  -0.615  0.00  0.00    +0.005 C 
ENDBRANCH  34  35
ENDBRANCH  12  34
TORSDOF 7
