REMARK  Name = ZINC38806430
REMARK  8 active torsions:
REMARK  status: ('A' for Active; 'I' for Inactive)
REMARK    1  A    between atoms: C_1  and  C_2
REMARK    2  A    between atoms: C_7  and  N_8
REMARK    3  A    between atoms: N_8  and  C_9
REMARK    4  A    between atoms: C_9  and  C_10
REMARK    5  A    between atoms: N_14  and  C_15
REMARK    6  A    between atoms: C_15  and  C_16
REMARK    7  A    between atoms: C_20  and  C_28
REMARK    8  A    between atoms: C_22  and  C_27
REMARK                            x       y       z     vdW  Elec       q    Type
REMARK                         _______ _______ _______ _____ _____    ______ ____
ROOT
ATOM      1  N   UNL     1       0.025  -0.015   2.417  0.00  0.00    -0.252 N 
ATOM      2  C   UNL     1      -1.141   0.302   3.014  0.00  0.00    +0.307 C 
ATOM      3  O   UNL     1      -2.195  -0.012   2.495  0.00  0.00    -0.252 OA
ATOM      4  N   UNL     1      -1.139   0.968   4.186  0.00  0.00    -0.295 N 
ATOM      5  H   UNL     1      -0.298   1.219   4.600  0.00  0.00    +0.151 HD
ENDROOT
BRANCH   1  12
ATOM      6  C   UNL     1      -0.018   1.503   0.010  0.00  0.00    +0.045 C 
ATOM      7  C   UNL     1       0.002  -0.004   0.002  0.00  0.00    -0.029 A 
ATOM      8  C   UNL     1       0.006  -0.689  -1.198  0.00  0.00    +0.005 A 
ATOM      9  C   UNL     1       0.024  -2.071  -1.206  0.00  0.00    +0.000 A 
ATOM     10  C   UNL     1       0.039  -2.773  -0.014  0.00  0.00    +0.002 A 
ATOM     11  C   UNL     1       0.035  -2.094   1.188  0.00  0.00    +0.024 A 
ATOM     12  C   UNL     1       0.023  -0.705   1.200  0.00  0.00    +0.041 A 
ENDBRANCH   1  12
BRANCH   1  13
ATOM     13  C   UNL     1       1.295   0.364   3.042  0.00  0.00    +0.142 C 
BRANCH  13  14
ATOM     14  C   UNL     1       1.707   1.730   2.555  0.00  0.00    -0.015 C 
ATOM     15  C   UNL     1       1.958   2.684   3.417  0.00  0.00    +0.005 C 
ENDBRANCH  13  14
ENDBRANCH   1  13
BRANCH   4  16
ATOM     16  C   UNL     1      -2.406   1.312   4.835  0.00  0.00    +0.144 C 
BRANCH  16  17
ATOM     17  C   UNL     1      -2.129   2.047   6.121  0.00  0.00    +0.007 A 
ATOM     18  C   UNL     1      -2.328   3.396   6.194  0.00  0.00    +0.018 A 
ATOM     19  C   UNL     1      -2.056   4.043   7.414  0.00  0.00    +0.001 A 
ATOM     20  C   UNL     1      -2.238   5.428   7.563  0.00  0.00    +0.013 A 
ATOM     21  C   UNL     1      -1.964   6.017   8.760  0.00  0.00    -0.050 A 
ATOM     22  C   UNL     1      -1.506   5.264   9.839  0.00  0.00    +0.008 A 
ATOM     23  C   UNL     1      -1.318   3.921   9.730  0.00  0.00    -0.024 A 
ATOM     24  C   UNL     1      -1.590   3.276   8.511  0.00  0.00    +0.076 A 
ATOM     25  N   UNL     1      -1.417   1.958   8.374  0.00  0.00    -0.235 NA
ATOM     26  C   UNL     1      -1.674   1.350   7.240  0.00  0.00    +0.135 A 
ATOM     27 CL   UNL     1      -1.435  -0.366   7.127  0.00  0.00    -0.062 Cl
ATOM     28  C   UNL     1      -0.822   3.128  10.911  0.00  0.00    +0.046 C 
ATOM     29  C   UNL     1      -2.159   7.503   8.919  0.00  0.00    +0.044 C 
ENDBRANCH  16  17
ENDBRANCH   4  16
TORSDOF 5
