REMARK  Name = ZINC63439848
REMARK  6 active torsions:
REMARK  status: ('A' for Active; 'I' for Inactive)
REMARK    1  A    between atoms: C_1  and  C_2
REMARK    2  A    between atoms: C_2  and  O_3
REMARK    3  A    between atoms: O_3  and  C_4
REMARK    4  A    between atoms: C_4  and  C_6
REMARK    5  A    between atoms: C_8  and  N_16
REMARK    6  A    between atoms: C_17  and  C_19
REMARK                            x       y       z     vdW  Elec       q    Type
REMARK                         _______ _______ _______ _____ _____    ______ ____
ROOT
ATOM      1  N   UNL     1      -3.452  -1.315   2.125  0.00  0.00    -0.286 N 
ATOM      2  C   UNL     1      -4.126  -1.404   3.288  0.00  0.00    +0.225 C 
ATOM      3  O   UNL     1      -4.419  -2.492   3.737  0.00  0.00    -0.275 OA
ATOM      4  H   UNL     1      -3.155  -0.451   1.801  0.00  0.00    +0.155 HD
ENDROOT
BRANCH   2   5
ATOM      5  C   UNL     1      -4.514  -0.152   4.032  0.00  0.00    +0.119 C 
ATOM      6  C   UNL     1      -5.574   0.588   3.254  0.00  0.00    +0.007 A 
ATOM      7  C   UNL     1      -5.440   0.692   1.879  0.00  0.00    +0.008 A 
ATOM      8  C   UNL     1      -6.390   1.363   1.135  0.00  0.00    +0.001 A 
ATOM      9  C   UNL     1      -7.482   1.935   1.761  0.00  0.00    +0.004 A 
ATOM     10  C   UNL     1      -7.622   1.834   3.130  0.00  0.00    +0.046 A 
ATOM     11  C   UNL     1      -6.667   1.159   3.884  0.00  0.00    +0.125 A 
ATOM     12  O   UNL     1      -6.843   1.080   5.231  0.00  0.00    -0.484 OA
ATOM     13  C   UNL     1      -5.704   0.733   6.018  0.00  0.00    +0.204 C 
ATOM     14  C   UNL     1      -5.070  -0.526   5.408  0.00  0.00    +0.073 C 
ATOM     15  C   UNL     1      -3.965  -1.011   6.307  0.00  0.00    -0.018 C 
ATOM     16  C   UNL     1      -4.104  -0.914   7.627  0.00  0.00    -0.004 C 
ATOM     17  C   UNL     1      -5.341  -0.345   8.191  0.00  0.00    -0.001 C 
ATOM     18  C   UNL     1      -6.108   0.453   7.439  0.00  0.00    +0.017 C 
ENDBRANCH   2   5
BRANCH   1  20
ATOM     19  C   UNL     1      -3.719  -3.833   1.656  0.00  0.00    +0.234 C 
ATOM     20  C   UNL     1      -3.188  -2.440   1.402  0.00  0.00    +0.053 C 
ATOM     21  C   UNL     1      -2.379  -2.544   0.284  0.00  0.00    +0.018 A 
ATOM     22  C   UNL     1      -1.612  -1.594  -0.432  0.00  0.00    +0.011 A 
ATOM     23  C   UNL     1      -0.898  -1.986  -1.516  0.00  0.00    +0.001 A 
ATOM     24  C   UNL     1      -0.898  -3.314  -1.952  0.00  0.00    +0.002 A 
ATOM     25  C   UNL     1      -1.609  -4.277  -1.317  0.00  0.00    +0.026 A 
ATOM     26  C   UNL     1      -2.381  -3.945  -0.173  0.00  0.00    +0.045 A 
ATOM     27  N   UNL     1      -3.145  -4.684   0.609  0.00  0.00    -0.367 N 
ATOM     28  H   UNL     1      -3.301  -5.636   0.508  0.00  0.00    +0.161 HD
BRANCH  19  29
ATOM     29  C   UNL     1      -5.223  -3.841   1.563  0.00  0.00    +0.336 C 
ATOM     30  O   UNL     1      -5.762  -3.842   0.482  0.00  0.00    -0.248 OA
BRANCH  29  31
ATOM     31  O   UNL     1      -5.965  -3.845   2.682  0.00  0.00    -0.463 OA
BRANCH  31  33
ATOM     32  C   UNL     1      -8.056  -3.856   3.895  0.00  0.00    +0.048 C 
ATOM     33  C   UNL     1      -7.385  -3.852   2.520  0.00  0.00    +0.229 C 
ENDBRANCH  31  33
ENDBRANCH  29  31
ENDBRANCH  19  29
ENDBRANCH   1  20
TORSDOF 5
