REMARK  Name = ZINC16247692
REMARK  8 active torsions:
REMARK  status: ('A' for Active; 'I' for Inactive)
REMARK    1  A    between atoms: C_1  and  C_2
REMARK    2  A    between atoms: C_2  and  C_3
REMARK    3  A    between atoms: C_2  and  C_4
REMARK    4  A    between atoms: C_2  and  C_5
REMARK    5  A    between atoms: C_8  and  C_11
REMARK    6  A    between atoms: C_11  and  O_13
REMARK    7  A    between atoms: O_13  and  C_14
REMARK    8  A    between atoms: C_18  and  C_20
REMARK                            x       y       z     vdW  Elec       q    Type
REMARK                         _______ _______ _______ _____ _____    ______ ____
ROOT
ATOM      1  C   UNL     1       1.307   2.208   0.124  0.00  0.00    +0.133 A 
ATOM      2  C   UNL     1       0.428   1.616  -0.774  0.00  0.00    +0.046 A 
ATOM      3  C   UNL     1       0.078   0.285  -0.634  0.00  0.00    +0.004 A 
ATOM      4  C   UNL     1       0.599  -0.465   0.400  0.00  0.00    +0.008 A 
ATOM      5  C   UNL     1       1.486   0.121   1.310  0.00  0.00    -0.020 A 
ATOM      6  C   UNL     1       1.838   1.467   1.166  0.00  0.00    +0.054 A 
ENDROOT
BRANCH   5   7
ATOM      7  C   UNL     1       2.044  -0.674   2.413  0.00  0.00    +0.028 C 
ATOM      8  C   UNL     1       3.002  -0.144   3.214  0.00  0.00    +0.077 C 
ATOM      9  C   UNL     1       3.644  -0.712   4.418  0.00  0.00    +0.256 C 
ATOM     10  O   UNL     1       3.346  -1.813   4.844  0.00  0.00    -0.269 OA
ATOM     11  N   UNL     1       4.560   0.036   5.009  0.00  0.00    -0.270 N 
ATOM     12  C   UNL     1       4.888   1.255   4.534  0.00  0.00    +0.118 C 
ATOM     13  S   UNL     1       6.037   2.363   5.153  0.00  0.00    -0.027 S 
ATOM     14  S   UNL     1       3.840   1.431   3.100  0.00  0.00    -0.061 S 
ATOM     15  H   UNL     1       5.007  -0.299   5.803  0.00  0.00    +0.156 HD
ENDBRANCH   5   7
BRANCH   1  16
ATOM     16  O   UNL     1       1.647   3.516  -0.020  0.00  0.00    -0.422 OA
BRANCH  16  17
ATOM     17  C   UNL     1       0.747   4.431   0.391  0.00  0.00    +0.344 C 
ATOM     18  O   UNL     1      -0.346   4.074   0.782  0.00  0.00    -0.245 OA
BRANCH  17  22
ATOM     19  C   UNL     1       1.732   8.561   0.316  0.00  0.00    -0.042 A 
ATOM     20  C   UNL     1       0.486   8.158   0.763  0.00  0.00    +0.005 A 
ATOM     21  C   UNL     1       0.159   6.818   0.790  0.00  0.00    +0.015 A 
ATOM     22  C   UNL     1       1.090   5.867   0.365  0.00  0.00    +0.059 A 
ATOM     23  C   UNL     1       2.347   6.280  -0.080  0.00  0.00    +0.015 A 
ATOM     24  C   UNL     1       2.659   7.624  -0.106  0.00  0.00    +0.005 A 
BRANCH  19  26
ATOM     25  C   UNL     1       1.992  10.598   1.706  0.00  0.00    +0.015 C 
ATOM     26  C   UNL     1       2.081  10.026   0.290  0.00  0.00    -0.013 C 
ATOM     27  C   UNL     1       3.505  10.202  -0.242  0.00  0.00    +0.015 C 
ATOM     28  C   UNL     1       1.101  10.768  -0.622  0.00  0.00    +0.015 C 
ENDBRANCH  19  26
ENDBRANCH  17  22
ENDBRANCH  16  17
ENDBRANCH   1  16
TORSDOF 5
