REMARK  Name = ZINC39301706
REMARK  7 active torsions:
REMARK  status: ('A' for Active; 'I' for Inactive)
REMARK    1  A    between atoms: C_1  and  C_2
REMARK    2  A    between atoms: C_5  and  N_9
REMARK    3  A    between atoms: C_6  and  C_7
REMARK    4  A    between atoms: C_10  and  C_12
REMARK    5  A    between atoms: C_12  and  N_13
REMARK    6  A    between atoms: N_27  and  C_29
REMARK    7  A    between atoms: C_29  and  C_30
REMARK                            x       y       z     vdW  Elec       q    Type
REMARK                         _______ _______ _______ _____ _____    ______ ____
ROOT
ATOM      1  N   UNL     1       0.131  -6.793   2.218  0.00  0.00    -0.291 NA
ATOM      2  C   UNL     1       1.353  -7.044   1.442  0.00  0.00    +0.104 C 
ATOM      3  C   UNL     1       1.225  -8.387   0.716  0.00  0.00    +0.122 C 
ATOM      4  N   UNL     1       0.893  -9.423   1.705  0.00  0.00    -0.312 N 
ATOM      5  C   UNL     1      -0.238  -9.181   2.613  0.00  0.00    +0.122 C 
ATOM      6  C   UNL     1      -0.053  -7.806   3.265  0.00  0.00    +0.104 C 
ATOM      7  C   UNL     1       1.625 -10.597   1.779  0.00  0.00    +0.126 A 
ATOM      8  C   UNL     1       1.224 -11.731   1.065  0.00  0.00    -0.003 A 
ATOM      9  C   UNL     1       1.984 -12.872   1.169  0.00  0.00    +0.046 A 
ATOM     10  N   UNL     1       3.066 -12.862   1.940  0.00  0.00    -0.240 NA
ATOM     11  C   UNL     1       3.418 -11.779   2.600  0.00  0.00    +0.223 A 
ATOM     12  N   UNL     1       2.724 -10.662   2.524  0.00  0.00    -0.221 NA
ATOM     13  C   UNL     1       1.617 -14.129   0.425  0.00  0.00    +0.037 C 
ATOM     14  C   UNL     1       0.166 -14.042  -0.050  0.00  0.00    -0.072 C 
ATOM     15  N   UNL     1      -0.023 -12.767  -0.758  0.00  0.00    +0.385 N 
ATOM     16  C   UNL     1      -0.015 -11.672   0.217  0.00  0.00    -0.037 C 
ATOM     17  H   UNL     1       0.727 -12.635  -1.421  0.00  0.00    -0.081 HD
ENDROOT
BRANCH   1  18
ATOM     18  C   UNL     1       0.140  -5.440   2.791  0.00  0.00    +0.181 C 
BRANCH  18  20
ATOM     19  N   UNL     1       0.081  -3.107   1.970  0.00  0.00    -0.278 N 
ATOM     20  C   UNL     1       0.083  -4.423   1.680  0.00  0.00    +0.232 C 
ATOM     21  O   UNL     1       0.039  -4.790   0.524  0.00  0.00    -0.274 OA
ATOM     22  H   UNL     1       0.116  -2.814   2.894  0.00  0.00    +0.155 HD
BRANCH  19  27
ATOM     23  C   UNL     1      -0.059   1.464  -0.206  0.00  0.00    +0.045 C 
ATOM     24  C   UNL     1      -0.042  -0.043  -0.180  0.00  0.00    -0.024 A 
ATOM     25  C   UNL     1      -0.081  -0.778  -1.308  0.00  0.00    +0.051 A 
ATOM     26  S   UNL     1      -0.037  -2.452  -0.706  0.00  0.00    -0.080 S 
ATOM     27  C   UNL     1       0.029  -2.171   0.946  0.00  0.00    +0.090 A 
ATOM     28  C   UNL     1       0.023  -0.789   1.055  0.00  0.00    +0.083 A 
BRANCH  28  29
ATOM     29  C   UNL     1       0.075  -0.134   2.328  0.00  0.00    +0.102 C 
ATOM     30  N   UNL     1       0.116   0.386   3.337  0.00  0.00    -0.191 NA
ENDBRANCH  28  29
ENDBRANCH  19  27
ENDBRANCH  18  20
ENDBRANCH   1  18
BRANCH  15  31
ATOM     31  C   UNL     1      -1.310 -12.785  -1.467  0.00  0.00    -0.043 C 
BRANCH  31  32
ATOM     32  C   UNL     1      -1.275 -13.837  -2.545  0.00  0.00    -0.064 A 
ATOM     33  C   UNL     1      -0.837 -13.512  -3.815  0.00  0.00    +0.002 A 
ATOM     34  C   UNL     1      -0.805 -14.477  -4.804  0.00  0.00    +0.000 A 
ATOM     35  C   UNL     1      -1.211 -15.768  -4.522  0.00  0.00    +0.000 A 
ATOM     36  C   UNL     1      -1.648 -16.094  -3.252  0.00  0.00    +0.000 A 
ATOM     37  C   UNL     1      -1.676 -15.130  -2.262  0.00  0.00    +0.002 A 
ENDBRANCH  31  32
ENDBRANCH  15  31
TORSDOF 6
