REMARK  Name = ZINC36819136
REMARK  4 active torsions:
REMARK  status: ('A' for Active; 'I' for Inactive)
REMARK    1  A    between atoms: C_3  and  C_11
REMARK    2  A    between atoms: C_5  and  C_6
REMARK    3  A    between atoms: C_6  and  N_7
REMARK    4  A    between atoms: N_7  and  C_8
REMARK                            x       y       z     vdW  Elec       q    Type
REMARK                         _______ _______ _______ _____ _____    ______ ____
ROOT
ATOM      1  C   UNL     1      -0.016   1.343   0.009  0.00  0.00    +0.043 A 
ATOM      2  C   UNL     1       1.326   1.774  -0.001  0.00  0.00    +0.050 A 
ATOM      3  C   UNL     1       2.097   0.654  -0.014  0.00  0.00    +0.137 A 
ATOM      4  O   UNL     1       1.280  -0.417  -0.012  0.00  0.00    -0.462 OA
ATOM      5  C   UNL     1       0.002  -0.004   0.002  0.00  0.00    +0.089 A 
ENDROOT
BRANCH   3   6
ATOM      6  C   UNL     1       3.574   0.619  -0.029  0.00  0.00    +0.045 A 
ATOM      7  C   UNL     1       4.277   1.123  -1.126  0.00  0.00    +0.031 A 
ATOM      8  C   UNL     1       5.657   1.087  -1.133  0.00  0.00    +0.031 A 
ATOM      9  C   UNL     1       6.344   0.553  -0.056  0.00  0.00    +0.020 A 
ATOM     10  C   UNL     1       5.653   0.051   1.033  0.00  0.00    +0.031 A 
ATOM     11  C   UNL     1       4.274   0.086   1.056  0.00  0.00    +0.031 A 
ATOM     12 BR   UNL     1       3.333  -0.593   2.549  0.00  0.00    -0.049 Br
ATOM     13 BR   UNL     1       8.234   0.508  -0.075  0.00  0.00    -0.050 Br
ATOM     14 BR   UNL     1       3.340   1.853  -2.598  0.00  0.00    -0.049 Br
ENDBRANCH   3   6
BRANCH   5  15
ATOM     15  C   UNL     1      -1.210  -0.899   0.009  0.00  0.00    -0.007 C 
BRANCH  15  16
ATOM     16  N   UNL     1      -1.617  -1.183  -1.374  0.00  0.00    +0.386 N 
ATOM     17  H   UNL     1      -1.841  -0.318  -1.843  0.00  0.00    -0.085 HD
ATOM     18  H   UNL     1      -0.862  -1.643  -1.859  0.00  0.00    -0.085 HD
BRANCH  16  19
ATOM     19  C   UNL     1      -2.799  -2.055  -1.367  0.00  0.00    -0.071 C 
ATOM     20  C   UNL     1      -2.651  -3.450  -1.979  0.00  0.00    -0.017 C 
ATOM     21  C   UNL     1      -3.450  -2.373  -2.715  0.00  0.00    -0.017 C 
ENDBRANCH  16  19
ENDBRANCH  15  16
ENDBRANCH   5  15
TORSDOF 4
