REMARK  Name = ZINC41013478
REMARK  9 active torsions:
REMARK  status: ('A' for Active; 'I' for Inactive)
REMARK    1  A    between atoms: C_1  and  C_2
REMARK    2  A    between atoms: C_4  and  C_27
REMARK    3  A    between atoms: C_6  and  O_8
REMARK    4  A    between atoms: O_8  and  C_9
REMARK    5  A    between atoms: C_9  and  C_11
REMARK    6  A    between atoms: C_9  and  C_12
REMARK    7  A    between atoms: N_14  and  C_15
REMARK    8  A    between atoms: C_15  and  C_16
REMARK    9  A    between atoms: N_21  and  C_22
REMARK                            x       y       z     vdW  Elec       q    Type
REMARK                         _______ _______ _______ _____ _____    ______ ____
ROOT
ATOM      1  C   UNL     1      -0.445  -2.827   4.718  0.00  0.00    +0.254 C 
ATOM      2  O   UNL     1      -0.826  -3.967   4.558  0.00  0.00    -0.272 OA
ATOM      3  N   UNL     1      -0.546  -2.247   5.931  0.00  0.00    -0.307 N 
ATOM      4  H   UNL     1      -0.242  -1.335   6.059  0.00  0.00    +0.149 HD
ENDROOT
BRANCH   1   5
ATOM      5  C   UNL     1       0.142  -2.059   3.562  0.00  0.00    +0.255 C 
ATOM      6  C   UNL     1       1.615  -1.758   3.845  0.00  0.00    +0.062 C 
BRANCH   5   7
ATOM      7  O   UNL     1       0.036  -2.838   2.369  0.00  0.00    -0.480 OA
BRANCH   7  13
ATOM      8  C   UNL     1       0.032  -2.934  -2.510  0.00  0.00    +0.044 C 
ATOM      9  C   UNL     1       0.050  -2.176  -1.208  0.00  0.00    -0.047 A 
ATOM     10  C   UNL     1       0.082  -0.794  -1.214  0.00  0.00    +0.007 A 
ATOM     11  C   UNL     1       0.098  -0.096  -0.020  0.00  0.00    -0.047 A 
ATOM     12  C   UNL     1       0.083  -0.778   1.181  0.00  0.00    +0.049 A 
ATOM     13  C   UNL     1       0.051  -2.165   1.189  0.00  0.00    +0.122 A 
ATOM     14  C   UNL     1       0.029  -2.863  -0.010  0.00  0.00    +0.049 A 
ATOM     15  C   UNL     1       0.132   1.411  -0.030  0.00  0.00    +0.044 C 
ENDBRANCH   7  13
ENDBRANCH   5   7
ENDBRANCH   1   5
BRANCH   3  16
ATOM     16  C   UNL     1      -1.117  -2.994   7.054  0.00  0.00    +0.158 C 
BRANCH  16  17
ATOM     17  C   UNL     1      -1.117  -2.126   8.286  0.00  0.00    +0.052 A 
ATOM     18  C   UNL     1      -2.274  -1.755   8.843  0.00  0.00    +0.071 A 
ATOM     19  S   UNL     1      -1.713  -0.771  10.224  0.00  0.00    -0.070 S 
ATOM     20  C   UNL     1       0.043  -0.939   9.941  0.00  0.00    +0.133 A 
ATOM     21  S   UNL     1       1.351  -0.287  10.831  0.00  0.00    -0.024 S 
ATOM     22  N   UNL     1       0.062  -1.724   8.836  0.00  0.00    -0.270 N 
BRANCH  22  23
ATOM     23  C   UNL     1       1.276  -2.111   8.266  0.00  0.00    +0.206 A 
ATOM     24  C   UNL     1       2.505  -1.867   8.777  0.00  0.00    +0.069 A 
ATOM     25  C   UNL     1       3.439  -2.433   7.879  0.00  0.00    +0.043 A 
ATOM     26  C   UNL     1       2.733  -2.987   6.877  0.00  0.00    +0.197 A 
ATOM     27  O   UNL     1       1.424  -2.795   7.118  0.00  0.00    -0.447 OA
ENDBRANCH  22  23
ENDBRANCH  16  17
ENDBRANCH   3  16
TORSDOF 6
