REMARK  Name = ZINC10028132
REMARK  13 active torsions:
REMARK  status: ('A' for Active; 'I' for Inactive)
REMARK    1  A    between atoms: C_1  and  C_2
REMARK    2  A    between atoms: C_2  and  C_3
REMARK    3  A    between atoms: C_2  and  N_60
REMARK    4  A    between atoms: C_9  and  N_15
REMARK    5  A    between atoms: C_10  and  C_11
REMARK    6  A    between atoms: C_11  and  O_13
REMARK    7  A    between atoms: O_13  and  C_14
REMARK    8  A    between atoms: C_16  and  C_18
REMARK    9  A    between atoms: C_18  and  C_19
REMARK   10  A    between atoms: C_19  and  S_20
REMARK   11  A    between atoms: S_20  and  C_23
REMARK   12  A    between atoms: C_26  and  O_29
REMARK   13  A    between atoms: O_29  and  C_30
REMARK                            x       y       z     vdW  Elec       q    Type
REMARK                         _______ _______ _______ _____ _____    ______ ____
ROOT
ATOM      1  C   UNL     1       7.045  -0.003   0.377  0.00  0.00    -0.073 C 
ATOM      2  C   UNL     1       6.217   1.214  -0.048  0.00  0.00    +0.018 C 
ATOM      3  C   UNL     1       4.746   0.814  -0.038  0.00  0.00    -0.025 A 
ATOM      4  C   UNL     1       4.398  -0.493  -0.043  0.00  0.00    -0.021 A 
ATOM      5  S   UNL     1       2.630  -0.489  -0.026  0.00  0.00    -0.079 S 
ATOM      6  C   UNL     1       2.353   1.222  -0.014  0.00  0.00    +0.086 A 
ATOM      7  C   UNL     1       3.638   1.751  -0.029  0.00  0.00    +0.091 A 
ATOM      8  C   UNL     1       5.333  -1.661  -0.060  0.00  0.00    -0.035 C 
ATOM      9  N   UNL     1       6.673  -1.164  -0.458  0.00  0.00    +0.384 N 
ATOM     10  H   UNL     1       6.643  -0.873  -1.442  0.00  0.00    -0.081 HD
ENDROOT
BRANCH   6  11
ATOM     11  N   UNL     1       1.143   1.898   0.001  0.00  0.00    -0.279 N 
ATOM     12  C   UNL     1      -0.014   1.209   0.009  0.00  0.00    +0.219 C 
ATOM     13  O   UNL     1       0.002  -0.004   0.002  0.00  0.00    -0.275 OA
ATOM     14  H   UNL     1       1.130   2.868   0.007  0.00  0.00    +0.155 HD
BRANCH  12  15
ATOM     15  C   UNL     1      -1.330   1.944   0.019  0.00  0.00    +0.119 C 
BRANCH  15  16
ATOM     16  C   UNL     1      -2.479   0.934   0.019  0.00  0.00    +0.181 C 
BRANCH  16  17
ATOM     17  S   UNL     1      -4.062   1.820   0.031  0.00  0.00    -0.003 S 
ATOM     18  O   UNL     1      -4.237   2.493   1.270  0.00  0.00    -0.169 OA
ATOM     19  O   UNL     1      -4.248   2.507  -1.199  0.00  0.00    -0.169 OA
BRANCH  17  20
ATOM     20  C   UNL     1      -5.288   0.555   0.030  0.00  0.00    +0.088 A 
ATOM     21  C   UNL     1      -5.779   0.070  -1.168  0.00  0.00    +0.030 A 
ATOM     22  C   UNL     1      -6.736  -0.926  -1.172  0.00  0.00    +0.047 A 
ATOM     23  C   UNL     1      -7.214  -1.431   0.029  0.00  0.00    +0.120 A 
ATOM     24  C   UNL     1      -6.725  -0.939   1.230  0.00  0.00    +0.047 A 
ATOM     25  C   UNL     1      -5.763   0.053   1.228  0.00  0.00    +0.030 A 
BRANCH  23  26
ATOM     26  O   UNL     1      -8.160  -2.407   0.028  0.00  0.00    -0.495 OA
ATOM     27  C   UNL     1      -8.617  -2.866  -1.246  0.00  0.00    +0.277 C 
ENDBRANCH  23  26
ENDBRANCH  17  20
ENDBRANCH  16  17
ENDBRANCH  15  16
ENDBRANCH  12  15
ENDBRANCH   6  11
BRANCH   9  29
ATOM     28  C   UNL     1       7.737  -2.713   1.149  0.00  0.00    -0.014 C 
ATOM     29  C   UNL     1       7.677  -2.239  -0.305  0.00  0.00    -0.074 C 
ATOM     30  C   UNL     1       7.291  -3.412  -1.208  0.00  0.00    -0.014 C 
ENDBRANCH   9  29
BRANCH   7  31
ATOM     31  C   UNL     1       3.865   3.197  -0.031  0.00  0.00    +0.342 C 
ATOM     32  O   UNL     1       3.972   3.798   1.021  0.00  0.00    -0.245 OA
BRANCH  31  33
ATOM     33  O   UNL     1       3.955   3.864  -1.200  0.00  0.00    -0.464 OA
ATOM     34  C   UNL     1       4.181   5.296  -1.127  0.00  0.00    +0.280 C 
ENDBRANCH  31  33
ENDBRANCH   7  31
TORSDOF 9
