REMARK  Name = ZINC65492360
REMARK  7 active torsions:
REMARK  status: ('A' for Active; 'I' for Inactive)
REMARK    1  A    between atoms: C_1  and  C_2
REMARK    2  A    between atoms: C_17  and  C_19
REMARK    3  A    between atoms: C_20  and  C_21
REMARK    4  A    between atoms: C_23  and  O_29
REMARK    5  A    between atoms: C_25  and  O_27
REMARK    6  A    between atoms: O_27  and  C_28
REMARK    7  A    between atoms: O_29  and  C_30
REMARK                            x       y       z     vdW  Elec       q    Type
REMARK                         _______ _______ _______ _____ _____    ______ ____
ROOT
ATOM      1  C   UNL     1      -0.022   1.528   0.015  0.00  0.00    +0.035 C 
ATOM      2  C   UNL     1      -0.008  -0.002   0.011  0.00  0.00    +0.120 C 
ATOM      3  C   UNL     1      -1.415  -0.530   0.176  0.00  0.00    +0.041 A 
ATOM      4  C   UNL     1      -1.754  -1.482   1.073  0.00  0.00    -0.016 A 
ATOM      5  C   UNL     1      -3.176  -1.716   0.924  0.00  0.00    +0.003 A 
ATOM      6  C   UNL     1      -4.067  -2.579   1.570  0.00  0.00    +0.010 A 
ATOM      7  C   UNL     1      -5.378  -2.534   1.164  0.00  0.00    +0.001 A 
ATOM      8  C   UNL     1      -5.810  -1.680   0.162  0.00  0.00    +0.002 A 
ATOM      9  C   UNL     1      -4.950  -0.817  -0.494  0.00  0.00    +0.026 A 
ATOM     10  C   UNL     1      -3.612  -0.840  -0.103  0.00  0.00    +0.047 A 
ATOM     11  N   UNL     1      -2.522  -0.139  -0.530  0.00  0.00    -0.356 N 
ATOM     12  H   UNL     1      -2.529   0.534  -1.228  0.00  0.00    +0.166 HD
ATOM     13  C   UNL     1      -0.794  -2.140   2.030  0.00  0.00    +0.056 C 
ATOM     14  C   UNL     1       0.640  -1.907   1.539  0.00  0.00    +0.113 C 
ATOM     15  N   UNL     1       0.789  -0.498   1.146  0.00  0.00    -0.289 N 
ATOM     16  C   UNL     1       1.632   0.319   1.808  0.00  0.00    +0.240 C 
ATOM     17  O   UNL     1       1.678   1.502   1.528  0.00  0.00    -0.271 OA
ENDROOT
BRANCH  16  18
ATOM     18  C   UNL     1       2.493  -0.218   2.864  0.00  0.00    +0.068 C 
ATOM     19  C   UNL     1       3.255   0.616   3.601  0.00  0.00    +0.013 C 
BRANCH  19  20
ATOM     20  C   UNL     1       4.120   0.076   4.663  0.00  0.00    -0.018 A 
ATOM     21  C   UNL     1       4.157  -1.300   4.906  0.00  0.00    +0.053 A 
ATOM     22  C   UNL     1       4.973  -1.802   5.905  0.00  0.00    +0.124 A 
ATOM     23  C   UNL     1       5.753  -0.941   6.666  0.00  0.00    +0.091 A 
ATOM     24  C   UNL     1       5.719   0.426   6.429  0.00  0.00    +0.124 A 
ATOM     25  C   UNL     1       4.911   0.938   5.428  0.00  0.00    +0.053 A 
BRANCH  24  26
ATOM     26  O   UNL     1       6.484   1.263   7.178  0.00  0.00    -0.495 OA
ATOM     27  C   UNL     1       7.298   0.667   8.190  0.00  0.00    +0.277 C 
ENDBRANCH  24  26
BRANCH  22  28
ATOM     28  O   UNL     1       5.011  -3.139   6.143  0.00  0.00    -0.495 OA
ATOM     29  C   UNL     1       5.874  -3.588   7.189  0.00  0.00    +0.277 C 
ENDBRANCH  22  28
ENDBRANCH  19  20
ENDBRANCH  16  18
TORSDOF 4
