REMARK  Name = ZINC40417980
REMARK  8 active torsions:
REMARK  status: ('A' for Active; 'I' for Inactive)
REMARK    1  A    between atoms: C_1  and  C_2
REMARK    2  A    between atoms: C_3  and  S_9
REMARK    3  A    between atoms: C_4  and  C_8
REMARK    4  A    between atoms: S_9  and  N_12
REMARK    5  A    between atoms: N_12  and  C_13
REMARK    6  A    between atoms: C_18  and  N_19
REMARK    7  A    between atoms: N_19  and  C_20
REMARK    8  A    between atoms: N_19  and  C_21
REMARK                            x       y       z     vdW  Elec       q    Type
REMARK                         _______ _______ _______ _____ _____    ______ ____
ROOT
ATOM      1  N   UNL     1       1.569  -0.072  -3.243  0.00  0.00    -0.214 N 
ATOM      2  H   UNL     1       1.910   0.806  -3.473  0.00  0.00    +0.174 HD
ENDROOT
BRANCH   1   3
ATOM      3  C   UNL     1       2.433  -1.174  -3.220  0.00  0.00    +0.070 A 
ATOM      4  C   UNL     1       1.981  -2.420  -3.628  0.00  0.00    +0.041 A 
ATOM      5  C   UNL     1       2.836  -3.507  -3.605  0.00  0.00    +0.020 A 
ATOM      6  C   UNL     1       4.142  -3.356  -3.175  0.00  0.00    +0.017 A 
ATOM      7  C   UNL     1       4.600  -2.117  -2.767  0.00  0.00    +0.026 A 
ATOM      8  C   UNL     1       3.751  -1.021  -2.793  0.00  0.00    +0.052 A 
ATOM      9 BR   UNL     1       2.217  -5.205  -4.162  0.00  0.00    -0.050 Br
BRANCH   8  10
ATOM     10  N   UNL     1       4.215   0.236  -2.385  0.00  0.00    -0.335 N 
ATOM     11  C   UNL     1       4.814   1.149  -3.362  0.00  0.00    +0.129 C 
ATOM     12  C   UNL     1       4.102   0.639  -0.981  0.00  0.00    +0.129 C 
ENDBRANCH   8  10
ENDBRANCH   1   3
BRANCH   1  13
ATOM     13  S   UNL     1      -0.034  -0.269  -2.876  0.00  0.00    +0.076 S 
ATOM     14  O   UNL     1      -0.504  -1.346  -3.674  0.00  0.00    -0.150 OA
ATOM     15  O   UNL     1      -0.622   1.024  -2.919  0.00  0.00    -0.150 OA
BRANCH  13  18
ATOM     16  C   UNL     1      -0.258   1.498  -0.115  0.00  0.00    +0.067 C 
ATOM     17  C   UNL     1      -0.214  -0.009  -0.111  0.00  0.00    +0.060 A 
ATOM     18  C   UNL     1      -0.122  -0.807  -1.200  0.00  0.00    +0.151 A 
ATOM     19  C   UNL     1      -0.111  -2.135  -0.761  0.00  0.00    +0.087 A 
ATOM     20  N   UNL     1      -0.193  -2.134   0.545  0.00  0.00    -0.177 NA
ATOM     21  N   UNL     1      -0.254  -0.803   0.979  0.00  0.00    -0.280 N 
ATOM     22  H   UNL     1      -0.316  -0.505   1.900  0.00  0.00    +0.189 HD
ATOM     23  C   UNL     1      -0.021  -3.356  -1.639  0.00  0.00    +0.069 C 
ENDBRANCH  13  18
ENDBRANCH   1  13
TORSDOF 4
