REMARK  Name = ZINC50999225
REMARK  5 active torsions:
REMARK  status: ('A' for Active; 'I' for Inactive)
REMARK    1  A    between atoms: C_1  and  C_2
REMARK    2  A    between atoms: C_2  and  C_3
REMARK    3  A    between atoms: C_2  and  C_4
REMARK    4  A    between atoms: C_6  and  C_13
REMARK    5  A    between atoms: N_8  and  C_9
REMARK                            x       y       z     vdW  Elec       q    Type
REMARK                         _______ _______ _______ _____ _____    ______ ____
ROOT
ATOM      1  C   UNL     1      -1.392  -0.601   0.136  0.00  0.00    +0.079 C 
ATOM      2  N   UNL     1      -2.376   0.041   0.660  0.00  0.00    -0.363 N 
ATOM      3  C   UNL     1      -3.620  -0.663   0.314  0.00  0.00    +0.172 C 
ATOM      4  C   UNL     1      -3.151  -1.843  -0.517  0.00  0.00    +0.101 C 
ATOM      5  N   UNL     1      -1.780  -1.706  -0.568  0.00  0.00    -0.275 N 
ATOM      6  N   UNL     1      -3.875  -2.766  -1.059  0.00  0.00    -0.388 N 
ATOM      7  H   UNL     1      -4.842  -2.711  -1.017  0.00  0.00    +0.157 HD
ATOM      8  H   UNL     1      -3.450  -3.514  -1.507  0.00  0.00    +0.157 HD
ATOM      9  H   UNL     1      -2.308   0.850   1.191  0.00  0.00    +0.162 HD
ENDROOT
BRANCH   3  10
ATOM     10  C   UNL     1      -4.525   0.228  -0.497  0.00  0.00    -0.015 A 
ATOM     11  C   UNL     1      -3.989   1.069  -1.454  0.00  0.00    +0.007 A 
ATOM     12  C   UNL     1      -4.817   1.888  -2.199  0.00  0.00    +0.023 A 
ATOM     13  C   UNL     1      -6.184   1.866  -1.986  0.00  0.00    +0.076 A 
ATOM     14  C   UNL     1      -6.722   1.023  -1.027  0.00  0.00    +0.142 A 
ATOM     15  C   UNL     1      -5.891   0.201  -0.286  0.00  0.00    +0.046 A 
ATOM     16  F   UNL     1      -8.056   1.001  -0.818  0.00  0.00    -0.204 F 
ATOM     17 CL   UNL     1      -7.225   2.895  -2.921  0.00  0.00    -0.081 Cl
ENDBRANCH   3  10
BRANCH   1  19
ATOM     18  C   UNL     1       0.114   1.349   0.415  0.00  0.00    +0.015 C 
ATOM     19  C   UNL     1       0.046  -0.173   0.278  0.00  0.00    +0.044 C 
ATOM     20  C   UNL     1       0.651  -0.825   1.523  0.00  0.00    +0.015 C 
ENDBRANCH   1  19
BRANCH   5  21
ATOM     21  C   UNL     1      -0.872  -2.615  -1.272  0.00  0.00    +0.081 C 
ATOM     22  C   UNL     1       0.176  -1.991  -2.196  0.00  0.00    +0.025 C 
ATOM     23  C   UNL     1      -1.025  -2.731  -2.790  0.00  0.00    +0.025 C 
ENDBRANCH   5  21
TORSDOF 3
