REMARK  Name = ZINC38681458
REMARK  10 active torsions:
REMARK  status: ('A' for Active; 'I' for Inactive)
REMARK    1  A    between atoms: C_1  and  C_2
REMARK    2  A    between atoms: C_2  and  C_3
REMARK    3  A    between atoms: C_3  and  O_4
REMARK    4  A    between atoms: O_4  and  C_5
REMARK    5  A    between atoms: C_10  and  C_11
REMARK    6  A    between atoms: C_16  and  O_25
REMARK    7  A    between atoms: C_20  and  N_24
REMARK    8  A    between atoms: C_21  and  C_22
REMARK    9  A    between atoms: O_25  and  C_26
REMARK   10  A    between atoms: C_26  and  C_28
REMARK                            x       y       z     vdW  Elec       q    Type
REMARK                         _______ _______ _______ _____ _____    ______ ____
ROOT
ATOM      1  C   UNL     1       0.741  -4.710  -1.275  0.00  0.00    +0.101 C 
ATOM      2  C   UNL     1      -0.326  -5.594  -1.865  0.00  0.00    +0.008 A 
ATOM      3  C   UNL     1      -1.587  -5.075  -2.099  0.00  0.00    +0.012 A 
ATOM      4  C   UNL     1      -2.578  -5.871  -2.639  0.00  0.00    +0.047 A 
ATOM      5  C   UNL     1      -2.310  -7.197  -2.950  0.00  0.00    +0.135 A 
ATOM      6  C   UNL     1      -1.048  -7.719  -2.718  0.00  0.00    +0.093 A 
ATOM      7  C   UNL     1      -0.053  -6.918  -2.175  0.00  0.00    +0.138 A 
ATOM      8  O   UNL     1       1.177  -7.444  -1.953  0.00  0.00    -0.441 OA
ATOM      9  C   UNL     1       2.019  -6.842  -1.097  0.00  0.00    +0.199 C 
ATOM     10  C   UNL     1       1.867  -5.548  -0.738  0.00  0.00    +0.098 C 
ENDROOT
BRANCH   1  16
ATOM     11  C   UNL     1       1.163  -2.413  -2.187  0.00  0.00    +0.125 A 
ATOM     12  C   UNL     1       1.657  -1.566  -3.168  0.00  0.00    +0.046 A 
ATOM     13  C   UNL     1       2.249  -2.092  -4.299  0.00  0.00    +0.004 A 
ATOM     14  C   UNL     1       2.351  -3.463  -4.454  0.00  0.00    +0.001 A 
ATOM     15  C   UNL     1       1.859  -4.309  -3.478  0.00  0.00    +0.008 A 
ATOM     16  C   UNL     1       1.271  -3.787  -2.342  0.00  0.00    +0.007 A 
BRANCH  11  17
ATOM     17  O   UNL     1       0.580  -1.897  -1.072  0.00  0.00    -0.492 OA
BRANCH  17  18
ATOM     18  C   UNL     1       0.504  -0.473  -0.980  0.00  0.00    +0.229 C 
BRANCH  18  20
ATOM     19  C   UNL     1      -0.260   1.441   0.432  0.00  0.00    +0.007 C 
ATOM     20  C   UNL     1      -0.178  -0.084   0.333  0.00  0.00    +0.038 C 
ENDBRANCH  18  20
ENDBRANCH  17  18
ENDBRANCH  11  17
ENDBRANCH   1  16
BRANCH   9  21
ATOM     21  N   UNL     1       3.065  -7.561  -0.575  0.00  0.00    -0.328 N 
ATOM     22  H   UNL     1       3.188  -8.490  -0.825  0.00  0.00    +0.145 HD
ATOM     23  H   UNL     1       3.682  -7.140   0.044  0.00  0.00    +0.145 HD
ENDBRANCH   9  21
BRANCH  10  24
ATOM     24  C   UNL     1       2.801  -4.965   0.178  0.00  0.00    +0.101 C 
ATOM     25  N   UNL     1       3.542  -4.502   0.904  0.00  0.00    -0.191 NA
ENDBRANCH  10  24
BRANCH   5  26
ATOM     26  O   UNL     1      -3.284  -7.981  -3.482  0.00  0.00    -0.422 OA
BRANCH  26  27
ATOM     27  C   UNL     1      -3.692  -7.719  -4.739  0.00  0.00    +0.346 C 
ATOM     28  O   UNL     1      -3.121  -6.874  -5.399  0.00  0.00    -0.244 OA
BRANCH  27  29
ATOM     29  C   UNL     1      -4.832  -8.459  -5.314  0.00  0.00    +0.078 A 
ATOM     30  C   UNL     1      -5.495  -9.428  -4.556  0.00  0.00    +0.018 A 
ATOM     31  C   UNL     1      -6.559 -10.115  -5.098  0.00  0.00    +0.021 A 
ATOM     32  C   UNL     1      -6.973  -9.848  -6.394  0.00  0.00    +0.042 A 
ATOM     33  C   UNL     1      -6.322  -8.890  -7.152  0.00  0.00    +0.040 A 
ATOM     34  C   UNL     1      -5.258  -8.190  -6.618  0.00  0.00    +0.056 A 
ATOM     35 CL   UNL     1      -4.447  -6.983  -7.566  0.00  0.00    -0.083 Cl
ATOM     36 CL   UNL     1      -8.313 -10.720  -7.069  0.00  0.00    -0.083 Cl
ENDBRANCH  27  29
ENDBRANCH  26  27
ENDBRANCH   5  26
TORSDOF 9
