REMARK  Name = ZINC51320145
REMARK  3 active torsions:
REMARK  status: ('A' for Active; 'I' for Inactive)
REMARK    1  A    between atoms: N_7  and  C_11
REMARK    2  A    between atoms: C_11  and  C_12
REMARK    3  A    between atoms: N_14  and  C_15
REMARK                            x       y       z     vdW  Elec       q    Type
REMARK                         _______ _______ _______ _____ _____    ______ ____
ROOT
ATOM      1  C   UNL     1      -0.933  -3.033  -0.746  0.00  0.00    +0.231 C 
ATOM      2  O   UNL     1      -0.562  -2.729  -1.859  0.00  0.00    -0.274 OA
ATOM      3  N   UNL     1      -2.155  -3.575  -0.567  0.00  0.00    -0.303 N 
ATOM      4  H   UNL     1      -2.451  -3.818   0.324  0.00  0.00    +0.149 HD
ENDROOT
BRANCH   3   5
ATOM      5  C   UNL     1      -3.033  -3.796  -1.718  0.00  0.00    +0.159 C 
ATOM      6  C   UNL     1      -4.466  -4.029  -1.233  0.00  0.00    +0.032 C 
ATOM      7  C   UNL     1      -4.473  -4.784   0.084  0.00  0.00    +0.004 C 
ATOM      8  C   UNL     1      -3.962  -6.209  -0.024  0.00  0.00    +0.019 C 
ATOM      9  C   UNL     1      -2.471  -6.231  -0.364  0.00  0.00    +0.104 C 
ATOM     10  N   UNL     1      -2.320  -6.159  -1.827  0.00  0.00    -0.314 N 
ATOM     11  C   UNL     1      -2.574  -5.021  -2.481  0.00  0.00    +0.233 C 
ATOM     12  O   UNL     1      -2.443  -4.969  -3.685  0.00  0.00    -0.274 OA
ATOM     13  H   UNL     1      -2.033  -6.943  -2.320  0.00  0.00    +0.149 HD
ENDBRANCH   3   5
BRANCH   1  14
ATOM     14  C   UNL     1      -0.029  -2.805   0.438  0.00  0.00    +0.200 C 
BRANCH  14  21
ATOM     15  C   UNL     1       0.185   1.298  -0.130  0.00  0.00    +0.002 A 
ATOM     16  C   UNL     1       1.399   1.960  -0.149  0.00  0.00    +0.001 A 
ATOM     17  C   UNL     1       2.577   1.238  -0.137  0.00  0.00    +0.016 A 
ATOM     18  C   UNL     1       2.546  -0.150  -0.102  0.00  0.00    +0.029 A 
ATOM     19  C   UNL     1       1.327  -0.820  -0.075  0.00  0.00    +0.044 A 
ATOM     20  C   UNL     1       0.146  -0.081  -0.093  0.00  0.00    +0.024 A 
ATOM     21  N   UNL     1       1.230  -2.211  -0.016  0.00  0.00    -0.319 N 
ATOM     22  C   UNL     1       2.326  -3.101  -0.386  0.00  0.00    +0.116 C 
ATOM     23  C   UNL     1       3.573  -2.712   0.423  0.00  0.00    +0.093 C 
ATOM     24  S   UNL     1       4.069  -1.042  -0.098  0.00  0.00    -0.122 S 
ENDBRANCH  14  21
ENDBRANCH   1  14
TORSDOF 3
