REMARK  Name = ZINC12886927
REMARK  11 active torsions:
REMARK  status: ('A' for Active; 'I' for Inactive)
REMARK    1  A    between atoms: C_1  and  C_2
REMARK    2  A    between atoms: C_6  and  C_24
REMARK    3  A    between atoms: C_7  and  C_11
REMARK    4  A    between atoms: C_11  and  C_12
REMARK    5  A    between atoms: N_14  and  C_15
REMARK    6  A    between atoms: C_17  and  C_22
REMARK    7  A    between atoms: C_17  and  C_23
REMARK    8  A    between atoms: C_18  and  C_20
REMARK    9  A    between atoms: C_18  and  C_21
REMARK   10  A    between atoms: C_27  and  C_31
REMARK   11  A    between atoms: C_28  and  C_30
REMARK                            x       y       z     vdW  Elec       q    Type
REMARK                         _______ _______ _______ _____ _____    ______ ____
ROOT
ATOM      1  C   UNL     1       3.083   0.803  -0.023  0.00  0.00    +0.044 C 
ATOM      2  C   UNL     1       2.527   2.204  -0.010  0.00  0.00    -0.036 A 
ATOM      3  C   UNL     1       3.379   3.270  -0.014  0.00  0.00    +0.051 A 
ATOM      4  C   UNL     1       2.882   4.572  -0.002  0.00  0.00    +0.143 A 
ATOM      5  C   UNL     1       1.495   4.792   0.013  0.00  0.00    +0.064 A 
ATOM      6  C   UNL     1       0.992   6.166   0.024  0.00  0.00    -0.026 A 
ATOM      7  C   UNL     1       1.896   7.181   0.021  0.00  0.00    +0.049 A 
ATOM      8  C   UNL     1       3.275   6.889   0.006  0.00  0.00    +0.341 A 
ATOM      9  O   UNL     1       4.076   7.806   0.003  0.00  0.00    -0.245 OA
ATOM     10  O   UNL     1       3.727   5.626  -0.005  0.00  0.00    -0.422 OA
ATOM     11  C   UNL     1      -0.488   6.447   0.039  0.00  0.00    +0.045 C 
ATOM     12  C   UNL     1       0.613   3.698   0.016  0.00  0.00    +0.147 A 
ATOM     13  C   UNL     1       1.143   2.401   0.004  0.00  0.00    +0.027 A 
ATOM     14  C   UNL     1      -0.018   1.503   0.010  0.00  0.00    -0.002 A 
ATOM     15  C   UNL     1      -1.101   2.293   0.019  0.00  0.00    +0.106 A 
ATOM     16  O   UNL     1      -0.728   3.585   0.028  0.00  0.00    -0.459 OA
ATOM     17  C   UNL     1      -2.526   1.805   0.022  0.00  0.00    +0.086 C 
ATOM     18  C   UNL     1       0.002  -0.004   0.002  0.00  0.00    +0.048 C 
ENDROOT
BRANCH   7  19
ATOM     19  C   UNL     1       1.425   8.613   0.032  0.00  0.00    +0.138 C 
BRANCH  19  20
ATOM     20  C   UNL     1       1.255   9.096  -1.385  0.00  0.00    +0.218 C 
ATOM     21  O   UNL     1       1.492   8.352  -2.313  0.00  0.00    -0.275 OA
ATOM     22  N   UNL     1       0.839  10.356  -1.622  0.00  0.00    -0.312 N 
ATOM     23  H   UNL     1       0.649  10.952  -0.880  0.00  0.00    +0.149 HD
BRANCH  22  24
ATOM     24  C   UNL     1       0.673  10.828  -3.002  0.00  0.00    +0.070 C 
ATOM     25  C   UNL     1       2.010  11.359  -3.518  0.00  0.00    +0.009 C 
ATOM     26  C   UNL     1       1.862  11.878  -4.946  0.00  0.00    -0.072 C 
ATOM     27  C   UNL     1      -0.521  12.493  -4.449  0.00  0.00    -0.072 C 
ATOM     28  C   UNL     1      -0.344  11.969  -3.026  0.00  0.00    +0.009 C 
ATOM     29  C   UNL     1      -1.362  11.500  -5.260  0.00  0.00    -0.010 C 
ATOM     30  C   UNL     1      -1.326  13.809  -4.363  0.00  0.00    -0.010 C 
ATOM     31  C   UNL     1       1.771  10.693  -5.915  0.00  0.00    -0.010 C 
ATOM     32  C   UNL     1       3.152  12.654  -5.294  0.00  0.00    -0.010 C 
ATOM     33  N   UNL     1       0.744  12.837  -5.151  0.00  0.00    +0.386 N 
ATOM     34  H   UNL     1       0.546  12.883  -6.158  0.00  0.00    -0.084 HD
ATOM     35  H   UNL     1       1.051  13.759  -4.820  0.00  0.00    -0.084 HD
ENDBRANCH  22  24
ENDBRANCH  19  20
ENDBRANCH   7  19
TORSDOF 3
