REMARK  Name = ZINC20487311
REMARK  4 active torsions:
REMARK  status: ('A' for Active; 'I' for Inactive)
REMARK    1  A    between atoms: C_1  and  C_2
REMARK    2  A    between atoms: C_8  and  N_13
REMARK    3  A    between atoms: N_13  and  C_14
REMARK    4  A    between atoms: C_17  and  C_21
REMARK                            x       y       z     vdW  Elec       q    Type
REMARK                         _______ _______ _______ _____ _____    ______ ____
ROOT
ATOM      1  C   UNL     1      -2.357   1.886   5.531  0.00  0.00    +0.044 C 
ATOM      2  C   UNL     1      -1.852   1.262   4.256  0.00  0.00    -0.050 A 
ATOM      3  C   UNL     1      -1.926   1.962   3.065  0.00  0.00    +0.005 A 
ATOM      4  C   UNL     1      -1.466   1.397   1.894  0.00  0.00    +0.024 A 
ATOM      5  C   UNL     1      -0.920   0.114   1.903  0.00  0.00    +0.039 A 
ATOM      6  C   UNL     1      -0.851  -0.578   3.106  0.00  0.00    +0.003 A 
ATOM      7  C   UNL     1      -1.307  -0.009   4.274  0.00  0.00    +0.011 A 
ATOM      8  C   UNL     1      -0.221  -1.915   2.791  0.00  0.00    +0.190 C 
ATOM      9  C   UNL     1       0.035  -1.860   1.300  0.00  0.00    +0.242 C 
ATOM     10  O   UNL     1       0.534  -2.732   0.621  0.00  0.00    -0.273 OA
ATOM     11  N   UNL     1      -0.396  -0.662   0.869  0.00  0.00    -0.283 N 
ATOM     12  H   UNL     1      -0.347  -0.370  -0.054  0.00  0.00    +0.155 HD
ENDROOT
BRANCH   8  13
ATOM     13  N   UNL     1      -1.144  -3.006   3.116  0.00  0.00    -0.328 N 
ATOM     14  H   UNL     1      -1.747  -3.349   2.438  0.00  0.00    +0.147 HD
BRANCH  13  15
ATOM     15  C   UNL     1      -1.155  -3.552   4.403  0.00  0.00    +0.056 A 
ATOM     16  C   UNL     1      -2.207  -3.276   5.267  0.00  0.00    +0.040 A 
ATOM     17  C   UNL     1      -2.215  -3.818   6.538  0.00  0.00    +0.020 A 
ATOM     18  C   UNL     1      -1.177  -4.633   6.951  0.00  0.00    -0.048 A 
ATOM     19  C   UNL     1      -0.128  -4.909   6.093  0.00  0.00    +0.020 A 
ATOM     20  C   UNL     1      -0.116  -4.376   4.819  0.00  0.00    +0.040 A 
ATOM     21 BR   UNL     1       1.315  -4.761   3.644  0.00  0.00    -0.048 Br
ATOM     22  C   UNL     1      -1.189  -5.222   8.338  0.00  0.00    +0.044 C 
ATOM     23 BR   UNL     1      -3.627  -2.161   4.705  0.00  0.00    -0.048 Br
ENDBRANCH  13  15
ENDBRANCH   8  13
TORSDOF 2
