REMARK  Name = ZINC63479876
REMARK  3 active torsions:
REMARK  status: ('A' for Active; 'I' for Inactive)
REMARK    1  A    between atoms: C_7  and  C_10
REMARK    2  A    between atoms: C_10  and  C_11
REMARK    3  A    between atoms: N_19  and  C_22
REMARK                            x       y       z     vdW  Elec       q    Type
REMARK                         _______ _______ _______ _____ _____    ______ ____
ROOT
ATOM      1  C   UNL     1       0.578  -3.960  -1.270  0.00  0.00    +0.072 C 
ATOM      2  C   UNL     1      -0.465  -5.074  -1.501  0.00  0.00    +0.107 C 
ATOM      3  C   UNL     1      -1.325  -4.574  -2.696  0.00  0.00    +0.123 C 
ATOM      4  C   UNL     1      -2.692  -4.376  -2.081  0.00  0.00    +0.233 C 
ATOM      5  O   UNL     1      -3.678  -3.995  -2.675  0.00  0.00    -0.274 OA
ATOM      6  N   UNL     1      -2.645  -4.689  -0.781  0.00  0.00    -0.210 N 
ATOM      7  C   UNL     1      -1.434  -5.101  -0.341  0.00  0.00    +0.232 C 
ATOM      8  O   UNL     1      -1.161  -5.434   0.792  0.00  0.00    -0.274 OA
ATOM      9  C   UNL     1      -0.713  -3.219  -3.071  0.00  0.00    +0.136 C 
ATOM     10  N   UNL     1      -0.035  -2.734  -1.845  0.00  0.00    -0.295 NA
ATOM     11  C   UNL     1       0.232  -3.344  -4.232  0.00  0.00    +0.003 A 
ATOM     12  C   UNL     1       1.384  -4.068  -4.444  0.00  0.00    +0.008 A 
ATOM     13  C   UNL     1       2.050  -3.972  -5.653  0.00  0.00    +0.000 A 
ATOM     14  C   UNL     1       1.555  -3.148  -6.647  0.00  0.00    +0.002 A 
ATOM     15  C   UNL     1       0.402  -2.420  -6.439  0.00  0.00    +0.023 A 
ATOM     16  C   UNL     1      -0.275  -2.511  -5.225  0.00  0.00    +0.039 A 
ATOM     17  N   UNL     1      -1.441  -1.884  -4.781  0.00  0.00    -0.283 N 
ATOM     18  C   UNL     1      -1.766  -2.245  -3.525  0.00  0.00    +0.243 C 
ATOM     19  O   UNL     1      -2.721  -1.861  -2.885  0.00  0.00    -0.273 OA
ATOM     20  H   UNL     1      -0.691  -2.320  -1.199  0.00  0.00    +0.124 HD
ATOM     21  H   UNL     1      -1.957  -1.260  -5.315  0.00  0.00    +0.155 HD
ENDROOT
BRANCH   6  22
ATOM     22  C   UNL     1      -3.764  -4.604   0.060  0.00  0.00    +0.045 A 
ATOM     23  C   UNL     1      -4.837  -5.466  -0.120  0.00  0.00    +0.024 A 
ATOM     24  C   UNL     1      -5.937  -5.381   0.711  0.00  0.00    +0.003 A 
ATOM     25  C   UNL     1      -5.971  -4.437   1.720  0.00  0.00    +0.020 A 
ATOM     26  C   UNL     1      -4.904  -3.575   1.902  0.00  0.00    +0.043 A 
ATOM     27  C   UNL     1      -3.798  -3.660   1.077  0.00  0.00    +0.044 A 
ATOM     28 CL   UNL     1      -4.952  -2.391   3.171  0.00  0.00    -0.083 Cl
ENDBRANCH   6  22
BRANCH   1  29
ATOM     29  C   UNL     1       0.835  -3.775   0.227  0.00  0.00    +0.052 C 
BRANCH  29  36
ATOM     30  C   UNL     1       0.704   0.741   1.029  0.00  0.00    +0.001 A 
ATOM     31  C   UNL     1       1.972   1.327   1.152  0.00  0.00    +0.002 A 
ATOM     32  C   UNL     1       3.116   0.619   1.044  0.00  0.00    +0.026 A 
ATOM     33  C   UNL     1       3.074  -0.781   0.795  0.00  0.00    +0.043 A 
ATOM     34  N   UNL     1       4.026  -1.670   0.650  0.00  0.00    -0.380 N 
ATOM     35  C   UNL     1       3.410  -2.980   0.408  0.00  0.00    +0.144 C 
ATOM     36  C   UNL     1       1.916  -2.745   0.428  0.00  0.00    -0.040 C 
ATOM     37  C   UNL     1       1.748  -1.423   0.660  0.00  0.00    -0.001 A 
ATOM     38  C   UNL     1       0.552  -0.582   0.792  0.00  0.00    +0.010 A 
ATOM     39  H   UNL     1       4.979  -1.493   0.696  0.00  0.00    +0.160 HD
ENDBRANCH  29  36
ENDBRANCH   1  29
TORSDOF 3
