REMARK  Name = ZINC41643744
REMARK  9 active torsions:
REMARK  status: ('A' for Active; 'I' for Inactive)
REMARK    1  A    between atoms: C_1  and  C_2
REMARK    2  A    between atoms: C_2  and  O_3
REMARK    3  A    between atoms: O_3  and  C_4
REMARK    4  A    between atoms: C_8  and  C_15
REMARK    5  A    between atoms: N_17  and  C_18
REMARK    6  A    between atoms: C_18  and  C_20
REMARK    7  A    between atoms: C_18  and  C_21
REMARK    8  A    between atoms: C_24  and  C_28
REMARK    9  A    between atoms: C_26  and  C_27
REMARK                            x       y       z     vdW  Elec       q    Type
REMARK                         _______ _______ _______ _____ _____    ______ ____
ROOT
ATOM      1  C   UNL     1       3.158  -7.368  -5.278  0.00  0.00    +0.124 A 
ATOM      2  C   UNL     1       2.646  -8.288  -4.365  0.00  0.00    +0.046 A 
ATOM      3  C   UNL     1       1.982  -7.861  -3.252  0.00  0.00    +0.016 A 
ATOM      4  C   UNL     1       1.814  -6.492  -3.026  0.00  0.00    +0.030 A 
ATOM      5  C   UNL     1       1.103  -6.003  -1.834  0.00  0.00    +0.054 A 
ATOM      6  C   UNL     1       0.973  -4.652  -1.672  0.00  0.00    +0.105 A 
ATOM      7  C   UNL     1       1.518  -3.775  -2.640  0.00  0.00    +0.338 A 
ATOM      8  O   UNL     1       1.398  -2.574  -2.488  0.00  0.00    -0.245 OA
ATOM      9  O   UNL     1       2.165  -4.235  -3.722  0.00  0.00    -0.422 OA
ATOM     10  C   UNL     1       2.328  -5.557  -3.943  0.00  0.00    +0.143 A 
ATOM     11  C   UNL     1       3.005  -6.008  -5.066  0.00  0.00    +0.092 A 
ENDROOT
BRANCH   5  12
ATOM     12  C   UNL     1       0.542  -6.950  -0.838  0.00  0.00    +0.245 C 
ATOM     13  O   UNL     1       0.569  -8.145  -1.054  0.00  0.00    -0.270 OA
ATOM     14  N   UNL     1       0.003  -6.483   0.305  0.00  0.00    -0.305 N 
ATOM     15  H   UNL     1      -0.086  -5.527   0.445  0.00  0.00    +0.150 HD
BRANCH  14  16
ATOM     16  C   UNL     1      -0.450  -7.420   1.337  0.00  0.00    +0.101 C 
ATOM     17  C   UNL     1      -1.876  -7.875   1.022  0.00  0.00    +0.033 C 
BRANCH  16  18
ATOM     18  C   UNL     1      -0.425  -6.737   2.681  0.00  0.00    -0.025 A 
ATOM     19  C   UNL     1      -0.535  -5.361   2.759  0.00  0.00    +0.006 A 
ATOM     20  C   UNL     1      -0.513  -4.735   3.991  0.00  0.00    +0.004 A 
ATOM     21  C   UNL     1      -0.381  -5.485   5.145  0.00  0.00    -0.050 A 
ATOM     22  C   UNL     1      -0.272  -6.861   5.067  0.00  0.00    +0.007 A 
ATOM     23  C   UNL     1      -0.299  -7.487   3.835  0.00  0.00    -0.045 A 
ATOM     24  C   UNL     1      -0.186  -8.988   3.749  0.00  0.00    +0.044 C 
ATOM     25  C   UNL     1      -0.355  -4.803   6.489  0.00  0.00    +0.044 C 
ENDBRANCH  16  18
ENDBRANCH  14  16
ENDBRANCH   5  12
BRANCH   1  26
ATOM     26  O   UNL     1       3.817  -7.808  -6.381  0.00  0.00    -0.492 OA
BRANCH  26  28
ATOM     27  C   UNL     1       4.706  -9.525  -7.831  0.00  0.00    +0.048 C 
ATOM     28  C   UNL     1       3.940  -9.223  -6.541  0.00  0.00    +0.225 C 
ENDBRANCH  26  28
ENDBRANCH   1  26
TORSDOF 5
