REMARK  Name = ZINC42896122
REMARK  10 active torsions:
REMARK  status: ('A' for Active; 'I' for Inactive)
REMARK    1  A    between atoms: C_1  and  C_2
REMARK    2  A    between atoms: C_2  and  C_4
REMARK    3  A    between atoms: C_2  and  N_11
REMARK    4  A    between atoms: N_14  and  C_15
REMARK    5  A    between atoms: C_15  and  C_17
REMARK    6  A    between atoms: C_15  and  C_19
REMARK    7  A    between atoms: C_17  and  O_18
REMARK    8  A    between atoms: C_19  and  C_21
REMARK    9  A    between atoms: C_19  and  O_30
REMARK   10  A    between atoms: C_24  and  N_27
REMARK                            x       y       z     vdW  Elec       q    Type
REMARK                         _______ _______ _______ _____ _____    ______ ____
ROOT
ATOM      1  C   UNK A   1      -3.913  -1.560  -2.511  0.00  0.00    +0.133 C 
ENDROOT
BRANCH   1   5
ATOM      2  N   UNK A   0      -1.555  -0.803   0.206  0.00  0.00    -0.293 N 
ATOM      3  C   UNK A   0      -2.083  -0.942  -1.026  0.00  0.00    +0.300 C 
ATOM      4  O   UNK A   0      -1.427  -0.647  -2.006  0.00  0.00    -0.253 OA
ATOM      5  N   UNK A   1      -3.339  -1.408  -1.172  0.00  0.00    -0.292 N 
ATOM      6  H   UNK A   0      -2.079  -1.038   0.988  0.00  0.00    +0.151 HD
ATOM      7  H   UNK A   1      -3.863  -1.643  -0.391  0.00  0.00    +0.151 HD
BRANCH   2   9
ATOM      8  C   UNK A   0      -0.221   1.230   0.468  0.00  0.00    +0.033 C 
ATOM      9  C   UNK A   0      -0.190  -0.296   0.365  0.00  0.00    +0.103 C 
BRANCH   9  10
ATOM     10  C   UNK A   0       0.417  -0.872   1.618  0.00  0.00    -0.009 A 
ATOM     11  C   UNK A   0      -0.396  -1.244   2.672  0.00  0.00    +0.007 A 
ATOM     12  C   UNK A   0       0.161  -1.772   3.822  0.00  0.00    +0.000 A 
ATOM     13  C   UNK A   0       1.531  -1.929   3.918  0.00  0.00    +0.001 A 
ATOM     14  C   UNK A   0       2.345  -1.558   2.865  0.00  0.00    +0.020 A 
ATOM     15  C   UNK A   0       1.788  -1.034   1.711  0.00  0.00    +0.046 A 
ATOM     16 CL   UNK A   0       2.809  -0.574   0.385  0.00  0.00    -0.083 Cl
ENDBRANCH   9  10
ENDBRANCH   2   9
ENDBRANCH   1   5
BRANCH   1  17
ATOM     17  C   UNK A   1      -3.500  -2.913  -3.093  0.00  0.00    +0.181 C 
BRANCH  17  18
ATOM     18  O   UNK A   1      -4.063  -3.963  -2.304  0.00  0.00    -0.393 OA
ATOM     19  H   UNK A   1      -3.842  -4.851  -2.615  0.00  0.00    +0.209 HD
ENDBRANCH  17  18
ENDBRANCH   1  17
BRANCH   1  20
ATOM     20  C   UNK A   1      -5.439  -1.487  -2.424  0.00  0.00    +0.167 C 
BRANCH  20  21
ATOM     21  C   UNK A   1      -5.843  -0.197  -1.756  0.00  0.00    -0.017 A 
ATOM     22  C   UNK A   1      -5.968   0.959  -2.504  0.00  0.00    +0.008 A 
ATOM     23  C   UNK A   1      -6.338   2.141  -1.891  0.00  0.00    +0.033 A 
ATOM     24  C   UNK A   1      -6.583   2.168  -0.531  0.00  0.00    +0.126 A 
ATOM     25  C   UNK A   1      -6.459   1.012   0.217  0.00  0.00    +0.033 A 
ATOM     26  C   UNK A   1      -6.093  -0.172  -0.397  0.00  0.00    +0.008 A 
BRANCH  24  27
ATOM     27  N   UNK A   1      -6.979   3.435   0.125  0.00  0.00    +0.056 N 
ATOM     28  O   UNK A   1      -7.087   4.446  -0.529  0.00  0.00    -0.126 OA
ATOM     29  O   UNK A   1      -7.193   3.458   1.315  0.00  0.00    -0.126 OA
ENDBRANCH  24  27
ENDBRANCH  20  21
BRANCH  20  30
ATOM     30  O   UNK A   1      -5.995  -1.536  -3.739  0.00  0.00    -0.385 OA
ATOM     31  H   UNK A   1      -5.645  -0.863  -4.339  0.00  0.00    +0.210 HD
ENDBRANCH  20  30
ENDBRANCH   1  20
TORSDOF 9
