REMARK  Name = ZINC28402790
REMARK  11 active torsions:
REMARK  status: ('A' for Active; 'I' for Inactive)
REMARK    1  A    between atoms: C_1  and  C_2
REMARK    2  A    between atoms: C_4  and  C_35
REMARK    3  A    between atoms: C_11  and  C_13
REMARK    4  A    between atoms: N_15  and  C_16
REMARK    5  A    between atoms: C_16  and  C_17
REMARK    6  A    between atoms: C_17  and  C_19
REMARK    7  A    between atoms: C_17  and  N_29
REMARK    8  A    between atoms: C_22  and  C_25
REMARK    9  A    between atoms: C_25  and  C_26
REMARK   10  A    between atoms: C_25  and  C_27
REMARK   11  A    between atoms: C_25  and  C_28
REMARK                            x       y       z     vdW  Elec       q    Type
REMARK                         _______ _______ _______ _____ _____    ______ ____
ROOT
ATOM      1  C   UNL     1       5.813  -0.702  -0.170  0.00  0.00    +0.094 C 
ENDROOT
BRANCH   1   4
ATOM      2  C   UNL     1       7.224   0.799  -1.470  0.00  0.00    +0.279 C 
ATOM      3  O   UNL     1       6.942   1.690  -0.694  0.00  0.00    -0.267 OA
ATOM      4  N   UNL     1       6.711  -0.435  -1.296  0.00  0.00    -0.310 N 
ATOM      5  H   UNL     1       6.967  -1.241  -1.998  0.00  0.00    +0.149 HD
BRANCH   2  16
ATOM      6  C   UNL     1      11.841   0.693  -7.889  0.00  0.00    +0.044 C 
ATOM      7  C   UNL     1      10.929   0.534  -6.700  0.00  0.00    -0.049 A 
ATOM      8  C   UNL     1      10.353  -0.700  -6.432  0.00  0.00    +0.010 A 
ATOM      9  C   UNL     1       9.512  -0.865  -5.353  0.00  0.00    -0.007 A 
ATOM     10  C   UNL     1       9.242   0.212  -4.513  0.00  0.00    +0.142 A 
ATOM     11  C   UNL     1       9.833   1.457  -4.790  0.00  0.00    +0.064 A 
ATOM     12  C   UNL     1      10.677   1.606  -5.889  0.00  0.00    +0.018 A 
ATOM     13  C   UNL     1       9.537   2.588  -3.890  0.00  0.00    +0.193 A 
ATOM     14  O   UNL     1      10.016   3.693  -4.074  0.00  0.00    -0.287 OA
ATOM     15  C   UNL     1       8.634   2.319  -2.760  0.00  0.00    +0.103 A 
ATOM     16  C   UNL     1       8.133   1.069  -2.610  0.00  0.00    +0.193 A 
ATOM     17  O   UNL     1       8.427   0.067  -3.451  0.00  0.00    -0.450 OA
ATOM     18  C   UNL     1       8.892  -2.211  -5.078  0.00  0.00    +0.047 C 
ENDBRANCH   2  16
ENDBRANCH   1   4
BRANCH   1  19
ATOM     19  C   UNL     1       5.481  -2.195  -0.124  0.00  0.00    -0.020 C 
BRANCH  19  20
ATOM     20  N   UNL     1       4.513  -2.449   0.951  0.00  0.00    +0.385 N 
ATOM     21  C   UNL     1       4.212  -3.882   1.059  0.00  0.00    -0.078 C 
ATOM     22  C   UNL     1       3.318  -4.126   2.277  0.00  0.00    -0.019 C 
ATOM     23  C   UNL     1       2.023  -3.323   2.123  0.00  0.00    -0.004 C 
ATOM     24  C   UNL     1       2.368  -1.840   1.963  0.00  0.00    -0.019 C 
ATOM     25  C   UNL     1       3.289  -1.662   0.754  0.00  0.00    -0.078 C 
ATOM     26  H   UNL     1       4.969  -2.130   1.900  0.00  0.00    -0.081 HD
ENDBRANCH  19  20
BRANCH  19  27
ATOM     27  C   UNL     1       6.740  -2.981   0.136  0.00  0.00    -0.059 A 
ATOM     28  C   UNL     1       7.238  -3.083   1.421  0.00  0.00    +0.002 A 
ATOM     29  C   UNL     1       8.390  -3.808   1.661  0.00  0.00    +0.004 A 
ATOM     30  C   UNL     1       9.050  -4.424   0.614  0.00  0.00    -0.042 A 
ATOM     31  C   UNL     1       8.555  -4.317  -0.673  0.00  0.00    +0.004 A 
ATOM     32  C   UNL     1       7.400  -3.596  -0.911  0.00  0.00    +0.002 A 
BRANCH  30  33
ATOM     33  C   UNL     1      10.309  -5.210   0.874  0.00  0.00    -0.013 C 
ATOM     34  C   UNL     1      11.466  -4.598   0.083  0.00  0.00    +0.015 C 
ATOM     35  C   UNL     1      10.635  -5.170   2.369  0.00  0.00    +0.015 C 
ATOM     36  C   UNL     1      10.103  -6.662   0.436  0.00  0.00    +0.015 C 
ENDBRANCH  30  33
ENDBRANCH  19  27
ENDBRANCH   1  19
TORSDOF 6
