REMARK  Name = ZINC22371668
REMARK  11 active torsions:
REMARK  status: ('A' for Active; 'I' for Inactive)
REMARK    1  A    between atoms: C_1  and  C_2
REMARK    2  A    between atoms: C_5  and  N_8
REMARK    3  A    between atoms: N_8  and  C_9
REMARK    4  A    between atoms: N_8  and  S_24
REMARK    5  A    between atoms: C_9  and  C_10
REMARK    6  A    between atoms: N_12  and  C_13
REMARK    7  A    between atoms: C_13  and  C_14
REMARK    8  A    between atoms: C_14  and  C_15
REMARK    9  A    between atoms: C_15  and  S_16
REMARK   10  A    between atoms: S_16  and  C_17
REMARK   11  A    between atoms: S_24  and  C_27
REMARK                            x       y       z     vdW  Elec       q    Type
REMARK                         _______ _______ _______ _____ _____    ______ ____
ROOT
ATOM      1  N   UNL     1      -0.343   1.625  -0.033  0.00  0.00    -0.194 N 
ENDROOT
BRANCH   1   6
ATOM      2  C   UNL     1       4.252   4.850  -0.836  0.00  0.00    +0.044 C 
ATOM      3  C   UNL     1       3.031   3.993  -0.622  0.00  0.00    -0.050 A 
ATOM      4  C   UNL     1       1.776   4.495  -0.914  0.00  0.00    +0.005 A 
ATOM      5  C   UNL     1       0.655   3.712  -0.720  0.00  0.00    +0.025 A 
ATOM      6  C   UNL     1       0.789   2.419  -0.231  0.00  0.00    +0.052 A 
ATOM      7  C   UNL     1       2.050   1.919   0.066  0.00  0.00    +0.025 A 
ATOM      8  C   UNL     1       3.168   2.706  -0.136  0.00  0.00    +0.005 A 
ENDBRANCH   1   6
BRANCH   1   9
ATOM      9  S   UNL     1      -0.488   0.177  -0.825  0.00  0.00    +0.075 S 
ATOM     10  O   UNL     1      -1.878  -0.105  -0.903  0.00  0.00    -0.150 OA
ATOM     11  O   UNL     1       0.339   0.261  -1.978  0.00  0.00    -0.150 OA
BRANCH   9  12
ATOM     12  C   UNL     1       0.220  -1.058   0.213  0.00  0.00    +0.109 A 
ATOM     13  C   UNL     1       1.526  -1.464   0.012  0.00  0.00    +0.030 A 
ATOM     14  C   UNL     1       2.083  -2.429   0.830  0.00  0.00    +0.022 A 
ATOM     15  C   UNL     1       1.331  -2.996   1.842  0.00  0.00    +0.041 A 
ATOM     16  C   UNL     1       0.022  -2.593   2.040  0.00  0.00    +0.022 A 
ATOM     17  C   UNL     1      -0.533  -1.624   1.225  0.00  0.00    +0.030 A 
ATOM     18 CL   UNL     1       2.028  -4.213   2.866  0.00  0.00    -0.084 Cl
ENDBRANCH   9  12
ENDBRANCH   1   9
BRANCH   1  19
ATOM     19  C   UNL     1      -1.405   2.075   0.870  0.00  0.00    +0.227 C 
BRANCH  19  20
ATOM     20  C   UNL     1      -1.064   1.677   2.283  0.00  0.00    +0.232 C 
ATOM     21  O   UNL     1      -0.035   1.077   2.513  0.00  0.00    -0.274 OA
ATOM     22  N   UNL     1      -1.902   1.988   3.292  0.00  0.00    -0.314 N 
ATOM     23  H   UNL     1      -2.835   2.533   3.083  0.00  0.00    +0.149 HD
BRANCH  22  24
ATOM     24  C   UNL     1      -1.570   1.602   4.665  0.00  0.00    +0.105 C 
BRANCH  24  25
ATOM     25  C   UNL     1      -2.679   2.072   5.609  0.00  0.00    +0.030 C 
BRANCH  25  26
ATOM     26  C   UNL     1      -2.333   1.669   7.044  0.00  0.00    +0.076 C 
BRANCH  26  27
ATOM     27  S   UNL     1      -3.648   2.226   8.163  0.00  0.00    -0.125 S 
BRANCH  27  28
ATOM     28  C   UNL     1      -3.108   1.693   9.753  0.00  0.00    +0.008 A 
ATOM     29  C   UNL     1      -1.908   1.006   9.887  0.00  0.00    +0.016 A 
ATOM     30  C   UNL     1      -1.485   0.594  11.136  0.00  0.00    +0.021 A 
ATOM     31  C   UNL     1      -2.261   0.856  12.251  0.00  0.00    +0.041 A 
ATOM     32  C   UNL     1      -3.460   1.534  12.120  0.00  0.00    +0.021 A 
ATOM     33  C   UNL     1      -3.885   1.954  10.875  0.00  0.00    +0.016 A 
ATOM     34 CL   UNL     1      -1.729   0.331  13.818  0.00  0.00    -0.084 Cl
ENDBRANCH  27  28
ENDBRANCH  26  27
ENDBRANCH  25  26
ENDBRANCH  24  25
ENDBRANCH  22  24
ENDBRANCH  19  20
ENDBRANCH   1  19
TORSDOF 10
