REMARK  Name = ZINC49300219
REMARK  8 active torsions:
REMARK  status: ('A' for Active; 'I' for Inactive)
REMARK    1  A    between atoms: C_1  and  C_2
REMARK    2  A    between atoms: C_5  and  N_9
REMARK    3  A    between atoms: C_10  and  C_12
REMARK    4  A    between atoms: N_14  and  C_15
REMARK    5  A    between atoms: C_15  and  C_17
REMARK    6  A    between atoms: C_15  and  C_22
REMARK    7  A    between atoms: C_22  and  C_23
REMARK    8  A    between atoms: C_22  and  C_24
REMARK                            x       y       z     vdW  Elec       q    Type
REMARK                         _______ _______ _______ _____ _____    ______ ____
ROOT
ATOM      1  C   UNL     1      -0.131  -6.328  -1.194  0.00  0.00    +0.300 C 
ATOM      2  O   UNL     1      -0.118  -6.939  -0.145  0.00  0.00    -0.265 OA
ATOM      3  N   UNL     1      -0.230  -6.996  -2.361  0.00  0.00    -0.300 N 
ATOM      4  H   UNL     1      -0.241  -6.508  -3.199  0.00  0.00    +0.150 HD
ENDROOT
BRANCH   1   6
ATOM      5  N   UNL     1       0.059  -4.170  -0.025  0.00  0.00    -0.275 N 
ATOM      6  C   UNL     1      -0.039  -4.838  -1.192  0.00  0.00    +0.303 C 
ATOM      7  O   UNL     1      -0.053  -4.227  -2.241  0.00  0.00    -0.265 OA
ATOM      8  H   UNL     1       0.151  -4.660   0.807  0.00  0.00    +0.155 HD
BRANCH   5  13
ATOM      9  C   UNL     1      -0.065   1.502   0.015  0.00  0.00    +0.044 C 
ATOM     10  C   UNL     1      -0.031  -0.005   0.006  0.00  0.00    -0.048 A 
ATOM     11  C   UNL     1      -0.622  -0.701  -1.033  0.00  0.00    +0.005 A 
ATOM     12  C   UNL     1      -0.593  -2.082  -1.046  0.00  0.00    +0.026 A 
ATOM     13  C   UNL     1       0.029  -2.772  -0.015  0.00  0.00    +0.069 A 
ATOM     14  C   UNL     1       0.623  -2.070   1.029  0.00  0.00    +0.145 A 
ATOM     15  C   UNL     1       0.595  -0.687   1.033  0.00  0.00    +0.043 A 
ATOM     16  F   UNL     1       1.229  -2.737   2.035  0.00  0.00    -0.204 F 
ENDBRANCH   5  13
ENDBRANCH   1   6
BRANCH   3  17
ATOM     17  C   UNL     1      -0.320  -8.458  -2.363  0.00  0.00    +0.113 C 
BRANCH  17  18
ATOM     18  C   UNL     1      -1.013  -8.917  -3.620  0.00  0.00    +0.010 A 
ATOM     19  C   UNL     1      -1.929  -9.903  -3.779  0.00  0.00    +0.013 A 
ATOM     20  C   UNL     1      -2.435 -10.151  -5.041  0.00  0.00    +0.008 A 
ATOM     21  C   UNL     1      -2.001  -9.400  -6.083  0.00  0.00    +0.045 A 
ATOM     22  S   UNL     1      -0.846  -8.296  -5.286  0.00  0.00    -0.100 S 
ENDBRANCH  17  18
BRANCH  17  23
ATOM     23  C   UNL     1       1.087  -9.056  -2.308  0.00  0.00    +0.008 C 
ATOM     24  C   UNL     1       1.924  -8.495  -3.459  0.00  0.00    +0.009 C 
ATOM     25  C   UNL     1       1.744  -8.693  -0.975  0.00  0.00    +0.009 C 
ENDBRANCH  17  23
ENDBRANCH   3  17
TORSDOF 5
