REMARK  Name = ZINC63589416
REMARK  10 active torsions:
REMARK  status: ('A' for Active; 'I' for Inactive)
REMARK    1  A    between atoms: C_1  and  O_2
REMARK    2  A    between atoms: O_2  and  C_3
REMARK    3  A    between atoms: C_5  and  N_11
REMARK    4  A    between atoms: C_7  and  O_9
REMARK    5  A    between atoms: O_9  and  C_10
REMARK    6  A    between atoms: N_13  and  C_14
REMARK    7  A    between atoms: C_14  and  C_16
REMARK    8  A    between atoms: N_23  and  C_24
REMARK    9  A    between atoms: C_24  and  C_25
REMARK   10  A    between atoms: C_25  and  C_26
REMARK                            x       y       z     vdW  Elec       q    Type
REMARK                         _______ _______ _______ _____ _____    ______ ____
ROOT
ATOM      1  N   UNL     1       1.435  -4.030  -2.173  0.00  0.00    -0.328 N 
ATOM      2  C   UNL     1       2.080  -4.630  -3.217  0.00  0.00    +0.194 C 
ATOM      3  N   UNL     1       2.337  -5.928  -3.178  0.00  0.00    -0.143 NA
ATOM      4  N   UNL     1       2.458  -3.891  -4.299  0.00  0.00    -0.357 N 
ATOM      5  H   UNL     1       1.946  -3.586  -1.478  0.00  0.00    +0.169 HD
ATOM      6  H   UNL     1       2.848  -4.329  -5.072  0.00  0.00    +0.162 HD
ENDROOT
BRANCH   1   9
ATOM      7  C   UNL     1      -1.984  -3.940  -0.814  0.00  0.00    +0.126 A 
ATOM      8  C   UNL     1      -0.600  -3.914  -0.880  0.00  0.00    +0.071 A 
ATOM      9  C   UNL     1       0.039  -4.057  -2.105  0.00  0.00    +0.049 A 
ATOM     10  C   UNL     1      -0.710  -4.226  -3.262  0.00  0.00    +0.071 A 
ATOM     11  C   UNL     1      -2.094  -4.251  -3.193  0.00  0.00    +0.126 A 
ATOM     12  C   UNL     1      -2.731  -4.114  -1.969  0.00  0.00    +0.091 A 
BRANCH   7  14
ATOM     13  C   UNL     1      -4.038  -3.843   0.381  0.00  0.00    +0.277 C 
ATOM     14  O   UNL     1      -2.609  -3.800   0.385  0.00  0.00    -0.495 OA
ENDBRANCH   7  14
BRANCH  11  15
ATOM     15  O   UNL     1      -2.827  -4.416  -4.326  0.00  0.00    -0.495 OA
ATOM     16  C   UNL     1      -4.247  -4.322  -4.199  0.00  0.00    +0.277 C 
ENDBRANCH  11  15
ENDBRANCH   1   9
BRANCH   3  17
ATOM     17  C   UNL     1       1.861  -6.676  -2.173  0.00  0.00    +0.270 C 
ATOM     18  O   UNL     1       1.118  -6.181  -1.344  0.00  0.00    -0.268 OA
BRANCH  17  19
ATOM     19  C   UNL     1       2.239  -8.104  -2.070  0.00  0.00    +0.039 A 
ATOM     20  C   UNL     1       3.178  -8.645  -2.948  0.00  0.00    +0.014 A 
ATOM     21  C   UNL     1       3.526  -9.976  -2.847  0.00  0.00    +0.021 A 
ATOM     22  C   UNL     1       2.946 -10.774  -1.875  0.00  0.00    +0.041 A 
ATOM     23  C   UNL     1       2.013 -10.242  -1.001  0.00  0.00    +0.021 A 
ATOM     24  C   UNL     1       1.662  -8.912  -1.089  0.00  0.00    +0.014 A 
ATOM     25 CL   UNL     1       3.389 -12.448  -1.754  0.00  0.00    -0.084 Cl
ENDBRANCH  17  19
ENDBRANCH   3  17
BRANCH   4  26
ATOM     26  C   UNL     1       2.277  -2.438  -4.294  0.00  0.00    +0.120 C 
BRANCH  26  27
ATOM     27  C   UNL     1       2.667  -1.870  -5.660  0.00  0.00    +0.054 C 
BRANCH  27  28
ATOM     28  C   UNL     1       2.595  -0.365  -5.618  0.00  0.00    -0.040 C 
ATOM     29  C   UNL     1       3.619   0.492  -5.407  0.00  0.00    -0.001 A 
ATOM     30  C   UNL     1       5.051   0.288  -5.160  0.00  0.00    +0.010 A 
ATOM     31  C   UNL     1       5.846   1.367  -4.980  0.00  0.00    +0.001 A 
ATOM     32  C   UNL     1       5.337   2.673  -5.022  0.00  0.00    +0.002 A 
ATOM     33  C   UNL     1       4.033   2.940  -5.244  0.00  0.00    +0.026 A 
ATOM     34  C   UNL     1       3.106   1.880  -5.447  0.00  0.00    +0.043 A 
ATOM     35  N   UNL     1       1.815   1.881  -5.675  0.00  0.00    -0.380 N 
ATOM     36  C   UNL     1       1.364   0.492  -5.811  0.00  0.00    +0.144 C 
ATOM     37  H   UNL     1       1.254   2.668  -5.746  0.00  0.00    +0.160 HD
ENDBRANCH  27  28
ENDBRANCH  26  27
ENDBRANCH   4  26
TORSDOF 8
