REMARK  Name = ZINC39711275
REMARK  10 active torsions:
REMARK  status: ('A' for Active; 'I' for Inactive)
REMARK    1  A    between atoms: C_1  and  C_2
REMARK    2  A    between atoms: C_6  and  C_15
REMARK    3  A    between atoms: C_13  and  C_14
REMARK    4  A    between atoms: C_15  and  C_17
REMARK    5  A    between atoms: C_15  and  N_29
REMARK    6  A    between atoms: N_22  and  C_23
REMARK    7  A    between atoms: N_29  and  C_30
REMARK    8  A    between atoms: N_29  and  C_36
REMARK    9  A    between atoms: C_30  and  C_31
REMARK   10  A    between atoms: C_36  and  C_37
REMARK                            x       y       z     vdW  Elec       q    Type
REMARK                         _______ _______ _______ _____ _____    ______ ____
ROOT
ATOM      1  C   UNL     1      -0.794  -4.987  -3.194  0.00  0.00    -0.008 C 
ENDROOT
BRANCH   1   7
ATOM      2  C   UNL     1      -1.879  -7.778   3.290  0.00  0.00    +0.044 C 
ATOM      3  C   UNL     1      -1.008  -7.359   2.134  0.00  0.00    -0.047 A 
ATOM      4  C   UNL     1      -1.462  -6.415   1.268  0.00  0.00    +0.013 A 
ATOM      5  C   UNL     1      -0.608  -6.016   0.149  0.00  0.00    -0.007 A 
ATOM      6  C   UNL     1      -1.022  -5.072  -0.744  0.00  0.00    -0.006 C 
ATOM      7  C   UNL     1      -0.072  -4.720  -1.872  0.00  0.00    +0.088 C 
ATOM      8  C   UNL     1       1.256  -5.443  -1.915  0.00  0.00    +0.223 C 
ATOM      9  O   UNL     1       2.056  -5.198  -2.798  0.00  0.00    -0.275 OA
ATOM     10  N   UNL     1       1.543  -6.341  -0.988  0.00  0.00    -0.285 N 
ATOM     11  C   UNL     1       0.712  -6.654   0.005  0.00  0.00    +0.041 A 
ATOM     12  C   UNL     1       1.085  -7.621   0.957  0.00  0.00    +0.027 A 
ATOM     13  C   UNL     1       0.248  -7.944   1.977  0.00  0.00    -0.046 A 
ATOM     14  C   UNL     1       0.693  -8.980   2.977  0.00  0.00    +0.044 C 
ATOM     15  H   UNL     1       2.400  -6.793  -1.034  0.00  0.00    +0.155 HD
ENDBRANCH   1   7
BRANCH   1  16
ATOM     16  C   UNL     1      -2.210  -4.412  -3.127  0.00  0.00    +0.205 C 
ATOM     17  N   UNL     1      -2.958  -4.748  -4.346  0.00  0.00    -0.152 NA
ATOM     18  N   UNL     1      -3.280  -3.704  -4.917  0.00  0.00    -0.070 NA
ATOM     19  N   UNL     1      -2.845  -2.562  -4.245  0.00  0.00    -0.179 N 
ATOM     20  N   UNL     1      -2.167  -2.935  -3.111  0.00  0.00    -0.185 NA
ATOM     21  H   UNL     1      -2.998  -1.649  -4.533  0.00  0.00    +0.191 HD
BRANCH  20  22
ATOM     22  C   UNL     1      -0.782  -2.448  -3.141  0.00  0.00    +0.080 C 
ATOM     23  C   UNL     1      -0.502  -1.629  -1.879  0.00  0.00    +0.021 C 
ATOM     24  C   UNL     1       0.941  -1.122  -1.910  0.00  0.00    +0.002 C 
ATOM     25  C   UNL     1       1.146  -0.242  -3.145  0.00  0.00    +0.000 C 
ATOM     26  C   UNL     1       0.866  -1.062  -4.407  0.00  0.00    +0.002 C 
ATOM     27  C   UNL     1      -0.577  -1.569  -4.376  0.00  0.00    +0.021 C 
ENDBRANCH  20  22
ENDBRANCH   1  16
BRANCH   1  28
ATOM     28  N   UNL     1      -0.864  -6.435  -3.430  0.00  0.00    +0.392 N 
ATOM     29  H   UNL     1      -1.644  -6.640  -4.036  0.00  0.00    -0.080 HD
BRANCH  28  30
ATOM     30  C   UNL     1      -1.042  -7.132  -2.149  0.00  0.00    -0.002 C 
BRANCH  30  31
ATOM     31  C   UNL     1      -2.490  -7.063  -1.737  0.00  0.00    +0.089 A 
ATOM     32  C   UNL     1      -3.461  -7.905  -2.133  0.00  0.00    +0.042 A 
ATOM     33  C   UNL     1      -4.655  -7.475  -1.510  0.00  0.00    +0.041 A 
ATOM     34  C   UNL     1      -4.342  -6.396  -0.771  0.00  0.00    +0.195 A 
ATOM     35  O   UNL     1      -3.028  -6.155  -0.907  0.00  0.00    -0.470 OA
ENDBRANCH  30  31
ENDBRANCH  28  30
BRANCH  28  36
ATOM     36  C   UNL     1       0.381  -6.888  -4.065  0.00  0.00    -0.034 C 
BRANCH  36  37
ATOM     37  C   UNL     1       0.402  -6.442  -5.504  0.00  0.00    -0.027 A 
ATOM     38  C   UNL     1       1.024  -5.373  -6.058  0.00  0.00    +0.009 A 
ATOM     39  C   UNL     1       0.904  -5.157  -7.418  0.00  0.00    +0.008 A 
ATOM     40  C   UNL     1       0.168  -6.022  -8.158  0.00  0.00    +0.045 A 
ATOM     41  S   UNL     1      -0.380  -7.191  -6.925  0.00  0.00    -0.103 S 
ENDBRANCH  36  37
ENDBRANCH  28  36
ENDBRANCH   1  28
TORSDOF 8
