REMARK  Name = ZINC36984213
REMARK  12 active torsions:
REMARK  status: ('A' for Active; 'I' for Inactive)
REMARK    1  A    between atoms: C_1  and  C_2
REMARK    2  A    between atoms: C_2  and  C_4
REMARK    3  A    between atoms: C_2  and  C_18
REMARK    4  A    between atoms: C_4  and  C_5
REMARK    5  A    between atoms: N_7  and  C_8
REMARK    6  A    between atoms: C_8  and  C_9
REMARK    7  A    between atoms: C_12  and  S_14
REMARK    8  A    between atoms: S_14  and  N_17
REMARK    9  A    between atoms: C_18  and  C_19
REMARK   10  A    between atoms: C_19  and  C_20
REMARK   11  A    between atoms: C_19  and  C_21
REMARK   12  A    between atoms: C_19  and  C_22
REMARK                            x       y       z     vdW  Elec       q    Type
REMARK                         _______ _______ _______ _____ _____    ______ ____
ROOT
ATOM      1  C   UNL     1       1.883  -0.458   1.984  0.00  0.00    +0.214 C 
ATOM      2  O   UNL     1       0.980   0.260   2.358  0.00  0.00    -0.276 OA
ATOM      3  N   UNL     1       2.761  -0.958   2.876  0.00  0.00    -0.311 N 
ATOM      4  H   UNL     1       3.483  -1.532   2.577  0.00  0.00    +0.149 HD
ENDROOT
BRANCH   1   5
ATOM      5  C   UNL     1       2.025  -0.790   0.520  0.00  0.00    +0.099 C 
BRANCH   5   7
ATOM      6  C   UNL     1       1.086   1.417  -0.180  0.00  0.00    +0.008 C 
ATOM      7  C   UNL     1       0.910  -0.100  -0.269  0.00  0.00    -0.005 C 
BRANCH   7   8
ATOM      8  C   UNL     1       0.978  -0.536  -1.734  0.00  0.00    +0.010 C 
BRANCH   8   9
ATOM      9  C   UNL     1      -0.239   0.006  -2.485  0.00  0.00    -0.037 C 
ATOM     10  C   UNL     1      -0.159   1.533  -2.551  0.00  0.00    +0.010 C 
ATOM     11  C   UNL     1      -0.260  -0.565  -3.904  0.00  0.00    +0.010 C 
ATOM     12  C   UNL     1      -1.517  -0.406  -1.750  0.00  0.00    +0.010 C 
ENDBRANCH   8   9
ENDBRANCH   7   8
ENDBRANCH   5   7
ENDBRANCH   1   5
BRANCH   3  13
ATOM     13  C   UNL     1       2.623  -0.635   4.298  0.00  0.00    +0.146 C 
BRANCH  13  14
ATOM     14  C   UNL     1       3.721  -1.314   5.076  0.00  0.00    +0.009 A 
ATOM     15  C   UNL     1       4.957  -0.853   5.389  0.00  0.00    +0.015 A 
ATOM     16  C   UNL     1       5.808  -1.659   6.121  0.00  0.00    +0.036 A 
ATOM     17  C   UNL     1       5.381  -2.887   6.505  0.00  0.00    +0.142 A 
ATOM     18  S   UNL     1       3.729  -2.932   5.831  0.00  0.00    -0.072 S 
BRANCH  17  19
ATOM     19  S   UNL     1       6.235  -4.118   7.433  0.00  0.00    +0.062 S 
ATOM     20  O   UNL     1       5.637  -5.364   7.102  0.00  0.00    -0.153 OA
ATOM     21  O   UNL     1       7.623  -3.869   7.259  0.00  0.00    -0.153 OA
BRANCH  19  22
ATOM     22  N   UNL     1       5.902  -3.844   9.032  0.00  0.00    -0.203 NA
ATOM     23  H   UNL     1       5.326  -3.106   9.288  0.00  0.00    +0.144 HD
ATOM     24  H   UNL     1       6.282  -4.421   9.713  0.00  0.00    +0.144 HD
ENDBRANCH  19  22
ENDBRANCH  17  19
ENDBRANCH  13  14
ENDBRANCH   3  13
TORSDOF 8
