REMARK  Name = ZINC14551542
REMARK  6 active torsions:
REMARK  status: ('A' for Active; 'I' for Inactive)
REMARK    1  A    between atoms: C_4  and  C_7
REMARK    2  A    between atoms: C_7  and  C_8
REMARK    3  A    between atoms: C_8  and  C_9
REMARK    4  A    between atoms: C_9  and  O_10
REMARK    5  A    between atoms: O_10  and  C_11
REMARK    6  A    between atoms: C_18  and  C_27
REMARK                            x       y       z     vdW  Elec       q    Type
REMARK                         _______ _______ _______ _____ _____    ______ ____
ROOT
ATOM      1  C   UNL     1      -0.888   3.983   2.508  0.00  0.00    +0.142 A 
ATOM      2  C   UNL     1      -0.982   5.359   2.605  0.00  0.00    +0.047 A 
ATOM      3  C   UNL     1      -0.981   6.129   1.455  0.00  0.00    +0.004 A 
ATOM      4  C   UNL     1      -0.886   5.524   0.219  0.00  0.00    +0.006 A 
ATOM      5  C   UNL     1      -0.789   4.142   0.110  0.00  0.00    -0.016 A 
ATOM      6  C   UNL     1      -0.793   3.369   1.256  0.00  0.00    +0.074 A 
ATOM      7  N   UNL     1      -0.704   1.975   1.214  0.00  0.00    -0.334 N 
ATOM      8  C   UNL     1      -0.018   1.503   0.010  0.00  0.00    +0.105 C 
ATOM      9  C   UNL     1      -0.759   2.010  -1.229  0.00  0.00    +0.029 C 
ATOM     10  C   UNL     1      -0.681   3.551  -1.265  0.00  0.00    +0.049 C 
ATOM     11  C   UNL     1       0.678   3.838  -1.862  0.00  0.00    -0.023 C 
ATOM     12  C   UNL     1       1.115   2.798  -2.527  0.00  0.00    -0.030 C 
ATOM     13  C   UNL     1       0.105   1.669  -2.475  0.00  0.00    +0.033 C 
ATOM     14  H   UNL     1      -0.262   1.616   2.047  0.00  0.00    +0.147 HD
ENDROOT
BRANCH   8  15
ATOM     15  C   UNL     1       0.002  -0.004   0.002  0.00  0.00    -0.027 A 
ATOM     16  C   UNL     1      -1.107  -0.713   0.424  0.00  0.00    +0.005 A 
ATOM     17  C   UNL     1      -1.090  -2.095   0.411  0.00  0.00    +0.000 A 
ATOM     18  C   UNL     1       0.040  -2.768  -0.013  0.00  0.00    +0.000 A 
ATOM     19  C   UNL     1       1.151  -2.060  -0.429  0.00  0.00    +0.000 A 
ATOM     20  C   UNL     1       1.132  -0.678  -0.422  0.00  0.00    +0.005 A 
ENDBRANCH   8  15
BRANCH   1  21
ATOM     21  O   UNL     1      -0.891   3.224   3.637  0.00  0.00    -0.490 OA
BRANCH  21  22
ATOM     22  C   UNL     1      -0.991   3.914   4.883  0.00  0.00    +0.229 C 
BRANCH  22  23
ATOM     23  C   UNL     1      -0.979   2.902   6.030  0.00  0.00    +0.046 C 
BRANCH  23  24
ATOM     24  C   UNL     1      -1.086   3.641   7.365  0.00  0.00    +0.038 C 
BRANCH  24  28
ATOM     25  C   UNL     1      -1.051   0.814  10.567  0.00  0.00    +0.000 A 
ATOM     26  C   UNL     1       0.137   1.347  10.103  0.00  0.00    +0.000 A 
ATOM     27  C   UNL     1       0.126   2.262   9.067  0.00  0.00    +0.003 A 
ATOM     28  C   UNL     1      -1.074   2.644   8.495  0.00  0.00    -0.047 A 
ATOM     29  C   UNL     1      -2.262   2.115   8.963  0.00  0.00    +0.003 A 
ATOM     30  C   UNL     1      -2.250   1.196   9.995  0.00  0.00    +0.000 A 
ENDBRANCH  24  28
ENDBRANCH  23  24
ENDBRANCH  22  23
ENDBRANCH  21  22
ENDBRANCH   1  21
TORSDOF 6
