REMARK  Name = ZINC35851527
REMARK  4 active torsions:
REMARK  status: ('A' for Active; 'I' for Inactive)
REMARK    1  A    between atoms: C_8  and  C_27
REMARK    2  A    between atoms: C_10  and  C_18
REMARK    3  A    between atoms: C_22  and  N_24
REMARK    4  A    between atoms: C_27  and  C_29
REMARK                            x       y       z     vdW  Elec       q    Type
REMARK                         _______ _______ _______ _____ _____    ______ ____
ROOT
ATOM      1  C   UNL     1       0.165   1.431   0.046  0.00  0.00    +0.000 A 
ATOM      2  C   UNL     1       1.378   2.094   0.089  0.00  0.00    +0.002 A 
ATOM      3  C   UNL     1       2.561   1.385   0.102  0.00  0.00    +0.023 A 
ATOM      4  C   UNL     1       2.542  -0.008   0.072  0.00  0.00    +0.039 A 
ATOM      5  C   UNL     1       1.317  -0.664   0.029  0.00  0.00    +0.004 A 
ATOM      6  C   UNL     1       0.139   0.047   0.016  0.00  0.00    +0.008 A 
ATOM      7  C   UNL     1       1.634  -2.136   0.007  0.00  0.00    +0.137 C 
ATOM      8  C   UNL     1       1.030  -2.845   1.223  0.00  0.00    +0.103 C 
ATOM      9  C   UNL     1      -0.159  -3.650   0.647  0.00  0.00    +0.050 C 
ATOM     10  C   UNL     1       0.259  -3.896  -0.809  0.00  0.00    +0.077 C 
ATOM     11  N   UNL     1       1.108  -2.770  -1.214  0.00  0.00    -0.271 NA
ATOM     12  C   UNL     1       0.356  -1.729  -1.980  0.00  0.00    +0.155 C 
ATOM     13  S   UNL     1      -0.803  -2.794  -2.944  0.00  0.00    -0.144 S 
ATOM     14  C   UNL     1      -0.968  -4.132  -1.702  0.00  0.00    +0.090 C 
ATOM     15  C   UNL     1       3.140  -2.204   0.040  0.00  0.00    +0.243 C 
ATOM     16  O   UNL     1       3.819  -3.209   0.035  0.00  0.00    -0.273 OA
ATOM     17  N   UNL     1       3.587  -0.934   0.076  0.00  0.00    -0.283 N 
ATOM     18  H   UNL     1       4.526  -0.692   0.102  0.00  0.00    +0.155 HD
ENDROOT
BRANCH   9  19
ATOM     19  C   UNL     1      -0.327  -4.953   1.385  0.00  0.00    -0.040 A 
ATOM     20  C   UNL     1       0.704  -5.874   1.403  0.00  0.00    +0.004 A 
ATOM     21  C   UNL     1       0.551  -7.070   2.079  0.00  0.00    +0.002 A 
ATOM     22  C   UNL     1      -0.633  -7.345   2.737  0.00  0.00    +0.033 A 
ATOM     23  C   UNL     1      -1.664  -6.424   2.719  0.00  0.00    +0.126 A 
ATOM     24  C   UNL     1      -1.509  -5.226   2.047  0.00  0.00    +0.036 A 
BRANCH  23  25
ATOM     25  N   UNL     1      -2.932  -6.719   3.424  0.00  0.00    +0.056 N 
ATOM     26  O   UNL     1      -3.066  -7.765   4.014  0.00  0.00    -0.126 OA
ATOM     27  O   UNL     1      -3.833  -5.913   3.408  0.00  0.00    -0.126 OA
ENDBRANCH  23  25
ENDBRANCH   9  19
BRANCH   8  28
ATOM     28  C   UNL     1       0.547  -1.838   2.234  0.00  0.00    +0.169 C 
ATOM     29  O   UNL     1      -0.605  -1.460   2.211  0.00  0.00    -0.292 OA
BRANCH  28  30
ATOM     30  C   UNL     1       1.473  -1.313   3.249  0.00  0.00    +0.018 A 
ATOM     31  C   UNL     1       2.804  -1.743   3.275  0.00  0.00    +0.014 A 
ATOM     32  C   UNL     1       3.666  -1.248   4.228  0.00  0.00    +0.039 A 
ATOM     33  C   UNL     1       3.217  -0.325   5.162  0.00  0.00    +0.123 A 
ATOM     34  C   UNL     1       1.898   0.106   5.141  0.00  0.00    +0.039 A 
ATOM     35  C   UNL     1       1.028  -0.377   4.189  0.00  0.00    +0.014 A 
ATOM     36  F   UNL     1       4.067   0.157   6.095  0.00  0.00    -0.205 F 
ENDBRANCH  28  30
ENDBRANCH   8  28
TORSDOF 4
