REMARK  Name = ZINC38558313
REMARK  6 active torsions:
REMARK  status: ('A' for Active; 'I' for Inactive)
REMARK    1  A    between atoms: C_4  and  C_7
REMARK    2  A    between atoms: C_7  and  C_9
REMARK    3  A    between atoms: C_7  and  O_34
REMARK    4  A    between atoms: C_9  and  N_10
REMARK    5  A    between atoms: C_11  and  C_13
REMARK    6  A    between atoms: C_25  and  C_27
REMARK                            x       y       z     vdW  Elec       q    Type
REMARK                         _______ _______ _______ _____ _____    ______ ____
ROOT
ATOM      1  C   UNL     1       7.326  -2.798  -2.765  0.00  0.00    +0.126 C 
ATOM      2  C   UNL     1       7.779  -3.383  -3.949  0.00  0.00    +0.039 C 
ATOM      3  C   UNL     1       8.751  -4.364  -3.809  0.00  0.00    -0.008 C 
ATOM      4  C   UNL     1       9.663  -4.936  -4.655  0.00  0.00    +0.004 A 
ATOM      5  C   UNL     1       9.787  -4.925  -6.064  0.00  0.00    +0.010 A 
ATOM      6  C   UNL     1      10.866  -5.570  -6.593  0.00  0.00    +0.001 A 
ATOM      7  C   UNL     1      11.826  -6.223  -5.819  0.00  0.00    +0.002 A 
ATOM      8  C   UNL     1      11.770  -6.301  -4.461  0.00  0.00    +0.026 A 
ATOM      9  C   UNL     1      10.662  -5.670  -3.827  0.00  0.00    +0.044 A 
ATOM     10  N   UNL     1      10.326  -5.639  -2.561  0.00  0.00    -0.372 N 
ATOM     11  C   UNL     1       9.030  -5.005  -2.460  0.00  0.00    +0.160 C 
ATOM     12  C   UNL     1       8.804  -3.997  -1.390  0.00  0.00    +0.076 C 
ATOM     13  N   UNL     1       7.939  -3.028  -1.594  0.00  0.00    -0.244 NA
ATOM     14  H   UNL     1      10.853  -5.981  -1.822  0.00  0.00    +0.161 HD
ENDROOT
BRANCH  12  15
ATOM     15  C   UNL     1       9.541  -4.080  -0.122  0.00  0.00    -0.000 A 
ATOM     16  C   UNL     1       9.758  -2.927   0.643  0.00  0.00    +0.010 A 
ATOM     17  C   UNL     1      10.450  -3.013   1.831  0.00  0.00    +0.002 A 
ATOM     18  C   UNL     1      10.930  -4.235   2.271  0.00  0.00    +0.015 A 
ATOM     19  C   UNL     1      10.719  -5.381   1.522  0.00  0.00    +0.018 A 
ATOM     20  C   UNL     1      10.024  -5.313   0.332  0.00  0.00    +0.025 A 
ATOM     21 BR   UNL     1      11.381  -7.043   2.134  0.00  0.00    -0.050 Br
ENDBRANCH  12  15
BRANCH   1  23
ATOM     22  N   UNL     1       5.704  -1.325  -1.669  0.00  0.00    -0.307 N 
ATOM     23  C   UNL     1       6.149  -1.901  -2.803  0.00  0.00    +0.262 C 
ATOM     24  O   UNL     1       5.585  -1.684  -3.857  0.00  0.00    -0.269 OA
ATOM     25  H   UNL     1       6.155  -1.498  -0.828  0.00  0.00    +0.149 HD
BRANCH  22  26
ATOM     26  C   UNL     1       4.539  -0.437  -1.707  0.00  0.00    +0.140 C 
BRANCH  26  27
ATOM     27  C   UNL     1       4.245   0.079  -0.297  0.00  0.00    +0.162 C 
BRANCH  27  31
ATOM     28  C   UNL     1       0.849   2.667  -0.409  0.00  0.00    +0.000 A 
ATOM     29  C   UNL     1       2.124   3.196  -0.479  0.00  0.00    +0.000 A 
ATOM     30  C   UNL     1       3.223   2.359  -0.443  0.00  0.00    +0.006 A 
ATOM     31  C   UNL     1       3.047   0.992  -0.336  0.00  0.00    -0.018 A 
ATOM     32  C   UNL     1       1.772   0.463  -0.265  0.00  0.00    +0.006 A 
ATOM     33  C   UNL     1       0.673   1.300  -0.303  0.00  0.00    +0.000 A 
ENDBRANCH  27  31
BRANCH  27  34
ATOM     34  O   UNL     1       3.974  -1.026   0.568  0.00  0.00    -0.386 OA
ATOM     35  H   UNL     1       3.216  -1.561   0.296  0.00  0.00    +0.210 HD
ENDBRANCH  27  34
ENDBRANCH  26  27
ENDBRANCH  22  26
ENDBRANCH   1  23
TORSDOF 6
