REMARK  Name = ZINC40797069
REMARK  4 active torsions:
REMARK  status: ('A' for Active; 'I' for Inactive)
REMARK    1  A    between atoms: C_9  and  N_11
REMARK    2  A    between atoms: C_13  and  N_26
REMARK    3  A    between atoms: C_14  and  O_18
REMARK    4  A    between atoms: O_18  and  C_19
REMARK                            x       y       z     vdW  Elec       q    Type
REMARK                         _______ _______ _______ _____ _____    ______ ____
ROOT
ATOM      1  N   UNL     1       1.209  -2.081  -0.004  0.00  0.00    -0.297 N 
ATOM      2  C   UNL     1       0.017  -2.787   0.109  0.00  0.00    +0.151 A 
ATOM      3  C   UNL     1       0.025  -4.181   0.203  0.00  0.00    +0.128 A 
ATOM      4  C   UNL     1      -1.199  -4.840   0.314  0.00  0.00    +0.246 A 
ATOM      5  N   UNL     1      -2.318  -4.123   0.326  0.00  0.00    -0.199 NA
ATOM      6  C   UNL     1      -2.283  -2.809   0.235  0.00  0.00    +0.227 A 
ATOM      7  N   UNL     1      -1.148  -2.146   0.134  0.00  0.00    -0.218 NA
ATOM      8  H   UNL     1       2.048  -2.557  -0.107  0.00  0.00    +0.154 HD
ENDROOT
BRANCH   1  17
ATOM      9  C   UNL     1       0.157   1.376   0.698  0.00  0.00    +0.004 A 
ATOM     10  C   UNL     1       1.148   2.108   0.119  0.00  0.00    +0.028 A 
ATOM     11  C   UNL     1       2.213   1.462  -0.532  0.00  0.00    +0.073 A 
ATOM     12  C   UNL     1       2.239   0.047  -0.576  0.00  0.00    +0.022 A 
ATOM     13  C   UNL     1       3.305  -0.596  -1.228  0.00  0.00    +0.013 A 
ATOM     14  C   UNL     1       4.277   0.180  -1.795  0.00  0.00    +0.020 A 
ATOM     15  C   UNL     1       4.192   1.568  -1.715  0.00  0.00    +0.111 A 
ATOM     16  N   UNL     1       3.196   2.164  -1.107  0.00  0.00    -0.255 NA
ATOM     17  C   UNL     1       1.199  -0.689   0.031  0.00  0.00    +0.042 A 
ATOM     18  C   UNL     1       0.173  -0.014   0.660  0.00  0.00    +0.024 A 
ENDBRANCH   1  17
BRANCH   3  19
ATOM     19  N   UNL     1       1.230  -4.899   0.185  0.00  0.00    -0.351 N 
ATOM     20  H   UNL     1       2.074  -4.427   0.107  0.00  0.00    +0.143 HD
ATOM     21  H   UNL     1       1.220  -5.866   0.251  0.00  0.00    +0.143 HD
ENDBRANCH   3  19
BRANCH   4  22
ATOM     22  O   UNL     1      -1.247  -6.193   0.407  0.00  0.00    -0.436 OA
BRANCH  22  23
ATOM     23  C   UNL     1      -2.468  -6.790   0.407  0.00  0.00    +0.130 A 
ATOM     24  C   UNL     1      -3.271  -6.729  -0.722  0.00  0.00    +0.047 A 
ATOM     25  C   UNL     1      -4.511  -7.337  -0.720  0.00  0.00    +0.019 A 
ATOM     26  C   UNL     1      -4.953  -8.006   0.408  0.00  0.00    +0.018 A 
ATOM     27  C   UNL     1      -4.154  -8.067   1.536  0.00  0.00    +0.019 A 
ATOM     28  C   UNL     1      -2.910  -7.465   1.536  0.00  0.00    +0.047 A 
ATOM     29 BR   UNL     1      -6.651  -8.837   0.408  0.00  0.00    -0.050 Br
ENDBRANCH  22  23
ENDBRANCH   4  22
TORSDOF 4
