REMARK  Name = ZINC12357636
REMARK  5 active torsions:
REMARK  status: ('A' for Active; 'I' for Inactive)
REMARK    1  A    between atoms: C_1  and  C_2
REMARK    2  A    between atoms: C_2  and  C_4
REMARK    3  A    between atoms: C_2  and  N_7
REMARK    4  A    between atoms: C_8  and  C_17
REMARK    5  A    between atoms: C_10  and  C_12
REMARK                            x       y       z     vdW  Elec       q    Type
REMARK                         _______ _______ _______ _____ _____    ______ ____
ROOT
ATOM      1  N   UNL     1      -0.627   1.763   1.385  0.00  0.00    -0.255 N 
ATOM      2  C   UNL     1      -0.169   2.752   2.181  0.00  0.00    +0.058 A 
ATOM      3  C   UNL     1      -1.201   3.179   2.945  0.00  0.00    +0.071 A 
ATOM      4  C   UNL     1      -2.327   2.418   2.611  0.00  0.00    +0.179 A 
ATOM      5  N   UNL     1      -1.984   1.569   1.676  0.00  0.00    -0.165 NA
ATOM      6 BR   UNL     1      -1.133   4.555   4.240  0.00  0.00    -0.046 Br
ENDROOT
BRANCH   4   7
ATOM      7  C   UNL     1      -3.698   2.553   3.221  0.00  0.00    +0.437 C 
ATOM      8  F   UNL     1      -4.534   1.551   2.717  0.00  0.00    -0.164 F 
ATOM      9  F   UNL     1      -3.604   2.427   4.611  0.00  0.00    -0.164 F 
ATOM     10  F   UNL     1      -4.229   3.808   2.901  0.00  0.00    -0.164 F 
ENDBRANCH   4   7
BRANCH   2  11
ATOM     11  C   UNL     1       1.240   3.288   2.212  0.00  0.00    +0.039 C 
ATOM     12  C   UNL     1       1.667   4.082   3.447  0.00  0.00    +0.010 C 
ATOM     13  C   UNL     1       1.421   4.804   2.121  0.00  0.00    +0.010 C 
ENDBRANCH   2  11
BRANCH   1  15
ATOM     14  C   UNL     1      -0.459   1.208  -0.991  0.00  0.00    +0.042 C 
ATOM     15  C   UNL     1       0.157   1.019   0.397  0.00  0.00    +0.187 C 
BRANCH  15  16
ATOM     16  C   UNL     1       0.154  -0.446   0.752  0.00  0.00    +0.246 C 
ATOM     17  O   UNL     1      -0.442  -0.829   1.730  0.00  0.00    -0.277 OA
ATOM     18 CL   UNL     1       1.007  -1.583  -0.245  0.00  0.00    -0.041 Cl
ENDBRANCH  15  16
ENDBRANCH   1  15
TORSDOF 4
