REMARK  Name = ZINC06916043
REMARK  7 active torsions:
REMARK  status: ('A' for Active; 'I' for Inactive)
REMARK    1  A    between atoms: C_1  and  C_2
REMARK    2  A    between atoms: C_2  and  C_3
REMARK    3  A    between atoms: C_3  and  C_5
REMARK    4  A    between atoms: C_3  and  N_6
REMARK    5  A    between atoms: C_7  and  C_9
REMARK    6  A    between atoms: C_9  and  C_10
REMARK    7  A    between atoms: C_13  and  N_16
REMARK                            x       y       z     vdW  Elec       q    Type
REMARK                         _______ _______ _______ _____ _____    ______ ____
ROOT
ATOM      1  C   UNL     1       4.835   0.552  -3.699  0.00  0.00    -0.039 A 
ATOM      2  C   UNL     1       5.561  -0.500  -4.226  0.00  0.00    +0.006 A 
ATOM      3  C   UNL     1       6.057  -0.424  -5.512  0.00  0.00    +0.023 A 
ATOM      4  C   UNL     1       5.825   0.711  -6.278  0.00  0.00    +0.035 A 
ATOM      5  C   UNL     1       5.095   1.766  -5.747  0.00  0.00    +0.023 A 
ATOM      6  C   UNL     1       4.597   1.681  -4.461  0.00  0.00    +0.006 A 
ENDROOT
BRANCH   4   7
ATOM      7  N   UNL     1       6.326   0.791  -7.582  0.00  0.00    -0.269 N 
ATOM      8  C   UNL     1       6.418  -0.321  -8.338  0.00  0.00    +0.311 C 
ATOM      9  O   UNL     1       5.977  -1.375  -7.925  0.00  0.00    -0.252 OA
ATOM     10  N   UNL     1       6.999  -0.263  -9.553  0.00  0.00    -0.255 N 
ATOM     11  C   UNL     1       7.106  -1.462 -10.401  0.00  0.00    +0.115 C 
ATOM     12  C   UNL     1       8.463  -2.103 -10.234  0.00  0.00    +0.020 C 
ATOM     13  C   UNL     1       9.614  -1.226 -10.705  0.00  0.00    +0.006 C 
ATOM     14  C   UNL     1       9.813  -0.031  -9.778  0.00  0.00    +0.037 C 
ATOM     15  C   UNL     1       8.884   1.093 -10.207  0.00  0.00    -0.026 A 
ATOM     16  C   UNL     1       7.513   0.939 -10.050  0.00  0.00    +0.041 A 
ATOM     17  C   UNL     1       6.654   1.976 -10.396  0.00  0.00    +0.024 A 
ATOM     18  C   UNL     1       7.169   3.146 -10.920  0.00  0.00    +0.002 A 
ATOM     19  C   UNL     1       8.532   3.288 -11.102  0.00  0.00    +0.000 A 
ATOM     20  C   UNL     1       9.402   2.254 -10.740  0.00  0.00    +0.005 A 
ATOM     21  H   UNL     1       6.607   1.647  -7.942  0.00  0.00    +0.156 HD
ENDBRANCH   4   7
BRANCH   1  22
ATOM     22  C   UNL     1       4.295   0.466  -2.295  0.00  0.00    +0.130 C 
BRANCH  22  24
ATOM     23  N   UNL     1       2.238  -0.326  -1.173  0.00  0.00    -0.312 N 
ATOM     24  C   UNL     1       2.919  -0.149  -2.322  0.00  0.00    +0.218 C 
ATOM     25  O   UNL     1       2.425  -0.483  -3.378  0.00  0.00    -0.275 OA
ATOM     26  H   UNL     1       2.633  -0.059  -0.328  0.00  0.00    +0.149 HD
BRANCH  23  27
ATOM     27  C   UNL     1       0.900  -0.924  -1.199  0.00  0.00    +0.070 C 
ATOM     28  C   UNL     1       1.023  -2.449  -1.191  0.00  0.00    +0.028 C 
BRANCH  27  30
ATOM     29  C   UNL     1      -0.116   1.043  -0.040  0.00  0.00    +0.005 C 
ATOM     30  C   UNL     1       0.114  -0.468   0.032  0.00  0.00    +0.018 C 
ENDBRANCH  27  30
ENDBRANCH  23  27
ENDBRANCH  22  24
ENDBRANCH   1  22
TORSDOF 5
