REMARK  Name = ZINC40315079
REMARK  11 active torsions:
REMARK  status: ('A' for Active; 'I' for Inactive)
REMARK    1  A    between atoms: C_1  and  C_2
REMARK    2  A    between atoms: C_5  and  O_9
REMARK    3  A    between atoms: C_7  and  C_8
REMARK    4  A    between atoms: O_9  and  C_10
REMARK    5  A    between atoms: C_10  and  C_11
REMARK    6  A    between atoms: C_11  and  C_13
REMARK    7  A    between atoms: C_11  and  O_32
REMARK    8  A    between atoms: C_13  and  N_14
REMARK    9  A    between atoms: N_14  and  C_15
REMARK   10  A    between atoms: N_14  and  C_24
REMARK   11  A    between atoms: C_15  and  C_16
REMARK                            x       y       z     vdW  Elec       q    Type
REMARK                         _______ _______ _______ _____ _____    ______ ____
ROOT
ATOM      1  N   UNL     1       1.695  -7.838  -2.724  0.00  0.00    +0.387 N 
ATOM      2  H   UNL     1       2.427  -8.186  -2.124  0.00  0.00    -0.081 HD
ENDROOT
BRANCH   1   3
ATOM      3  C   UNL     1       0.654  -7.200  -1.906  0.00  0.00    -0.045 C 
ATOM      4  C   UNL     1      -0.043  -8.258  -1.035  0.00  0.00    +0.009 C 
ATOM      5  C   UNL     1      -1.334  -7.667  -0.418  0.00  0.00    +0.164 C 
ATOM      6  S   UNL     1      -1.827  -6.398  -1.655  0.00  0.00    -0.033 S 
ATOM      7  O   UNL     1      -1.782  -5.116  -1.044  0.00  0.00    -0.174 OA
ATOM      8  O   UNL     1      -3.018  -6.822  -2.303  0.00  0.00    -0.174 OA
ATOM      9  C   UNL     1      -0.417  -6.552  -2.830  0.00  0.00    +0.151 C 
ENDBRANCH   1   3
BRANCH   1  10
ATOM     10  C   UNL     1       2.254  -6.853  -3.659  0.00  0.00    -0.043 C 
BRANCH  10  11
ATOM     11  C   UNL     1       3.026  -5.788  -2.877  0.00  0.00    +0.135 C 
BRANCH  11  12
ATOM     12  O   UNL     1       2.111  -5.011  -2.101  0.00  0.00    -0.390 OA
ATOM     13  H   UNL     1       1.403  -4.604  -2.619  0.00  0.00    +0.210 HD
ENDBRANCH  11  12
BRANCH  11  14
ATOM     14  C   UNL     1       3.768  -4.875  -3.855  0.00  0.00    +0.258 C 
BRANCH  14  15
ATOM     15  O   UNL     1       4.580  -3.954  -3.124  0.00  0.00    -0.489 OA
BRANCH  15  20
ATOM     16  C   UNL     1       7.606  -0.272  -6.126  0.00  0.00    +0.044 C 
ATOM     17  C   UNL     1       6.796  -1.257  -5.323  0.00  0.00    -0.047 A 
ATOM     18  C   UNL     1       5.990  -2.177  -5.969  0.00  0.00    +0.007 A 
ATOM     19  C   UNL     1       5.247  -3.081  -5.235  0.00  0.00    +0.046 A 
ATOM     20  C   UNL     1       5.311  -3.066  -3.849  0.00  0.00    +0.121 A 
ATOM     21  C   UNL     1       6.121  -2.143  -3.204  0.00  0.00    +0.049 A 
ATOM     22  C   UNL     1       6.866  -1.244  -3.943  0.00  0.00    -0.044 A 
ATOM     23  C   UNL     1       7.750  -0.245  -3.243  0.00  0.00    +0.044 C 
ENDBRANCH  15  20
ENDBRANCH  14  15
ENDBRANCH  11  14
ENDBRANCH  10  11
ENDBRANCH   1  10
BRANCH   1  24
ATOM     24  C   UNL     1       1.109  -8.953  -3.480  0.00  0.00    -0.041 C 
BRANCH  24  25
ATOM     25  C   UNL     1       1.711 -10.251  -3.008  0.00  0.00    -0.046 A 
ATOM     26  C   UNL     1       3.084 -10.379  -2.905  0.00  0.00    +0.004 A 
ATOM     27  C   UNL     1       3.637 -11.569  -2.472  0.00  0.00    +0.020 A 
ATOM     28  C   UNL     1       2.818 -12.634  -2.142  0.00  0.00    +0.042 A 
ATOM     29  C   UNL     1       1.444 -12.507  -2.245  0.00  0.00    +0.040 A 
ATOM     30  C   UNL     1       0.891 -11.313  -2.673  0.00  0.00    +0.044 A 
ATOM     31 CL   UNL     1      -0.833 -11.151  -2.796  0.00  0.00    -0.083 Cl
ATOM     32 CL   UNL     1       3.513 -14.129  -1.599  0.00  0.00    -0.083 Cl
ENDBRANCH  24  25
ENDBRANCH   1  24
TORSDOF 9
