REMARK  Name = ZINC50255288
REMARK  7 active torsions:
REMARK  status: ('A' for Active; 'I' for Inactive)
REMARK    1  A    between atoms: C_1  and  C_2
REMARK    2  A    between atoms: C_2  and  C_28
REMARK    3  A    between atoms: C_3  and  N_17
REMARK    4  A    between atoms: N_5  and  C_9
REMARK    5  A    between atoms: C_9  and  C_10
REMARK    6  A    between atoms: N_17  and  O_27
REMARK    7  A    between atoms: N_20  and  C_21
REMARK                            x       y       z     vdW  Elec       q    Type
REMARK                         _______ _______ _______ _____ _____    ______ ____
ROOT
ATOM      1  C   UNL     1       0.178   1.530   0.064  0.00  0.00    +0.026 C 
ATOM      2  C   UNL     1       0.196   0.004   0.165  0.00  0.00    +0.054 C 
ATOM      3  C   UNL     1       1.040  -0.632  -0.971  0.00  0.00    +0.210 C 
ATOM      4  N   UNL     1       2.416  -0.836  -0.556  0.00  0.00    -0.293 N 
ATOM      5  C   UNL     1       2.725  -0.878   0.755  0.00  0.00    +0.112 C 
ATOM      6  S   UNL     1       4.262  -1.169   1.451  0.00  0.00    -0.028 S 
ATOM      7  S   UNL     1       1.189  -0.567   1.609  0.00  0.00    -0.093 S 
ATOM      8  C   UNL     1      -1.223  -0.568   0.199  0.00  0.00    +0.026 C 
ENDROOT
BRANCH   3   9
ATOM      9  N   UNL     1       1.019   0.255  -2.137  0.00  0.00    -0.145 N 
ATOM     10  C   UNL     1       0.780  -0.250  -3.363  0.00  0.00    +0.327 C 
ATOM     11  O   UNL     1       0.490  -1.424  -3.491  0.00  0.00    -0.250 OA
ATOM     12  N   UNL     1       0.862   0.546  -4.448  0.00  0.00    -0.295 N 
ATOM     13  H   UNL     1       1.165   1.463  -4.355  0.00  0.00    +0.151 HD
BRANCH  12  14
ATOM     14  C   UNL     1       0.494   0.026  -5.767  0.00  0.00    +0.074 C 
ATOM     15  C   UNL     1      -0.999   0.259  -6.009  0.00  0.00    +0.022 C 
ATOM     16  C   UNL     1      -1.383  -0.284  -7.387  0.00  0.00    +0.002 C 
ATOM     17  C   UNL     1      -0.574   0.441  -8.464  0.00  0.00    +0.000 C 
ATOM     18  C   UNL     1       0.919   0.209  -8.223  0.00  0.00    +0.002 C 
ATOM     19  C   UNL     1       1.303   0.751  -6.845  0.00  0.00    +0.022 C 
ENDBRANCH  12  14
BRANCH   9  20
ATOM     20  O   UNL     1       1.251   1.643  -1.976  0.00  0.00    -0.290 OA
ATOM     21  H   UNL     1       1.138   2.157  -2.787  0.00  0.00    +0.242 HD
ENDBRANCH   9  20
ENDBRANCH   3   9
BRANCH   4  22
ATOM     22  C   UNL     1       3.469  -0.995  -1.562  0.00  0.00    +0.143 C 
BRANCH  22  23
ATOM     23  C   UNL     1       4.143   0.332  -1.799  0.00  0.00    -0.030 A 
ATOM     24  C   UNL     1       3.747   1.128  -2.858  0.00  0.00    +0.008 A 
ATOM     25  C   UNL     1       4.364   2.345  -3.076  0.00  0.00    +0.038 A 
ATOM     26  C   UNL     1       5.379   2.767  -2.233  0.00  0.00    +0.123 A 
ATOM     27  C   UNL     1       5.774   1.969  -1.173  0.00  0.00    +0.038 A 
ATOM     28  C   UNL     1       5.152   0.754  -0.954  0.00  0.00    +0.008 A 
ATOM     29  F   UNL     1       5.983   3.957  -2.446  0.00  0.00    -0.205 F 
ENDBRANCH  22  23
ENDBRANCH   4  22
TORSDOF 5
