REMARK  Name = ZINC23225654
REMARK  9 active torsions:
REMARK  status: ('A' for Active; 'I' for Inactive)
REMARK    1  A    between atoms: C_1  and  C_2
REMARK    2  A    between atoms: C_2  and  C_4
REMARK    3  A    between atoms: C_2  and  O_18
REMARK    4  A    between atoms: N_6  and  C_7
REMARK    5  A    between atoms: C_8  and  C_15
REMARK    6  A    between atoms: O_18  and  C_19
REMARK    7  A    between atoms: C_19  and  C_21
REMARK    8  A    between atoms: C_24  and  S_27
REMARK    9  A    between atoms: S_27  and  C_28
REMARK                            x       y       z     vdW  Elec       q    Type
REMARK                         _______ _______ _______ _____ _____    ______ ____
ROOT
ATOM      1  C   UNL     1       0.707  -0.490  -1.238  0.00  0.00    +0.258 C 
ATOM      2  O   UNL     1       1.753  -1.097  -1.142  0.00  0.00    -0.271 OA
ATOM      3  N   UNL     1       0.176  -0.250  -2.453  0.00  0.00    -0.276 N 
ATOM      4  H   UNL     1      -0.660   0.235  -2.530  0.00  0.00    +0.155 HD
ENDROOT
BRANCH   3   5
ATOM      5  C   UNL     1       0.825  -0.697  -3.594  0.00  0.00    +0.084 A 
ATOM      6  C   UNL     1       0.436  -0.539  -4.911  0.00  0.00    +0.068 A 
ATOM      7  C   UNL     1       1.304  -1.109  -5.940  0.00  0.00    -0.023 A 
ATOM      8  C   UNL     1       2.395  -1.729  -5.455  0.00  0.00    -0.004 A 
ATOM      9  S   UNL     1       2.268  -1.548  -3.694  0.00  0.00    -0.077 S 
ATOM     10  C   UNL     1       3.251  -2.300  -6.553  0.00  0.00    +0.043 C 
ATOM     11  C   UNL     1       2.328  -2.328  -7.792  0.00  0.00    +0.010 C 
ATOM     12  C   UNL     1       1.326  -1.202  -7.464  0.00  0.00    +0.037 C 
BRANCH   6  13
ATOM     13  C   UNL     1      -0.799   0.170  -5.262  0.00  0.00    +0.244 C 
ATOM     14  O   UNL     1      -0.776   1.371  -5.457  0.00  0.00    -0.270 OA
ATOM     15  N   UNL     1      -1.959  -0.508  -5.367  0.00  0.00    -0.325 N 
ATOM     16  H   UNL     1      -1.977  -1.465  -5.211  0.00  0.00    +0.145 HD
ATOM     17  H   UNL     1      -2.775  -0.038  -5.599  0.00  0.00    +0.145 HD
ENDBRANCH   6  13
ENDBRANCH   3   5
BRANCH   1  19
ATOM     18  C   UNL     1      -0.019   1.526   0.010  0.00  0.00    +0.062 C 
ATOM     19  C   UNL     1       0.002  -0.004   0.002  0.00  0.00    +0.259 C 
BRANCH  19  20
ATOM     20  O   UNL     1       0.693  -0.477   1.160  0.00  0.00    -0.449 OA
BRANCH  20  21
ATOM     21  C   UNL     1      -0.045  -0.698   2.266  0.00  0.00    +0.340 C 
ATOM     22  O   UNL     1      -1.243  -0.493   2.247  0.00  0.00    -0.245 OA
BRANCH  21  23
ATOM     23  C   UNL     1       0.600  -1.186   3.497  0.00  0.00    +0.059 A 
ATOM     24  C   UNL     1       1.980  -1.417   3.521  0.00  0.00    +0.016 A 
ATOM     25  C   UNL     1       2.575  -1.869   4.664  0.00  0.00    +0.016 A 
ATOM     26  C   UNL     1       1.810  -2.102   5.805  0.00  0.00    +0.016 A 
ATOM     27  C   UNL     1       0.436  -1.874   5.784  0.00  0.00    +0.016 A 
ATOM     28  C   UNL     1      -0.165  -1.415   4.646  0.00  0.00    +0.016 A 
BRANCH  26  29
ATOM     29  S   UNL     1       2.582  -2.686   7.277  0.00  0.00    -0.016 S 
BRANCH  29  30
ATOM     30  C   UNL     1       1.214  -2.835   8.460  0.00  0.00    +0.448 C 
ATOM     31  F   UNL     1       0.267  -3.739   7.967  0.00  0.00    -0.160 F 
ATOM     32  F   UNL     1       1.706  -3.297   9.686  0.00  0.00    -0.160 F 
ATOM     33  F   UNL     1       0.615  -1.583   8.640  0.00  0.00    -0.160 F 
ENDBRANCH  29  30
ENDBRANCH  26  29
ENDBRANCH  21  23
ENDBRANCH  20  21
ENDBRANCH  19  20
ENDBRANCH   1  19
TORSDOF 8
