REMARK  Name = ZINC18199490
REMARK  2 active torsions:
REMARK  status: ('A' for Active; 'I' for Inactive)
REMARK    1  A    between atoms: C_3  and  O_28
REMARK    2  A    between atoms: C_4  and  C_8
REMARK                            x       y       z     vdW  Elec       q    Type
REMARK                         _______ _______ _______ _____ _____    ______ ____
ROOT
ATOM      1  C   UNL     1       2.445   4.745   0.004  0.00  0.00    +0.096 C 
ATOM      2  C   UNL     1       3.208   4.409  -1.244  0.00  0.00    +0.067 A 
ATOM      3  C   UNL     1       4.266   3.551  -1.208  0.00  0.00    +0.113 A 
ATOM      4  N   UNL     1       4.941   3.257  -2.368  0.00  0.00    -0.295 N 
ATOM      5  H   UNL     1       5.717   2.627  -2.346  0.00  0.00    +0.172 HD
ATOM      6  C   UNL     1       4.563   3.814  -3.533  0.00  0.00    +0.328 A 
ATOM      7  O   UNL     1       5.170   3.542  -4.551  0.00  0.00    -0.247 OA
ATOM      8  N   UNL     1       3.524   4.666  -3.589  0.00  0.00    -0.275 N 
ATOM      9  H   UNL     1       3.260   5.070  -4.465  0.00  0.00    +0.173 HD
ATOM     10  C   UNL     1       2.835   4.980  -2.474  0.00  0.00    +0.260 A 
ATOM     11  O   UNL     1       1.895   5.754  -2.531  0.00  0.00    -0.267 OA
ATOM     12  N   UNL     1       4.655   2.987  -0.019  0.00  0.00    -0.303 N 
ATOM     13  C   UNL     1       4.285   3.549   1.174  0.00  0.00    +0.017 C 
ATOM     14  C   UNL     1       3.236   4.394   1.238  0.00  0.00    +0.024 C 
ATOM     15  C   UNL     1       2.847   4.974   2.460  0.00  0.00    +0.162 C 
ATOM     16  O   UNL     1       1.907   5.744   2.482  0.00  0.00    -0.292 OA
ATOM     17  C   UNL     1       3.573   4.659   3.739  0.00  0.00    +0.080 C 
ATOM     18  C   UNL     1       4.172   3.252   3.637  0.00  0.00    +0.014 C 
ATOM     19  C   UNL     1       5.082   3.201   2.408  0.00  0.00    +0.051 C 
ATOM     20  H   UNL     1       5.198   2.183  -0.023  0.00  0.00    +0.153 HD
ENDROOT
BRANCH   1  24
ATOM     21  C   UNL     1      -1.231   2.561   0.022  0.00  0.00    +0.019 A 
ATOM     22  C   UNL     1      -1.252   3.942   0.035  0.00  0.00    +0.047 A 
ATOM     23  C   UNL     1      -0.061   4.653   0.028  0.00  0.00    +0.121 A 
ATOM     24  C   UNL     1       1.149   3.975   0.012  0.00  0.00    +0.007 A 
ATOM     25  C   UNL     1       1.166   2.594   0.005  0.00  0.00    +0.023 A 
ATOM     26  C   UNL     1      -0.024   1.887   0.012  0.00  0.00    +0.018 A 
ATOM     27 BR   UNL     1       0.002  -0.004   0.002  0.00  0.00    -0.050 Br
BRANCH  23  28
ATOM     28  O   UNL     1      -0.080   6.012   0.036  0.00  0.00    -0.506 OA
ATOM     29  H   UNL     1      -0.093   6.410  -0.846  0.00  0.00    +0.292 HD
ENDBRANCH  23  28
ENDBRANCH   1  24
TORSDOF 2
