REMARK  Name = ZINC08215863
REMARK  3 active torsions:
REMARK  status: ('A' for Active; 'I' for Inactive)
REMARK    1  A    between atoms: C_5  and  N_7
REMARK    2  A    between atoms: C_8  and  C_10
REMARK    3  A    between atoms: C_16  and  C_18
REMARK                            x       y       z     vdW  Elec       q    Type
REMARK                         _______ _______ _______ _____ _____    ______ ____
ROOT
ATOM      1  N   UNL     1      -0.551  -2.300   0.057  0.00  0.00    -0.209 N 
ATOM      2  C   UNL     1      -1.054  -2.780   1.212  0.00  0.00    +0.229 C 
ATOM      3  O   UNL     1      -1.684  -3.815   1.214  0.00  0.00    -0.275 OA
ATOM      4  C   UNL     1      -0.834  -2.915  -1.109  0.00  0.00    +0.229 C 
ATOM      5  O   UNL     1      -0.311  -2.539  -2.135  0.00  0.00    -0.275 OA
ENDROOT
BRANCH   1  10
ATOM      6  C   UNL     1       2.457  -0.178   0.127  0.00  0.00    +0.003 A 
ATOM      7  C   UNL     1       1.906   1.093   0.091  0.00  0.00    +0.014 A 
ATOM      8  C   UNL     1       0.528   1.245   0.043  0.00  0.00    +0.055 A 
ATOM      9  C   UNL     1      -0.304   0.107   0.031  0.00  0.00    +0.075 A 
ATOM     10  C   UNL     1       0.263  -1.166   0.068  0.00  0.00    +0.057 A 
ATOM     11  C   UNL     1       1.649  -1.296   0.116  0.00  0.00    +0.025 A 
ATOM     12  C   UNL     1      -1.766   0.301  -0.020  0.00  0.00    +0.273 A 
ATOM     13  O   UNL     1      -2.511  -0.659  -0.032  0.00  0.00    -0.266 OA
ATOM     14  N   UNL     1      -2.268   1.551  -0.054  0.00  0.00    -0.263 N 
ATOM     15  H   UNL     1      -3.230   1.671  -0.092  0.00  0.00    +0.190 HD
ATOM     16  N   UNL     1      -1.446   2.679  -0.043  0.00  0.00    -0.263 N 
ATOM     17  H   UNL     1      -1.854   3.559  -0.069  0.00  0.00    +0.190 HD
ATOM     18  C   UNL     1      -0.103   2.582   0.004  0.00  0.00    +0.271 A 
ATOM     19  O   UNL     1       0.583   3.585   0.013  0.00  0.00    -0.266 OA
ENDBRANCH   1  10
BRANCH   2  20
ATOM     20  C   UNL     1      -0.831  -2.030   2.500  0.00  0.00    +0.076 C 
ATOM     21  C   UNL     1       0.494  -2.470   3.124  0.00  0.00    +0.013 C 
ATOM     22  C   UNL     1       0.720  -1.708   4.432  0.00  0.00    +0.001 C 
ATOM     23  C   UNL     1      -0.425  -2.009   5.401  0.00  0.00    +0.000 C 
ATOM     24  C   UNL     1      -1.751  -1.569   4.777  0.00  0.00    +0.001 C 
ATOM     25  C   UNL     1      -1.976  -2.330   3.469  0.00  0.00    +0.013 C 
ENDBRANCH   2  20
BRANCH   4  26
ATOM     26  C   UNL     1      -1.802  -4.070  -1.135  0.00  0.00    +0.076 C 
ATOM     27  C   UNL     1      -1.110  -5.327  -0.603  0.00  0.00    +0.013 C 
ATOM     28  C   UNL     1      -2.092  -6.500  -0.630  0.00  0.00    +0.001 C 
ATOM     29  C   UNL     1      -2.557  -6.743  -2.068  0.00  0.00    +0.000 C 
ATOM     30  C   UNL     1      -3.249  -5.486  -2.600  0.00  0.00    +0.001 C 
ATOM     31  C   UNL     1      -2.267  -4.313  -2.572  0.00  0.00    +0.013 C 
ENDBRANCH   4  26
TORSDOF 3
