REMARK  Name = ZINC06536536
REMARK  8 active torsions:
REMARK  status: ('A' for Active; 'I' for Inactive)
REMARK    1  A    between atoms: C_1  and  C_2
REMARK    2  A    between atoms: C_5  and  C_8
REMARK    3  A    between atoms: C_11  and  S_14
REMARK    4  A    between atoms: N_12  and  N_13
REMARK    5  A    between atoms: S_14  and  C_15
REMARK    6  A    between atoms: C_15  and  C_16
REMARK    7  A    between atoms: C_16  and  C_18
REMARK    8  A    between atoms: C_18  and  C_28
REMARK                            x       y       z     vdW  Elec       q    Type
REMARK                         _______ _______ _______ _____ _____    ______ ____
ROOT
ATOM      1  C   UNL     1      -0.046   0.330   0.036  0.00  0.00    +0.157 C 
ENDROOT
BRANCH   1   2
ATOM      2  C   UNL     1      -0.770   0.535   1.342  0.00  0.00    +0.187 C 
ATOM      3  O   UNL     1      -1.785   1.203   1.375  0.00  0.00    -0.290 OA
BRANCH   2   4
ATOM      4  C   UNL     1      -0.272  -0.046   2.520  0.00  0.00    +0.131 C 
ATOM      5  C   UNL     1      -0.948   0.145   3.739  0.00  0.00    +0.114 C 
ATOM      6  N   UNL     1      -2.083   0.872   3.903  0.00  0.00    -0.300 N 
ATOM      7  C   UNL     1      -2.443   0.822   5.244  0.00  0.00    +0.054 A 
ATOM      8  C   UNL     1      -3.496   1.370   5.965  0.00  0.00    +0.025 A 
ATOM      9  C   UNL     1      -3.590   1.146   7.323  0.00  0.00    +0.002 A 
ATOM     10  C   UNL     1      -2.639   0.375   7.971  0.00  0.00    +0.002 A 
ATOM     11  C   UNL     1      -1.589  -0.174   7.265  0.00  0.00    +0.025 A 
ATOM     12  C   UNL     1      -1.484   0.045   5.898  0.00  0.00    +0.054 A 
ATOM     13  N   UNL     1      -0.566  -0.364   4.939  0.00  0.00    -0.300 N 
ATOM     14  H   UNL     1      -2.546   1.372   3.039  0.00  0.00    +0.153 HD
ATOM     15  H   UNL     1       0.341  -0.982   5.010  0.00  0.00    +0.153 HD
BRANCH   4  16
ATOM     16  C   UNL     1       0.924  -0.833   2.481  0.00  0.00    +0.106 C 
ATOM     17  N   UNL     1       1.872  -1.457   2.449  0.00  0.00    -0.191 NA
ENDBRANCH   4  16
ENDBRANCH   2   4
ENDBRANCH   1   2
BRANCH   1  18
ATOM     18  S   UNL     1      -0.928   1.196  -1.285  0.00  0.00    -0.076 S 
BRANCH  18  22
ATOM     19  C   UNL     1       0.971   0.648  -4.656  0.00  0.00    +0.182 A 
ATOM     20  N   UNL     1       1.706  -0.022  -3.799  0.00  0.00    -0.127 NA
ATOM     21  N   UNL     1       1.200   0.071  -2.621  0.00  0.00    -0.121 NA
ATOM     22  C   UNL     1       0.106   0.799  -2.655  0.00  0.00    +0.209 A 
ATOM     23  N   UNL     1      -0.076   1.194  -3.950  0.00  0.00    -0.224 N 
BRANCH  19  28
ATOM     24  C   UNL     1       1.946   1.199 -10.300  0.00  0.00    +0.044 C 
ATOM     25  C   UNL     1       1.691   1.054  -8.822  0.00  0.00    -0.050 A 
ATOM     26  C   UNL     1       0.825   1.925  -8.185  0.00  0.00    +0.004 A 
ATOM     27  C   UNL     1       0.587   1.798  -6.832  0.00  0.00    +0.012 A 
ATOM     28  C   UNL     1       1.222   0.789  -6.106  0.00  0.00    +0.021 A 
ATOM     29  C   UNL     1       2.099  -0.082  -6.754  0.00  0.00    +0.012 A 
ATOM     30  C   UNL     1       2.324   0.053  -8.108  0.00  0.00    +0.004 A 
ENDBRANCH  19  28
BRANCH  23  31
ATOM     31  N   UNL     1      -1.087   1.970  -4.441  0.00  0.00    -0.295 N 
ATOM     32  H   UNL     1      -1.869   2.347  -3.765  0.00  0.00    +0.163 HD
ATOM     33  H   UNL     1      -1.119   2.219  -5.512  0.00  0.00    +0.163 HD
ENDBRANCH  23  31
ENDBRANCH  18  22
ENDBRANCH   1  18
TORSDOF 7
