REMARK  Name = ZINC23967213
REMARK  10 active torsions:
REMARK  status: ('A' for Active; 'I' for Inactive)
REMARK    1  A    between atoms: C_1  and  C_2
REMARK    2  A    between atoms: C_2  and  C_3
REMARK    3  A    between atoms: C_3  and  C_4
REMARK    4  A    between atoms: C_3  and  C_5
REMARK    5  A    between atoms: C_3  and  N_6
REMARK    6  A    between atoms: C_7  and  C_9
REMARK    7  A    between atoms: C_9  and  C_11
REMARK    8  A    between atoms: C_9  and  S_12
REMARK    9  A    between atoms: S_12  and  C_13
REMARK   10  A    between atoms: C_16  and  C_19
REMARK                            x       y       z     vdW  Elec       q    Type
REMARK                         _______ _______ _______ _____ _____    ______ ____
ROOT
ATOM      1  C   UNL     1       1.879  -4.486  -1.741  0.00  0.00    +0.185 A 
ATOM      2  N   UNL     1       2.698  -5.449  -2.256  0.00  0.00    -0.201 NA
ATOM      3  H   UNL     1       0.154  -4.675  -0.406  0.00  0.00    +0.191 HD
ATOM      4  C   UNL     1       2.221  -6.643  -1.766  0.00  0.00    +0.182 A 
ATOM      5  N   UNL     1       1.179  -6.363  -1.018  0.00  0.00    -0.152 NA
ATOM      6  N   UNL     1       0.983  -5.093  -0.996  0.00  0.00    -0.253 N 
ENDROOT
BRANCH   4   7
ATOM      7  C   UNL     1       2.777  -7.987  -2.030  0.00  0.00    +0.021 A 
ATOM      8  C   UNL     1       3.886  -8.134  -2.864  0.00  0.00    +0.013 A 
ATOM      9  C   UNL     1       4.404  -9.390  -3.104  0.00  0.00    +0.021 A 
ATOM     10  C   UNL     1       3.819 -10.505  -2.526  0.00  0.00    +0.041 A 
ATOM     11  C   UNL     1       2.715 -10.365  -1.702  0.00  0.00    +0.021 A 
ATOM     12  C   UNL     1       2.192  -9.114  -1.451  0.00  0.00    +0.013 A 
ATOM     13 CL   UNL     1       4.471 -12.083  -2.837  0.00  0.00    -0.084 Cl
ENDBRANCH   4   7
BRANCH   1  14
ATOM     14  S   UNL     1       2.002  -2.750  -2.022  0.00  0.00    -0.074 S 
BRANCH  14  15
ATOM     15  C   UNL     1       0.606  -2.171  -1.026  0.00  0.00    +0.137 C 
ATOM     16  C   UNL     1      -0.701  -2.696  -1.626  0.00  0.00    +0.029 C 
BRANCH  15  18
ATOM     17  N   UNL     1       0.002  -0.004   0.002  0.00  0.00    -0.309 N 
ATOM     18  C   UNL     1       0.585  -0.664  -1.018  0.00  0.00    +0.227 C 
ATOM     19  O   UNL     1       1.093  -0.046  -1.929  0.00  0.00    -0.275 OA
ATOM     20  H   UNL     1      -0.459  -0.565   0.828  0.00  0.00    +0.149 HD
BRANCH  17  21
ATOM     21  C   UNL     1      -0.018   1.461   0.010  0.00  0.00    +0.029 C 
ATOM     22  C   UNL     1       1.418   1.990  -0.001  0.00  0.00    +0.031 C 
ATOM     23  C   UNL     1      -0.758   1.968  -1.230  0.00  0.00    +0.031 C 
BRANCH  21  25
ATOM     24  C   UNL     1      -0.755   3.484   1.277  0.00  0.00    +0.006 C 
ATOM     25  C   UNL     1      -0.734   1.954   1.269  0.00  0.00    +0.022 C 
ENDBRANCH  21  25
ENDBRANCH  17  21
ENDBRANCH  15  18
ENDBRANCH  14  15
ENDBRANCH   1  14
TORSDOF 6
