REMARK  Name = ZINC39965014
REMARK  13 active torsions:
REMARK  status: ('A' for Active; 'I' for Inactive)
REMARK    1  A    between atoms: C_1  and  C_2
REMARK    2  A    between atoms: C_3  and  C_34
REMARK    3  A    between atoms: C_4  and  N_12
REMARK    4  A    between atoms: C_6  and  C_7
REMARK    5  A    between atoms: N_9  and  C_10
REMARK    6  A    between atoms: N_9  and  C_11
REMARK    7  A    between atoms: C_13  and  C_15
REMARK    8  A    between atoms: C_15  and  N_16
REMARK    9  A    between atoms: N_19  and  S_22
REMARK   10  A    between atoms: S_22  and  C_25
REMARK   11  A    between atoms: C_28  and  C_31
REMARK   12  A    between atoms: C_31  and  C_32
REMARK   13  A    between atoms: C_31  and  C_33
REMARK                            x       y       z     vdW  Elec       q    Type
REMARK                         _______ _______ _______ _____ _____    ______ ____
ROOT
ATOM      1  C   UNL     1       1.749  -5.395  -2.692  0.00  0.00    +0.180 C 
ENDROOT
BRANCH   1   2
ATOM      2  N   UNL     1       1.730  -6.745  -2.114  0.00  0.00    -0.291 NA
ATOM      3  C   UNL     1       2.819  -6.919  -1.144  0.00  0.00    +0.102 C 
ATOM      4  C   UNL     1       2.657  -8.267  -0.434  0.00  0.00    +0.125 C 
ATOM      5  N   UNL     1       2.559  -9.323  -1.454  0.00  0.00    -0.174 NA
ATOM      6  C   UNL     1       1.581  -9.152  -2.540  0.00  0.00    +0.125 C 
ATOM      7  C   UNL     1       1.786  -7.769  -3.166  0.00  0.00    +0.102 C 
BRANCH   5   8
ATOM      8  S   UNL     1       3.522 -10.667  -1.381  0.00  0.00    +0.061 S 
ATOM      9  O   UNL     1       3.610 -11.177  -2.705  0.00  0.00    -0.153 OA
ATOM     10  O   UNL     1       4.671 -10.303  -0.627  0.00  0.00    -0.153 OA
BRANCH   8  11
ATOM     11  C   UNL     1       2.660 -11.876  -0.432  0.00  0.00    +0.105 A 
ATOM     12  C   UNL     1       2.827 -11.927   0.939  0.00  0.00    +0.029 A 
ATOM     13  C   UNL     1       2.150 -12.875   1.683  0.00  0.00    +0.006 A 
ATOM     14  C   UNL     1       1.306 -13.772   1.056  0.00  0.00    -0.045 A 
ATOM     15  C   UNL     1       1.138 -13.721  -0.315  0.00  0.00    +0.006 A 
ATOM     16  C   UNL     1       1.812 -12.770  -1.059  0.00  0.00    +0.029 A 
BRANCH  14  17
ATOM     17  C   UNL     1       0.569 -14.806   1.867  0.00  0.00    +0.013 C 
ATOM     18  C   UNL     1      -0.939 -14.617   1.687  0.00  0.00    +0.012 C 
ATOM     19  C   UNL     1       0.967 -16.205   1.393  0.00  0.00    +0.012 C 
ENDBRANCH  14  17
ENDBRANCH   8  11
ENDBRANCH   5   8
ENDBRANCH   1   2
BRANCH   1  21
ATOM     20  N   UNL     1       1.409  -3.071  -1.917  0.00  0.00    -0.278 N 
ATOM     21  C   UNL     1       1.445  -4.384  -1.617  0.00  0.00    +0.232 C 
ATOM     22  O   UNL     1       1.233  -4.752  -0.481  0.00  0.00    -0.274 OA
ATOM     23  H   UNL     1       1.579  -2.776  -2.826  0.00  0.00    +0.155 HD
BRANCH  20  27
ATOM     24  C   UNL     1       0.645   1.478   0.065  0.00  0.00    +0.046 C 
ATOM     25  C   UNL     1       0.754  -0.025   0.089  0.00  0.00    -0.012 A 
ATOM     26  C   UNL     1       1.051  -0.756  -1.052  0.00  0.00    +0.084 A 
ATOM     27  C   UNL     1       1.130  -2.143  -0.930  0.00  0.00    +0.090 A 
ATOM     28  S   UNL     1       0.808  -2.424   0.694  0.00  0.00    -0.067 S 
ATOM     29  C   UNL     1       0.571  -0.745   1.240  0.00  0.00    +0.080 A 
BRANCH  29  30
ATOM     30  C   UNL     1       0.256  -0.257   2.584  0.00  0.00    +0.253 C 
ATOM     31  O   UNL     1       0.272   0.938   2.817  0.00  0.00    -0.269 OA
ATOM     32  N   UNL     1      -0.051  -1.130   3.564  0.00  0.00    -0.303 N 
ATOM     33  C   UNL     1      -0.401  -0.640   4.899  0.00  0.00    +0.132 C 
ATOM     34  C   UNL     1      -0.034  -2.570   3.293  0.00  0.00    +0.132 C 
ENDBRANCH  29  30
BRANCH  26  35
ATOM     35  C   UNL     1       1.267  -0.109  -2.311  0.00  0.00    +0.102 C 
ATOM     36  N   UNL     1       1.439   0.405  -3.309  0.00  0.00    -0.191 NA
ENDBRANCH  26  35
ENDBRANCH  20  27
ENDBRANCH   1  21
TORSDOF 8
