REMARK  Name = ZINC10510891
REMARK  12 active torsions:
REMARK  status: ('A' for Active; 'I' for Inactive)
REMARK    1  A    between atoms: C_4  and  C_7
REMARK    2  A    between atoms: C_7  and  C_8
REMARK    3  A    between atoms: C_8  and  O_9
REMARK    4  A    between atoms: O_9  and  C_10
REMARK    5  A    between atoms: C_15  and  C_16
REMARK    6  A    between atoms: N_18  and  C_19
REMARK    7  A    between atoms: C_19  and  N_21
REMARK    8  A    between atoms: N_21  and  N_22
REMARK    9  A    between atoms: C_23  and  C_25
REMARK   10  A    between atoms: C_25  and  O_26
REMARK   11  A    between atoms: O_26  and  C_27
REMARK   12  A    between atoms: C_30  and  C_33
REMARK                            x       y       z     vdW  Elec       q    Type
REMARK                         _______ _______ _______ _____ _____    ______ ____
ROOT
ATOM      1  C   UNL     1       1.147   1.655   0.000  0.00  0.00    +0.153 C 
ATOM      2  S   UNL     1       1.124   3.367   0.009  0.00  0.00    -0.017 S 
ENDROOT
BRANCH   1   5
ATOM      3  C   UNL     1      -1.187   1.624   0.017  0.00  0.00    +0.253 C 
ATOM      4  O   UNL     1      -1.204   2.839   0.023  0.00  0.00    -0.270 OA
ATOM      5  N   UNL     1      -0.011   0.966   0.007  0.00  0.00    -0.263 N 
ATOM      6  H   UNL     1       0.002  -0.004   0.002  0.00  0.00    +0.157 HD
BRANCH   3  12
ATOM      7  C   UNL     1      -3.680   1.549   0.028  0.00  0.00    +0.133 A 
ATOM      8  C   UNL     1      -4.865   0.829   0.030  0.00  0.00    +0.046 A 
ATOM      9  C   UNL     1      -4.837  -0.551   0.022  0.00  0.00    +0.004 A 
ATOM     10  C   UNL     1      -3.627  -1.227   0.012  0.00  0.00    +0.001 A 
ATOM     11  C   UNL     1      -2.440  -0.528   0.005  0.00  0.00    +0.017 A 
ATOM     12  C   UNL     1      -2.454   0.869   0.018  0.00  0.00    +0.079 A 
BRANCH   7  13
ATOM     13  O   UNL     1      -3.707   2.906   0.036  0.00  0.00    -0.491 OA
BRANCH  13  14
ATOM     14  C   UNL     1      -4.992   3.529   0.045  0.00  0.00    +0.233 C 
BRANCH  14  15
ATOM     15  C   UNL     1      -4.822   5.050   0.053  0.00  0.00    +0.076 C 
BRANCH  15  19
ATOM     16  C   UNL     1      -8.665   6.914   0.082  0.00  0.00    +0.000 A 
ATOM     17  C   UNL     1      -8.037   6.606   1.274  0.00  0.00    +0.000 A 
ATOM     18  C   UNL     1      -6.794   6.002   1.265  0.00  0.00    +0.004 A 
ATOM     19  C   UNL     1      -6.178   5.707   0.063  0.00  0.00    -0.044 A 
ATOM     20  C   UNL     1      -6.802   6.021  -1.129  0.00  0.00    +0.004 A 
ATOM     21  C   UNL     1      -8.049   6.619  -1.120  0.00  0.00    +0.000 A 
ENDBRANCH  15  19
ENDBRANCH  14  15
ENDBRANCH  13  14
ENDBRANCH   7  13
ENDBRANCH   3  12
ENDBRANCH   1   5
BRANCH   1  22
ATOM     22  N   UNL     1       2.323   0.998  -0.015  0.00  0.00    -0.245 N 
ATOM     23  H   UNL     1       3.156   1.494  -0.020  0.00  0.00    +0.172 HD
BRANCH  22  24
ATOM     24  N   UNL     1       2.342  -0.403  -0.022  0.00  0.00    -0.232 N 
ATOM     25  C   UNL     1       3.518  -1.061  -0.037  0.00  0.00    +0.267 C 
ATOM     26  O   UNL     1       4.560  -0.441  -0.044  0.00  0.00    -0.271 OA
ATOM     27  H   UNL     1       1.509  -0.900  -0.017  0.00  0.00    +0.173 HD
BRANCH  25  28
ATOM     28  C   UNL     1       3.539  -2.568  -0.045  0.00  0.00    +0.326 C 
BRANCH  28  29
ATOM     29  O   UNL     1       4.892  -3.026  -0.061  0.00  0.00    -0.483 OA
BRANCH  29  30
ATOM     30  C   UNL     1       5.088  -4.370  -0.070  0.00  0.00    +0.121 A 
ATOM     31  C   UNL     1       3.998  -5.230  -0.059  0.00  0.00    +0.046 A 
ATOM     32  C   UNL     1       4.194  -6.595  -0.073  0.00  0.00    +0.012 A 
ATOM     33  C   UNL     1       5.489  -7.111  -0.088  0.00  0.00    -0.018 A 
ATOM     34  C   UNL     1       6.581  -6.246  -0.094  0.00  0.00    +0.012 A 
ATOM     35  C   UNL     1       6.379  -4.882  -0.085  0.00  0.00    +0.046 A 
BRANCH  33  36
ATOM     36  C   UNL     1       5.703  -8.579  -0.098  0.00  0.00    -0.018 A 
ATOM     37  C   UNL     1       6.997  -9.097  -0.118  0.00  0.00    +0.008 A 
ATOM     38  C   UNL     1       7.190 -10.464  -0.123  0.00  0.00    +0.001 A 
ATOM     39  C   UNL     1       6.103 -11.319  -0.117  0.00  0.00    +0.000 A 
ATOM     40  C   UNL     1       4.816 -10.810  -0.102  0.00  0.00    +0.001 A 
ATOM     41  C   UNL     1       4.611  -9.445  -0.092  0.00  0.00    +0.008 A 
ENDBRANCH  33  36
ENDBRANCH  29  30
ENDBRANCH  28  29
ENDBRANCH  25  28
ENDBRANCH  22  24
ENDBRANCH   1  22
TORSDOF 12
