REMARK  Name = ZINC63162920
REMARK  6 active torsions:
REMARK  status: ('A' for Active; 'I' for Inactive)
REMARK    1  A    between atoms: C_4  and  C_7
REMARK    2  A    between atoms: C_11  and  S_20
REMARK    3  A    between atoms: N_13  and  C_14
REMARK    4  A    between atoms: C_14  and  C_15
REMARK    5  A    between atoms: S_20  and  C_21
REMARK    6  A    between atoms: C_21  and  C_22
REMARK                            x       y       z     vdW  Elec       q    Type
REMARK                         _______ _______ _______ _____ _____    ______ ____
ROOT
ATOM      1  C   UNL     1       3.680  -0.728  -0.070  0.00  0.00    +0.172 C 
ATOM      2  N   UNL     1       4.722   0.127   0.556  0.00  0.00    -0.233 NA
ATOM      3  N   UNL     1       5.729  -0.848   1.002  0.00  0.00    -0.229 NA
ATOM      4  C   UNL     1       4.938  -2.006   1.476  0.00  0.00    +0.200 C 
ATOM      5  N   UNL     1       3.630  -1.934   0.789  0.00  0.00    -0.250 NA
ATOM      6  H   UNL     1       5.113   0.771  -0.115  0.00  0.00    +0.143 HD
ATOM      7  H   UNL     1       6.337  -1.113   0.241  0.00  0.00    +0.143 HD
ENDROOT
BRANCH   1  11
ATOM      8  C   UNL     1      -0.095   1.270  -0.069  0.00  0.00    +0.000 A 
ATOM      9  C   UNL     1       0.752   1.393   1.017  0.00  0.00    +0.000 A 
ATOM     10  C   UNL     1       1.974   0.746   1.016  0.00  0.00    +0.006 A 
ATOM     11  C   UNL     1       2.348  -0.024  -0.070  0.00  0.00    -0.015 A 
ATOM     12  C   UNL     1       1.500  -0.147  -1.155  0.00  0.00    +0.006 A 
ATOM     13  C   UNL     1       0.280   0.501  -1.155  0.00  0.00    +0.000 A 
ENDBRANCH   1  11
BRANCH   5  14
ATOM     14  C   UNL     1       2.531  -1.843   1.759  0.00  0.00    +0.163 C 
BRANCH  14  15
ATOM     15  C   UNL     1       2.401  -3.151   2.495  0.00  0.00    +0.119 A 
ATOM     16  C   UNL     1       3.028  -3.475   3.641  0.00  0.00    +0.046 A 
ATOM     17  C   UNL     1       2.621  -4.787   3.974  0.00  0.00    +0.041 A 
ATOM     18  C   UNL     1       1.770  -5.187   3.012  0.00  0.00    +0.195 A 
ATOM     19  O   UNL     1       1.636  -4.190   2.123  0.00  0.00    -0.467 OA
ENDBRANCH  14  15
ENDBRANCH   5  14
BRANCH   4  20
ATOM     20  S   UNL     1       5.781  -3.554   1.044  0.00  0.00    -0.121 S 
BRANCH  20  21
ATOM     21  C   UNL     1       5.927  -3.483  -0.763  0.00  0.00    +0.118 C 
BRANCH  21  22
ATOM     22  C   UNL     1       6.630  -4.745  -1.267  0.00  0.00    +0.184 C 
ATOM     23  N   UNL     1       5.896  -5.939  -0.830  0.00  0.00    -0.363 N 
ATOM     24  C   UNL     1       6.701  -6.642  -0.086  0.00  0.00    +0.060 A 
ATOM     25  C   UNL     1       6.544  -7.917   0.628  0.00  0.00    +0.027 A 
ATOM     26  C   UNL     1       7.578  -8.413   1.337  0.00  0.00    +0.002 A 
ATOM     27  C   UNL     1       8.819  -7.758   1.428  0.00  0.00    +0.002 A 
ATOM     28  C   UNL     1       9.068  -6.585   0.813  0.00  0.00    +0.027 A 
ATOM     29  C   UNL     1       8.015  -5.949   0.010  0.00  0.00    +0.060 A 
ATOM     30  N   UNL     1       7.971  -4.845  -0.678  0.00  0.00    -0.363 N 
ATOM     31  H   UNL     1       4.979  -6.164  -1.054  0.00  0.00    +0.162 HD
ATOM     32  H   UNL     1       8.693  -4.205  -0.783  0.00  0.00    +0.162 HD
ENDBRANCH  21  22
ENDBRANCH  20  21
ENDBRANCH   4  20
TORSDOF 6
