REMARK  Name = ZINC07377236
REMARK  7 active torsions:
REMARK  status: ('A' for Active; 'I' for Inactive)
REMARK    1  A    between atoms: C_1  and  C_2
REMARK    2  A    between atoms: C_5  and  S_9
REMARK    3  A    between atoms: C_7  and  C_8
REMARK    4  A    between atoms: S_9  and  N_12
REMARK    5  A    between atoms: N_12  and  C_13
REMARK    6  A    between atoms: C_18  and  C_23
REMARK    7  A    between atoms: C_20  and  C_22
REMARK                            x       y       z     vdW  Elec       q    Type
REMARK                         _______ _______ _______ _____ _____    ______ ____
ROOT
ATOM      1  S   UNL     1       1.497   4.357  -1.418  0.00  0.00    +0.059 S 
ATOM      2  O   UNL     1       1.426   5.737  -1.084  0.00  0.00    -0.153 OA
ATOM      3  O   UNL     1       2.589   3.803  -2.138  0.00  0.00    -0.153 OA
ENDROOT
BRANCH   1   8
ATOM      4  C   UNL     1      -3.479   3.091  -4.586  0.00  0.00    +0.044 C 
ATOM      5  C   UNL     1      -2.236   3.407  -3.794  0.00  0.00    -0.047 A 
ATOM      6  C   UNL     1      -1.107   2.623  -3.938  0.00  0.00    +0.005 A 
ATOM      7  C   UNL     1       0.035   2.916  -3.216  0.00  0.00    +0.029 A 
ATOM      8  C   UNL     1       0.044   3.987  -2.342  0.00  0.00    +0.106 A 
ATOM      9  C   UNL     1      -1.085   4.771  -2.199  0.00  0.00    +0.032 A 
ATOM     10  C   UNL     1      -2.226   4.481  -2.925  0.00  0.00    -0.046 A 
ATOM     11  C   UNL     1      -3.457   5.336  -2.768  0.00  0.00    +0.044 C 
ENDBRANCH   1   8
BRANCH   1  12
ATOM     12  N   UNL     1       1.397   3.520   0.008  0.00  0.00    -0.187 NA
ATOM     13  H   UNL     1       1.325   4.000   0.848  0.00  0.00    +0.148 HD
BRANCH  12  14
ATOM     14  C   UNL     1       1.417   2.055  -0.000  0.00  0.00    +0.080 C 
ATOM     15  C   UNL     1      -0.019   1.526   0.010  0.00  0.00    +0.020 C 
ATOM     16  C   UNL     1       0.002  -0.004   0.002  0.00  0.00    +0.002 C 
ATOM     17  C   UNL     1       0.742  -0.511   1.242  0.00  0.00    +0.003 C 
ATOM     18  C   UNL     1       2.178   0.019   1.231  0.00  0.00    -0.010 C 
ATOM     19  C   UNL     1       2.157   1.548   1.239  0.00  0.00    +0.007 C 
ATOM     20  C   UNL     1       1.441   2.042   2.498  0.00  0.00    +0.009 C 
ATOM     21  C   UNL     1       2.917  -0.488   2.470  0.00  0.00    +0.008 C 
ENDBRANCH  12  14
ENDBRANCH   1  12
TORSDOF 3
