REMARK  Name = ZINC24843609
REMARK  6 active torsions:
REMARK  status: ('A' for Active; 'I' for Inactive)
REMARK    1  A    between atoms: C_7  and  C_21
REMARK    2  A    between atoms: C_12  and  C_13
REMARK    3  A    between atoms: C_21  and  O_23
REMARK    4  A    between atoms: O_23  and  C_24
REMARK    5  A    between atoms: C_24  and  C_25
REMARK    6  A    between atoms: C_28  and  C_30
REMARK                            x       y       z     vdW  Elec       q    Type
REMARK                         _______ _______ _______ _____ _____    ______ ____
ROOT
ATOM      1  C   UNL     1      10.479   0.562   0.148  0.00  0.00    +0.001 A 
ATOM      2  C   UNL     1       9.772   1.714  -0.187  0.00  0.00    +0.002 A 
ATOM      3  C   UNL     1       8.413   1.707  -0.268  0.00  0.00    +0.028 A 
ATOM      4  C   UNL     1       7.706   0.518  -0.009  0.00  0.00    +0.072 A 
ATOM      5  C   UNL     1       8.431  -0.652   0.330  0.00  0.00    +0.015 A 
ATOM      6  C   UNL     1       9.826  -0.608   0.404  0.00  0.00    +0.011 A 
ATOM      7  C   UNL     1       7.688  -1.885   0.595  0.00  0.00    +0.073 A 
ATOM      8  C   UNL     1       6.304  -1.837   0.497  0.00  0.00    -0.007 A 
ATOM      9  C   UNL     1       5.681  -0.622   0.151  0.00  0.00    +0.072 A 
ATOM     10  N   UNL     1       6.376   0.480  -0.080  0.00  0.00    -0.247 NA
ATOM     11  C   UNL     1       4.207  -0.564   0.060  0.00  0.00    -0.018 C 
ATOM     12  C   UNL     1       3.560   0.617  -0.029  0.00  0.00    +0.052 C 
ATOM     13  C   UNL     1       3.448  -1.874   0.063  0.00  0.00    +0.038 C 
ATOM     14  C   UNL     1       4.074  -2.766   1.143  0.00  0.00    +0.009 C 
ATOM     15  C   UNL     1       5.515  -3.090   0.757  0.00  0.00    +0.038 C 
ENDROOT
BRANCH  12  16
ATOM     16  C   UNL     1       2.121   0.644  -0.292  0.00  0.00    +0.128 A 
ATOM     17  C   UNL     1       1.324   1.755  -0.284  0.00  0.00    +0.049 A 
ATOM     18  C   UNL     1       0.022   1.320  -0.586  0.00  0.00    +0.042 A 
ATOM     19  C   UNL     1       0.081  -0.017  -0.762  0.00  0.00    +0.195 A 
ATOM     20  O   UNL     1       1.348  -0.421  -0.584  0.00  0.00    -0.464 OA
ENDBRANCH  12  16
BRANCH   7  21
ATOM     21  C   UNL     1       8.387  -3.137   0.953  0.00  0.00    +0.341 C 
ATOM     22  O   UNL     1       8.737  -3.908   0.082  0.00  0.00    -0.245 OA
BRANCH  21  23
ATOM     23  O   UNL     1       8.635  -3.423   2.246  0.00  0.00    -0.452 OA
BRANCH  23  24
ATOM     24  C   UNL     1       9.325  -4.670   2.524  0.00  0.00    +0.328 C 
BRANCH  24  25
ATOM     25  C   UNL     1       9.514  -4.819   4.012  0.00  0.00    +0.257 C 
ATOM     26  O   UNL     1       9.107  -3.959   4.763  0.00  0.00    -0.272 OA
ATOM     27  N   UNL     1      10.135  -5.907   4.507  0.00  0.00    -0.248 N 
ATOM     28  C   UNL     1      10.304  -6.040   5.838  0.00  0.00    +0.267 C 
ATOM     29  O   UNL     1       9.896  -5.177   6.592  0.00  0.00    -0.268 OA
ATOM     30  H   UNL     1      10.504  -6.688   3.825  0.00  0.00    +0.158 HD
BRANCH  28  31
ATOM     31  C   UNL     1      10.979  -7.224   6.376  0.00  0.00    +0.102 A 
ATOM     32  C   UNL     1      11.225  -7.488   7.708  0.00  0.00    +0.032 A 
ATOM     33  C   UNL     1      11.885  -8.720   7.764  0.00  0.00    +0.020 A 
ATOM     34  C   UNL     1      12.033  -9.170   6.495  0.00  0.00    +0.083 A 
ATOM     35  N   UNL     1      11.489  -8.274   5.645  0.00  0.00    -0.357 N 
ATOM     36  H   UNL     1      11.407  -8.271   4.548  0.00  0.00    +0.165 HD
ENDBRANCH  28  31
ENDBRANCH  24  25
ENDBRANCH  23  24
ENDBRANCH  21  23
ENDBRANCH   7  21
TORSDOF 6
