REMARK  Name = ZINC12523025
REMARK  8 active torsions:
REMARK  status: ('A' for Active; 'I' for Inactive)
REMARK    1  A    between atoms: C_1  and  O_2
REMARK    2  A    between atoms: O_2  and  C_3
REMARK    3  A    between atoms: C_8  and  O_9
REMARK    4  A    between atoms: O_9  and  C_10
REMARK    5  A    between atoms: C_11  and  C_23
REMARK    6  A    between atoms: N_12  and  C_15
REMARK    7  A    between atoms: C_15  and  C_16
REMARK    8  A    between atoms: C_16  and  C_17
REMARK                            x       y       z     vdW  Elec       q    Type
REMARK                         _______ _______ _______ _____ _____    ______ ____
ROOT
ATOM      1  C   UNL     1      -1.201  -0.638   0.010  0.00  0.00    +0.162 A 
ATOM      2  C   UNL     1      -2.374   0.097   0.019  0.00  0.00    +0.053 A 
ATOM      3  C   UNL     1      -3.602  -0.546   0.027  0.00  0.00    -0.044 A 
ATOM      4  C   UNL     1      -3.661  -1.924   0.022  0.00  0.00    -0.050 A 
ATOM      5  C   UNL     1      -2.488  -2.664   0.015  0.00  0.00    +0.052 A 
ATOM      6  C   UNL     1      -1.259  -2.028   0.003  0.00  0.00    +0.162 A 
ATOM      7  C   UNL     1      -4.975  -2.660   0.021  0.00  0.00    -0.006 C 
ATOM      8  N   UNL     1      -6.060  -1.781   0.464  0.00  0.00    +0.387 N 
ATOM      9  C   UNL     1      -6.056  -0.563  -0.361  0.00  0.00    -0.073 C 
ATOM     10  C   UNL     1      -4.855   0.294   0.041  0.00  0.00    +0.017 C 
ATOM     11  H   UNL     1      -5.920  -1.534   1.432  0.00  0.00    -0.080 HD
ENDROOT
BRANCH   7  12
ATOM     12  C   UNL     1      -4.883  -3.843   0.951  0.00  0.00    -0.057 A 
ATOM     13  C   UNL     1      -5.027  -3.663   2.313  0.00  0.00    +0.002 A 
ATOM     14  C   UNL     1      -4.943  -4.748   3.166  0.00  0.00    +0.000 A 
ATOM     15  C   UNL     1      -4.714  -6.012   2.656  0.00  0.00    +0.000 A 
ATOM     16  C   UNL     1      -4.570  -6.192   1.293  0.00  0.00    +0.000 A 
ATOM     17  C   UNL     1      -4.659  -5.108   0.440  0.00  0.00    +0.002 A 
ENDBRANCH   7  12
BRANCH   1  19
ATOM     18  C   UNL     1      -0.017   1.425   0.010  0.00  0.00    +0.277 C 
ATOM     19  O   UNL     1       0.002  -0.004   0.002  0.00  0.00    -0.491 OA
ENDBRANCH   1  19
BRANCH   6  20
ATOM     20  O   UNL     1      -0.112  -2.759  -0.010  0.00  0.00    -0.491 OA
ATOM     21  C   UNL     1      -0.250  -4.182  -0.017  0.00  0.00    +0.277 C 
ENDBRANCH   6  20
BRANCH   8  22
ATOM     22  C   UNL     1      -7.347  -2.473   0.312  0.00  0.00    -0.071 C 
BRANCH  22  23
ATOM     23  C   UNL     1      -8.465  -1.603   0.889  0.00  0.00    +0.037 C 
BRANCH  23  24
ATOM     24  C   UNL     1      -9.785  -2.314   0.734  0.00  0.00    +0.040 A 
ATOM     25  C   UNL     1     -10.583  -2.524   1.843  0.00  0.00    +0.023 A 
ATOM     26  C   UNL     1     -11.795  -3.179   1.689  0.00  0.00    +0.003 A 
ATOM     27  C   UNL     1     -12.162  -3.599   0.419  0.00  0.00    +0.020 A 
ATOM     28  C   UNL     1     -11.312  -3.353  -0.643  0.00  0.00    +0.111 A 
ATOM     29  N   UNL     1     -10.168  -2.722  -0.460  0.00  0.00    -0.260 NA
ENDBRANCH  23  24
ENDBRANCH  22  23
ENDBRANCH   8  22
TORSDOF 6
