REMARK  Name = ZINC00950567
REMARK  7 active torsions:
REMARK  status: ('A' for Active; 'I' for Inactive)
REMARK    1  A    between atoms: C_1  and  C_2
REMARK    2  A    between atoms: C_3  and  C_19
REMARK    3  A    between atoms: C_4  and  C_12
REMARK    4  A    between atoms: C_15  and  O_18
REMARK    5  A    between atoms: C_19  and  O_21
REMARK    6  A    between atoms: O_21  and  C_22
REMARK    7  A    between atoms: C_22  and  C_23
REMARK                            x       y       z     vdW  Elec       q    Type
REMARK                         _______ _______ _______ _____ _____    ______ ____
ROOT
ATOM      1  C   UNL     1      -0.018   1.503   0.010  0.00  0.00    +0.061 C 
ATOM      2  C   UNL     1       0.002  -0.004   0.002  0.00  0.00    +0.020 C 
ATOM      3  C   UNL     1      -1.164  -0.668   0.004  0.00  0.00    +0.082 C 
ATOM      4  C   UNL     1      -1.254  -2.171  -0.016  0.00  0.00    +0.179 C 
ATOM      5  N   UNL     1       0.064  -2.740   0.255  0.00  0.00    -0.221 N 
ATOM      6  C   UNL     1       1.210  -2.015   0.249  0.00  0.00    +0.218 A 
ATOM      7  N   UNL     1       2.199  -2.823   0.519  0.00  0.00    -0.201 NA
ATOM      8  C   UNL     1       1.727  -4.060   0.707  0.00  0.00    +0.247 A 
ATOM      9  N   UNL     1       0.426  -4.052   0.555  0.00  0.00    -0.156 NA
ATOM     10  N   UNL     1       1.212  -0.651  -0.013  0.00  0.00    -0.287 N 
ATOM     11  H   UNL     1       2.037  -0.173  -0.196  0.00  0.00    +0.155 HD
ENDROOT
BRANCH   4  12
ATOM     12  C   UNL     1      -1.730  -2.628  -1.371  0.00  0.00    -0.018 A 
ATOM     13  C   UNL     1      -0.991  -2.326  -2.500  0.00  0.00    +0.009 A 
ATOM     14  C   UNL     1      -1.425  -2.744  -3.743  0.00  0.00    +0.046 A 
ATOM     15  C   UNL     1      -2.604  -3.466  -3.858  0.00  0.00    +0.117 A 
ATOM     16  C   UNL     1      -3.343  -3.768  -2.724  0.00  0.00    +0.046 A 
ATOM     17  C   UNL     1      -2.902  -3.353  -1.482  0.00  0.00    +0.009 A 
BRANCH  15  18
ATOM     18  O   UNL     1      -3.034  -3.877  -5.080  0.00  0.00    -0.507 OA
ATOM     19  H   UNL     1      -2.705  -4.749  -5.340  0.00  0.00    +0.292 HD
ENDBRANCH  15  18
ENDBRANCH   4  12
BRANCH   3  20
ATOM     20  C   UNL     1      -2.364   0.077   0.027  0.00  0.00    +0.339 C 
ATOM     21  O   UNL     1      -2.324   1.293   0.044  0.00  0.00    -0.245 OA
BRANCH  20  22
ATOM     22  O   UNL     1      -3.554  -0.559   0.029  0.00  0.00    -0.457 OA
BRANCH  22  23
ATOM     23  C   UNL     1      -4.726   0.257   0.053  0.00  0.00    +0.268 C 
BRANCH  23  24
ATOM     24  C   UNL     1      -5.951  -0.621   0.052  0.00  0.00    -0.010 A 
ATOM     25  C   UNL     1      -6.521  -1.012  -1.145  0.00  0.00    +0.007 A 
ATOM     26  C   UNL     1      -7.644  -1.818  -1.145  0.00  0.00    +0.000 A 
ATOM     27  C   UNL     1      -8.197  -2.233   0.051  0.00  0.00    +0.000 A 
ATOM     28  C   UNL     1      -7.626  -1.844   1.249  0.00  0.00    +0.000 A 
ATOM     29  C   UNL     1      -6.500  -1.042   1.249  0.00  0.00    +0.007 A 
ENDBRANCH  23  24
ENDBRANCH  22  23
ENDBRANCH  20  22
ENDBRANCH   3  20
TORSDOF 6
