REMARK  Name = ZINC28629655
REMARK  12 active torsions:
REMARK  status: ('A' for Active; 'I' for Inactive)
REMARK    1  A    between atoms: C_1  and  C_2
REMARK    2  A    between atoms: C_2  and  O_3
REMARK    3  A    between atoms: O_3  and  C_4
REMARK    4  A    between atoms: C_4  and  C_6
REMARK    5  A    between atoms: C_7  and  C_35
REMARK    6  A    between atoms: C_14  and  C_15
REMARK    7  A    between atoms: C_18  and  N_21
REMARK    8  A    between atoms: N_21  and  C_22
REMARK    9  A    between atoms: N_21  and  C_23
REMARK   10  A    between atoms: C_25  and  C_27
REMARK   11  A    between atoms: C_30  and  S_33
REMARK   12  A    between atoms: S_33  and  C_34
REMARK                            x       y       z     vdW  Elec       q    Type
REMARK                         _______ _______ _______ _____ _____    ______ ____
ROOT
ATOM      1  C   UNL     1       1.008  10.018  -0.321  0.00  0.00    +0.085 C 
ATOM      2  C   UNL     1       2.359  10.207  -0.407  0.00  0.00    +0.053 C 
ATOM      3  N   UNL     1       3.188   9.172  -0.386  0.00  0.00    -0.228 NA
ATOM      4  C   UNL     1       2.818   7.920  -0.285  0.00  0.00    +0.178 A 
ATOM      5  N   UNL     1       1.508   7.510  -0.186  0.00  0.00    -0.275 N 
ATOM      6  C   UNL     1       1.251   6.199  -0.087  0.00  0.00    +0.268 A 
ATOM      7  O   UNL     1       0.108   5.789   0.002  0.00  0.00    -0.266 OA
ATOM      8  C   UNL     1       2.390   5.271  -0.089  0.00  0.00    +0.081 A 
ATOM      9  C   UNL     1       2.398   3.915  -0.002  0.00  0.00    +0.028 C 
ATOM     10  S   UNL     1       3.760   6.408  -0.230  0.00  0.00    -0.046 S 
ATOM     11  C   UNL     1       0.494   8.601  -0.202  0.00  0.00    +0.162 C 
ATOM     12  C   UNL     1       2.911  11.604  -0.527  0.00  0.00    +0.066 C 
ENDROOT
BRANCH   9  13
ATOM     13  C   UNL     1       1.137   3.167  -0.064  0.00  0.00    -0.024 A 
ATOM     14  C   UNL     1       0.955   2.029   0.733  0.00  0.00    +0.010 A 
ATOM     15  C   UNL     1      -0.225   1.334   0.671  0.00  0.00    +0.023 A 
ATOM     16  C   UNL     1      -1.239   1.754  -0.185  0.00  0.00    +0.029 A 
ATOM     17  C   UNL     1      -1.065   2.887  -0.975  0.00  0.00    +0.023 A 
ATOM     18  C   UNL     1       0.112   3.589  -0.921  0.00  0.00    +0.010 A 
BRANCH  16  19
ATOM     19  N   UNL     1      -2.433   1.042  -0.248  0.00  0.00    -0.336 N 
ATOM     20  C   UNL     1      -2.669  -0.076   0.669  0.00  0.00    +0.129 C 
ATOM     21  C   UNL     1      -3.455   1.410  -1.232  0.00  0.00    +0.129 C 
ENDBRANCH  16  19
ENDBRANCH   9  13
BRANCH  11  22
ATOM     22  C   UNL     1      -0.309   8.505   1.070  0.00  0.00    -0.020 A 
ATOM     23  C   UNL     1       0.321   8.199   2.262  0.00  0.00    +0.007 A 
ATOM     24  C   UNL     1      -0.411   8.115   3.430  0.00  0.00    +0.015 A 
ATOM     25  C   UNL     1      -1.784   8.328   3.404  0.00  0.00    +0.008 A 
ATOM     26  C   UNL     1      -2.415   8.630   2.203  0.00  0.00    +0.015 A 
ATOM     27  C   UNL     1      -1.675   8.718   1.040  0.00  0.00    +0.007 A 
BRANCH  25  28
ATOM     28  S   UNL     1      -2.724   8.214   4.891  0.00  0.00    -0.129 S 
ATOM     29  C   UNL     1      -1.492   7.809   6.159  0.00  0.00    +0.090 C 
ENDBRANCH  25  28
ENDBRANCH  11  22
BRANCH   1  30
ATOM     30  C   UNL     1       0.122  11.108  -0.343  0.00  0.00    +0.339 C 
ATOM     31  O   UNL     1       0.555  12.242  -0.440  0.00  0.00    -0.245 OA
BRANCH  30  32
ATOM     32  O   UNL     1      -1.209  10.898  -0.256  0.00  0.00    -0.462 OA
BRANCH  32  34
ATOM     33  C   UNL     1      -3.514  11.620  -0.176  0.00  0.00    +0.048 C 
ATOM     34  C   UNL     1      -2.051  12.053  -0.284  0.00  0.00    +0.229 C 
ENDBRANCH  32  34
ENDBRANCH  30  32
ENDBRANCH   1  30
TORSDOF 7
