REMARK  Name = ZINC40892699
REMARK  13 active torsions:
REMARK  status: ('A' for Active; 'I' for Inactive)
REMARK    1  A    between atoms: C_1  and  C_2
REMARK    2  A    between atoms: C_2  and  C_3
REMARK    3  A    between atoms: C_3  and  N_4
REMARK    4  A    between atoms: C_5  and  C_7
REMARK    5  A    between atoms: C_12  and  O_18
REMARK    6  A    between atoms: O_18  and  C_19
REMARK    7  A    between atoms: C_19  and  C_21
REMARK    8  A    between atoms: C_23  and  O_32
REMARK    9  A    between atoms: C_24  and  O_30
REMARK   10  A    between atoms: C_25  and  O_28
REMARK   11  A    between atoms: O_28  and  C_29
REMARK   12  A    between atoms: O_30  and  C_31
REMARK   13  A    between atoms: O_32  and  C_33
REMARK                            x       y       z     vdW  Elec       q    Type
REMARK                         _______ _______ _______ _____ _____    ______ ____
ROOT
ATOM      1  C   UNL     1       1.535  -4.063  -2.466  0.00  0.00    +0.122 A 
ATOM      2  C   UNL     1       2.030  -4.808  -3.530  0.00  0.00    +0.031 A 
ATOM      3  C   UNL     1       1.964  -6.220  -3.443  0.00  0.00    +0.019 A 
ATOM      4  C   UNL     1       2.624  -7.022  -4.388  0.00  0.00    +0.015 A 
ATOM      5  C   UNL     1       2.588  -8.379  -4.269  0.00  0.00    +0.047 A 
ATOM      6  C   UNL     1       1.893  -8.980  -3.220  0.00  0.00    +0.135 A 
ATOM      7  C   UNL     1       1.219  -8.206  -2.288  0.00  0.00    +0.093 A 
ATOM      8  C   UNL     1       1.239  -6.825  -2.397  0.00  0.00    +0.143 A 
ATOM      9  O   UNL     1       0.548  -6.059  -1.518  0.00  0.00    -0.422 OA
ATOM     10  C   UNL     1       1.012  -4.804  -1.305  0.00  0.00    +0.350 A 
ATOM     11  O   UNL     1       0.995  -4.305  -0.195  0.00  0.00    -0.244 OA
ENDROOT
BRANCH   1  13
ATOM     12  N   UNL     1       1.057  -1.895  -1.446  0.00  0.00    -0.311 N 
ATOM     13  C   UNL     1       1.538  -2.591  -2.495  0.00  0.00    +0.251 C 
ATOM     14  O   UNL     1       1.976  -2.003  -3.466  0.00  0.00    -0.270 OA
ATOM     15  H   UNL     1       0.709  -2.364  -0.672  0.00  0.00    +0.149 HD
BRANCH  12  16
ATOM     16  C   UNL     1       1.061  -0.430  -1.476  0.00  0.00    +0.104 C 
BRANCH  16  18
ATOM     17  C   UNL     1       0.469   1.637  -0.203  0.00  0.00    +0.005 C 
ATOM     18  C   UNL     1       0.465   0.107  -0.173  0.00  0.00    +0.015 C 
ENDBRANCH  16  18
ENDBRANCH  12  16
ENDBRANCH   1  13
BRANCH   6  19
ATOM     19  O   UNL     1       1.877 -10.333  -3.110  0.00  0.00    -0.422 OA
BRANCH  19  20
ATOM     20  C   UNL     1       3.024 -10.954  -2.770  0.00  0.00    +0.346 C 
ATOM     21  O   UNL     1       4.003 -10.300  -2.469  0.00  0.00    -0.244 OA
BRANCH  20  22
ATOM     22  C   UNL     1       3.090 -12.427  -2.763  0.00  0.00    +0.081 A 
ATOM     23  C   UNL     1       1.966 -13.181  -3.114  0.00  0.00    +0.065 A 
ATOM     24  C   UNL     1       2.031 -14.560  -3.106  0.00  0.00    +0.166 A 
ATOM     25  C   UNL     1       3.215 -15.201  -2.748  0.00  0.00    +0.205 A 
ATOM     26  C   UNL     1       4.336 -14.455  -2.398  0.00  0.00    +0.180 A 
ATOM     27  C   UNL     1       4.279 -13.073  -2.410  0.00  0.00    +0.077 A 
ATOM     28 BR   UNL     1       5.805 -12.058  -1.942  0.00  0.00    -0.046 Br
BRANCH  26  29
ATOM     29  O   UNL     1       5.490 -15.085  -2.049  0.00  0.00    -0.490 OA
ATOM     30  C   UNL     1       5.706 -15.318  -0.656  0.00  0.00    +0.277 C 
ENDBRANCH  26  29
BRANCH  25  31
ATOM     31  O   UNL     1       3.276 -16.559  -2.742  0.00  0.00    -0.488 OA
ATOM     32  C   UNL     1       3.776 -17.192  -3.921  0.00  0.00    +0.277 C 
ENDBRANCH  25  31
BRANCH  24  33
ATOM     33  O   UNL     1       0.938 -15.294  -3.447  0.00  0.00    -0.491 OA
ATOM     34  C   UNL     1      -0.243 -14.572  -3.802  0.00  0.00    +0.277 C 
ENDBRANCH  24  33
ENDBRANCH  20  22
ENDBRANCH  19  20
ENDBRANCH   6  19
TORSDOF 9
