REMARK  Name = ZINC36020156
REMARK  9 active torsions:
REMARK  status: ('A' for Active; 'I' for Inactive)
REMARK    1  A    between atoms: C_1  and  C_2
REMARK    2  A    between atoms: C_2  and  C_4
REMARK    3  A    between atoms: C_2  and  N_12
REMARK    4  A    between atoms: C_4  and  C_5
REMARK    5  A    between atoms: C_5  and  C_6
REMARK    6  A    between atoms: C_15  and  C_31
REMARK    7  A    between atoms: C_24  and  C_26
REMARK    8  A    between atoms: C_31  and  C_32
REMARK    9  A    between atoms: C_31  and  C_33
REMARK                            x       y       z     vdW  Elec       q    Type
REMARK                         _______ _______ _______ _____ _____    ______ ____
ROOT
ATOM      1  N   UNL     1      -1.365  -0.503   0.118  0.00  0.00    -0.311 N 
ATOM      2  C   UNL     1      -2.353  -0.345  -0.787  0.00  0.00    +0.201 C 
ATOM      3  O   UNL     1      -2.260   0.245  -1.843  0.00  0.00    -0.277 OA
ATOM      4  C   UNL     1      -3.599  -1.027  -0.263  0.00  0.00    +0.022 C 
ATOM      5  N   UNL     1      -3.114  -1.924   0.813  0.00  0.00    +0.401 N 
ATOM      6  C   UNL     1      -1.867  -1.270   1.260  0.00  0.00    +0.006 C 
ATOM      7  C   UNL     1      -0.848  -2.329   1.675  0.00  0.00    +0.025 C 
ATOM      8  C   UNL     1       0.453  -1.642   2.105  0.00  0.00    +0.108 C 
ATOM      9  N   UNL     1       0.142  -0.650   3.143  0.00  0.00    -0.301 N 
ATOM     10  C   UNL     1      -0.881   0.367   2.867  0.00  0.00    +0.108 C 
ATOM     11  C   UNL     1      -2.171  -0.338   2.432  0.00  0.00    +0.025 C 
ATOM     12  C   UNL     1       0.784  -0.673   4.328  0.00  0.00    +0.219 C 
ATOM     13  O   UNL     1       1.627  -1.518   4.545  0.00  0.00    -0.275 OA
ATOM     14  H   UNL     1      -3.784  -1.972   1.566  0.00  0.00    -0.082 HD
ATOM     15  H   UNL     1      -2.918  -2.844   0.449  0.00  0.00    -0.082 HD
ENDROOT
BRANCH  12  16
ATOM     16  C   UNL     1       0.455   0.351   5.384  0.00  0.00    +0.075 C 
ATOM     17  C   UNL     1       0.799   1.765   4.874  0.00  0.00    +0.013 C 
ATOM     18  C   UNL     1       1.344   2.498   6.125  0.00  0.00    +0.001 C 
ATOM     19  C   UNL     1       2.155   1.392   6.843  0.00  0.00    +0.001 C 
ATOM     20  C   UNL     1       1.317   0.113   6.636  0.00  0.00    +0.013 C 
ENDBRANCH  12  16
BRANCH   4  21
ATOM     21  C   UNL     1      -4.575   0.007   0.302  0.00  0.00    -0.023 C 
ATOM     22  C   UNL     1      -5.059   0.921  -0.826  0.00  0.00    +0.006 C 
ATOM     23  C   UNL     1      -5.773  -0.710   0.927  0.00  0.00    +0.006 C 
ENDBRANCH   4  21
BRANCH   1  25
ATOM     24  C   UNL     1      -0.046   1.463  -0.494  0.00  0.00    +0.028 C 
ATOM     25  C   UNL     1       0.000   0.008  -0.023  0.00  0.00    +0.072 C 
BRANCH  25  26
ATOM     26  C   UNL     1       0.757  -0.836  -1.050  0.00  0.00    +0.027 C 
BRANCH  26  27
ATOM     27  C   UNL     1       0.912  -2.264  -0.522  0.00  0.00    +0.037 C 
BRANCH  27  28
ATOM     28  C   UNL     1       1.658  -3.096  -1.534  0.00  0.00    -0.047 A 
ATOM     29  C   UNL     1       0.963  -3.776  -2.517  0.00  0.00    +0.003 A 
ATOM     30  C   UNL     1       1.647  -4.538  -3.445  0.00  0.00    +0.000 A 
ATOM     31  C   UNL     1       3.026  -4.621  -3.390  0.00  0.00    +0.000 A 
ATOM     32  C   UNL     1       3.721  -3.941  -2.408  0.00  0.00    +0.000 A 
ATOM     33  C   UNL     1       3.037  -3.174  -1.482  0.00  0.00    +0.003 A 
ENDBRANCH  27  28
ENDBRANCH  26  27
ENDBRANCH  25  26
ENDBRANCH   1  25
TORSDOF 6
