REMARK  Name = ZINC09007629
REMARK  23 active torsions:
REMARK  status: ('A' for Active; 'I' for Inactive)
REMARK    1  A    between atoms: C_1  and  C_2
REMARK    2  A    between atoms: C_2  and  C_3
REMARK    3  A    between atoms: C_2  and  C_4
REMARK    4  A    between atoms: C_4  and  N_86
REMARK    5  A    between atoms: C_5  and  C_6
REMARK    6  A    between atoms: C_5  and  N_86
REMARK    7  A    between atoms: C_7  and  O_33
REMARK    8  A    between atoms: C_8  and  C_24
REMARK    9  A    between atoms: C_11  and  O_12
REMARK   10  A    between atoms: C_16  and  C_18
REMARK   11  A    between atoms: C_24  and  N_88
REMARK   12  A    between atoms: C_25  and  C_26
REMARK   13  A    between atoms: C_25  and  N_88
REMARK   14  A    between atoms: C_26  and  C_27
REMARK   15  A    between atoms: C_26  and  C_28
REMARK   16  A    between atoms: C_29  and  C_30
REMARK   17  A    between atoms: C_29  and  N_88
REMARK   18  A    between atoms: C_30  and  C_31
REMARK   19  A    between atoms: C_30  and  C_32
REMARK   20  A    between atoms: C_34  and  C_35
REMARK   21  A    between atoms: C_34  and  N_86
REMARK   22  A    between atoms: C_35  and  C_36
REMARK   23  A    between atoms: C_35  and  C_37
REMARK                            x       y       z     vdW  Elec       q    Type
REMARK                         _______ _______ _______ _____ _____    ______ ____
ROOT
ATOM      1  C   UNL     1       0.312  -1.690   1.365  0.00  0.00    +0.020 A 
ATOM      2  C   UNL     1       0.364  -0.982   0.169  0.00  0.00    +0.127 A 
ATOM      3  C   UNL     1       1.384  -0.075  -0.072  0.00  0.00    +0.021 A 
ATOM      4  C   UNL     1       2.370   0.130   0.881  0.00  0.00    +0.148 A 
ATOM      5  C   UNL     1       2.324  -0.590   2.088  0.00  0.00    +0.106 A 
ATOM      6  C   UNL     1       1.289  -1.504   2.325  0.00  0.00    +0.136 A 
ATOM      7  C   UNL     1       3.381  -0.356   3.086  0.00  0.00    +0.197 A 
ATOM      8  O   UNL     1       3.391  -0.952   4.151  0.00  0.00    -0.287 OA
ATOM      9  C   UNL     1       4.387   0.587   2.761  0.00  0.00    +0.098 A 
ATOM     10  C   UNL     1       4.340   1.230   1.565  0.00  0.00    +0.139 A 
ATOM     11  O   UNL     1       3.370   1.009   0.663  0.00  0.00    -0.454 OA
ENDROOT
BRANCH  10  12
ATOM     12  C   UNL     1       5.398   2.210   1.244  0.00  0.00    +0.017 A 
ATOM     13  C   UNL     1       6.418   2.467   2.163  0.00  0.00    +0.011 A 
ATOM     14  C   UNL     1       7.405   3.379   1.854  0.00  0.00    +0.001 A 
ATOM     15  C   UNL     1       7.380   4.048   0.643  0.00  0.00    +0.000 A 
ATOM     16  C   UNL     1       6.370   3.802  -0.270  0.00  0.00    +0.001 A 
ATOM     17  C   UNL     1       5.379   2.888   0.023  0.00  0.00    +0.011 A 
ENDBRANCH  10  12
BRANCH   6  18
ATOM     18  O   UNL     1       1.244  -2.199   3.490  0.00  0.00    -0.506 OA
ATOM     19  H   UNL     1       0.747  -1.758   4.192  0.00  0.00    +0.292 HD
ENDBRANCH   6  18
BRANCH   2  20
ATOM     20  O   UNL     1      -0.598  -1.176  -0.769  0.00  0.00    -0.506 OA
ATOM     21  H   UNL     1      -0.391  -1.874  -1.405  0.00  0.00    +0.292 HD
ENDBRANCH   2  20
BRANCH   1  22
ATOM     22  C   UNL     1      -0.808  -2.667   1.612  0.00  0.00    -0.036 C 
BRANCH  22  23
ATOM     23  N   UNL     1      -0.523  -3.914   0.870  0.00  0.00    +0.383 N 
ATOM     24  H   UNL     1      -0.231  -3.675  -0.085  0.00  0.00    -0.081 HD
BRANCH  23  25
ATOM     25  C   UNL     1       0.568  -4.658   1.533  0.00  0.00    -0.075 C 
BRANCH  25  27
ATOM     26  C   UNL     1       3.052  -4.898   1.669  0.00  0.00    +0.005 C 
ATOM     27  C   UNL     1       1.903  -4.187   0.951  0.00  0.00    -0.034 C 
ATOM     28  C   UNL     1       1.953  -4.518  -0.542  0.00  0.00    +0.005 C 
ENDBRANCH  25  27
ENDBRANCH  23  25
BRANCH  23  29
ATOM     29  C   UNL     1      -1.739  -4.752   0.804  0.00  0.00    -0.075 C 
BRANCH  29  30
ATOM     30  C   UNL     1      -2.670  -4.181  -0.267  0.00  0.00    -0.034 C 
ATOM     31  C   UNL     1      -1.976  -4.236  -1.629  0.00  0.00    +0.005 C 
ATOM     32  C   UNL     1      -3.957  -5.007  -0.316  0.00  0.00    +0.005 C 
ENDBRANCH  29  30
ENDBRANCH  23  29
ENDBRANCH  22  23
ENDBRANCH   1  22
BRANCH   3  33
ATOM     33  C   UNL     1       1.422   0.689  -1.370  0.00  0.00    -0.036 C 
BRANCH  33  34
ATOM     34  N   UNL     1       1.224   2.126  -1.086  0.00  0.00    +0.383 N 
ATOM     35  H   UNL     1       1.946   2.438  -0.425  0.00  0.00    -0.081 HD
BRANCH  34  36
ATOM     36  C   UNL     1       1.345   2.909  -2.334  0.00  0.00    -0.075 C 
BRANCH  36  37
ATOM     37  C   UNL     1       1.575   4.378  -1.971  0.00  0.00    -0.034 C 
ATOM     38  C   UNL     1       2.944   4.531  -1.306  0.00  0.00    +0.005 C 
ATOM     39  C   UNL     1       1.527   5.230  -3.241  0.00  0.00    +0.005 C 
ENDBRANCH  36  37
ENDBRANCH  34  36
BRANCH  34  40
ATOM     40  C   UNL     1      -0.107   2.343  -0.481  0.00  0.00    -0.075 C 
BRANCH  40  41
ATOM     41  C   UNL     1       0.088   2.777   0.973  0.00  0.00    -0.034 C 
ATOM     42  C   UNL     1       0.729   4.167   1.009  0.00  0.00    +0.005 C 
ATOM     43  C   UNL     1      -1.269   2.823   1.678  0.00  0.00    +0.005 C 
ENDBRANCH  40  41
ENDBRANCH  34  40
ENDBRANCH  33  34
ENDBRANCH   3  33
TORSDOF 15
