REMARK  Name = ZINC03324235
REMARK  7 active torsions:
REMARK  status: ('A' for Active; 'I' for Inactive)
REMARK    1  A    between atoms: C_1  and  C_2
REMARK    2  A    between atoms: C_5  and  C_8
REMARK    3  A    between atoms: C_8  and  C_30
REMARK    4  A    between atoms: N_11  and  C_15
REMARK    5  A    between atoms: C_15  and  C_16
REMARK    6  A    between atoms: N_18  and  C_19
REMARK    7  A    between atoms: C_20  and  C_27
REMARK                            x       y       z     vdW  Elec       q    Type
REMARK                         _______ _______ _______ _____ _____    ______ ____
ROOT
ATOM      1  C   UNL     1      -1.239   2.150   0.020  0.00  0.00    +0.214 C 
ENDROOT
BRANCH   1   5
ATOM      2  C   UNL     1       1.467  -0.394  -0.014  0.00  0.00    +0.135 C 
ATOM      3  C   UNL     1       0.002  -0.004   0.002  0.00  0.00    +0.251 C 
ATOM      4  O   UNL     1      -0.954  -0.749   0.008  0.00  0.00    -0.272 OA
ATOM      5  N   UNL     1      -0.016   1.343   0.009  0.00  0.00    -0.215 N 
ATOM      6  C   UNL     1       1.220   1.854   0.000  0.00  0.00    +0.310 C 
ATOM      7  O   UNL     1       1.460   3.045   0.004  0.00  0.00    -0.252 OA
ATOM      8  N   UNL     1       2.170   0.901  -0.014  0.00  0.00    -0.281 N 
ATOM      9  C   UNL     1       1.799  -1.187  -1.280  0.00  0.00    +0.047 C 
ATOM     10  H   UNL     1       3.130   1.039  -0.022  0.00  0.00    +0.152 HD
BRANCH   2  15
ATOM     11  C   UNL     1       2.812  -3.438   4.710  0.00  0.00    +0.044 C 
ATOM     12  C   UNL     1       2.461  -2.644   3.478  0.00  0.00    -0.050 A 
ATOM     13  C   UNL     1       3.418  -1.853   2.870  0.00  0.00    +0.004 A 
ATOM     14  C   UNL     1       3.096  -1.125   1.740  0.00  0.00    +0.006 A 
ATOM     15  C   UNL     1       1.818  -1.188   1.218  0.00  0.00    -0.015 A 
ATOM     16  C   UNL     1       0.860  -1.975   1.829  0.00  0.00    +0.006 A 
ATOM     17  C   UNL     1       1.183  -2.707   2.956  0.00  0.00    +0.004 A 
ENDBRANCH   2  15
ENDBRANCH   1   5
BRANCH   1  18
ATOM     18  C   UNL     1      -1.652   2.419   1.444  0.00  0.00    +0.236 C 
ATOM     19  O   UNL     1      -0.989   1.980   2.360  0.00  0.00    -0.274 OA
ATOM     20  N   UNL     1      -2.757   3.147   1.700  0.00  0.00    -0.278 N 
ATOM     21  H   UNL     1      -3.287   3.498   0.967  0.00  0.00    +0.155 HD
BRANCH  20  22
ATOM     22  C   UNL     1      -3.136   3.394   3.010  0.00  0.00    +0.084 A 
ATOM     23  C   UNL     1      -4.227   4.112   3.469  0.00  0.00    +0.068 A 
ATOM     24  C   UNL     1      -4.403   4.226   4.917  0.00  0.00    -0.023 A 
ATOM     25  C   UNL     1      -3.466   3.605   5.656  0.00  0.00    -0.004 A 
ATOM     26  S   UNL     1      -2.365   2.873   4.470  0.00  0.00    -0.077 S 
ATOM     27  C   UNL     1      -3.717   3.762   7.131  0.00  0.00    +0.043 C 
ATOM     28  C   UNL     1      -5.191   4.213   7.230  0.00  0.00    +0.010 C 
ATOM     29  C   UNL     1      -5.405   4.891   5.862  0.00  0.00    +0.037 C 
BRANCH  23  30
ATOM     30  C   UNL     1      -5.172   4.736   2.538  0.00  0.00    +0.244 C 
ATOM     31  O   UNL     1      -6.144   4.115   2.150  0.00  0.00    -0.270 OA
ATOM     32  N   UNL     1      -4.965   5.998   2.111  0.00  0.00    -0.325 N 
ATOM     33  H   UNL     1      -4.190   6.493   2.420  0.00  0.00    +0.145 HD
ATOM     34  H   UNL     1      -5.590   6.410   1.495  0.00  0.00    +0.145 HD
ENDBRANCH  23  30
ENDBRANCH  20  22
ENDBRANCH   1  18
TORSDOF 5
