REMARK  Name = ZINC14743272
REMARK  7 active torsions:
REMARK  status: ('A' for Active; 'I' for Inactive)
REMARK    1  A    between atoms: C_2  and  C_3
REMARK    2  A    between atoms: C_3  and  N_4
REMARK    3  A    between atoms: C_7  and  C_9
REMARK    4  A    between atoms: C_19  and  N_63
REMARK    5  A    between atoms: C_23  and  C_24
REMARK    6  A    between atoms: C_23  and  N_63
REMARK    7  A    between atoms: C_24  and  C_25
REMARK                            x       y       z     vdW  Elec       q    Type
REMARK                         _______ _______ _______ _____ _____    ______ ____
ROOT
ATOM      1  N   UNL     1       2.525   3.720  -0.041  0.00  0.00    -0.264 N 
ATOM      2  C   UNL     1       3.331   2.651   0.060  0.00  0.00    +0.043 A 
ATOM      3  C   UNL     1       2.537   1.552   0.099  0.00  0.00    +0.004 A 
ATOM      4  C   UNL     1       1.218   2.026   0.009  0.00  0.00    +0.151 A 
ATOM      5  N   UNL     1       1.293   3.344  -0.070  0.00  0.00    -0.166 NA
ATOM      6  C   UNL     1       3.039   0.139   0.210  0.00  0.00    +0.023 C 
ATOM      7  C   UNL     1       4.535   0.131  -0.132  0.00  0.00    -0.067 C 
ATOM      8  C   UNL     1       5.249   1.224   0.668  0.00  0.00    -0.009 C 
ATOM      9  C   UNL     1       4.836   2.603   0.132  0.00  0.00    +0.054 C 
ENDROOT
BRANCH   4  10
ATOM     10  C   UNL     1      -0.014   1.212   0.009  0.00  0.00    +0.267 C 
ATOM     11  O   UNL     1       0.050   0.013   0.199  0.00  0.00    -0.268 OA
ATOM     12  N   UNL     1      -1.209   1.796  -0.208  0.00  0.00    -0.296 N 
ATOM     13  C   UNL     1      -1.242   3.204  -0.538  0.00  0.00    +0.108 C 
ATOM     14  C   UNL     1      -1.328   4.044   0.754  0.00  0.00    +0.019 C 
ATOM     15  C   UNL     1      -2.659   3.906   1.365  0.00  0.00    +0.002 C 
ATOM     16  C   UNL     1      -3.002   2.487   1.811  0.00  0.00    +0.002 C 
ATOM     17  C   UNL     1      -3.562   1.716   0.641  0.00  0.00    +0.019 C 
ATOM     18  C   UNL     1      -2.430   0.975  -0.094  0.00  0.00    +0.108 C 
ENDBRANCH   4  10
BRANCH   7  19
ATOM     19  N   UNL     1       5.104  -1.185   0.216  0.00  0.00    +0.381 N 
ATOM     20  H   UNL     1       4.403  -1.914   0.039  0.00  0.00    -0.086 HD
ATOM     21  H   UNL     1       5.361  -1.191   1.210  0.00  0.00    -0.086 HD
BRANCH  19  22
ATOM     22  C   UNL     1       6.304  -1.455  -0.599  0.00  0.00    -0.077 C 
BRANCH  22  23
ATOM     23  C   UNL     1       6.871  -2.824  -0.216  0.00  0.00    +0.019 C 
BRANCH  23  24
ATOM     24  C   UNL     1       8.098  -3.108  -1.044  0.00  0.00    -0.014 A 
ATOM     25  C   UNL     1       7.991  -3.850  -2.205  0.00  0.00    +0.006 A 
ATOM     26  C   UNL     1       9.116  -4.106  -2.968  0.00  0.00    +0.000 A 
ATOM     27  C   UNL     1      10.349  -3.631  -2.564  0.00  0.00    +0.003 A 
ATOM     28  C   UNL     1      10.459  -2.893  -1.400  0.00  0.00    +0.038 A 
ATOM     29  C   UNL     1       9.332  -2.631  -0.639  0.00  0.00    +0.126 A 
ATOM     30  F   UNL     1       9.438  -1.911   0.499  0.00  0.00    -0.205 F 
ENDBRANCH  23  24
ENDBRANCH  22  23
ENDBRANCH  19  22
ENDBRANCH   7  19
BRANCH   1  31
ATOM     31  C   UNL     1       2.980   5.111  -0.110  0.00  0.00    +0.170 C 
BRANCH  31  33
ATOM     32  C   UNL     1       4.199   6.207   1.700  0.00  0.00    +0.006 C 
ATOM     33  C   UNL     1       3.075   5.678   1.284  0.00  0.00    -0.012 C 
ENDBRANCH  31  33
ENDBRANCH   1  31
TORSDOF 7
