REMARK  Name = ZINC35191129
REMARK  7 active torsions:
REMARK  status: ('A' for Active; 'I' for Inactive)
REMARK    1  A    between atoms: C_4  and  C_7
REMARK    2  A    between atoms: C_8  and  C_9
REMARK    3  A    between atoms: C_9  and  O_11
REMARK    4  A    between atoms: O_11  and  C_12
REMARK    5  A    between atoms: C_17  and  C_18
REMARK    6  A    between atoms: C_19  and  N_28
REMARK    7  A    between atoms: N_28  and  C_29
REMARK                            x       y       z     vdW  Elec       q    Type
REMARK                         _______ _______ _______ _____ _____    ______ ____
ROOT
ATOM      1  C   UNL     1       5.137  -7.005   0.292  0.00  0.00    +0.115 A 
ATOM      2  C   UNL     1       5.306  -8.291  -0.177  0.00  0.00    +0.131 A 
ATOM      3  N   UNL     1       4.135  -8.647  -0.787  0.00  0.00    -0.286 N 
ATOM      4  C   UNL     1       3.737  -9.794  -1.421  0.00  0.00    +0.109 A 
ATOM      5  C   UNL     1       2.500  -9.892  -1.949  0.00  0.00    +0.035 A 
ATOM      6  C   UNL     1       1.600  -8.815  -1.855  0.00  0.00    +0.020 A 
ATOM      7  C   UNL     1       1.980  -7.670  -1.229  0.00  0.00    +0.048 A 
ATOM      8  C   UNL     1       3.276  -7.577  -0.680  0.00  0.00    +0.140 A 
ATOM      9  N   UNL     1       3.892  -6.606  -0.026  0.00  0.00    -0.226 NA
ATOM     10 BR   UNL     1       1.973 -11.486  -2.821  0.00  0.00    -0.049 Br
ENDROOT
BRANCH   1  16
ATOM     11  C   UNL     1       5.871  -4.882   1.381  0.00  0.00    +0.141 A 
ATOM     12  C   UNL     1       6.820  -4.143   2.069  0.00  0.00    +0.047 A 
ATOM     13  C   UNL     1       8.037  -4.712   2.396  0.00  0.00    +0.004 A 
ATOM     14  C   UNL     1       8.315  -6.019   2.039  0.00  0.00    +0.001 A 
ATOM     15  C   UNL     1       7.380  -6.767   1.353  0.00  0.00    +0.014 A 
ATOM     16  C   UNL     1       6.147  -6.206   1.023  0.00  0.00    +0.046 A 
BRANCH  11  17
ATOM     17  O   UNL     1       4.675  -4.324   1.059  0.00  0.00    -0.422 OA
BRANCH  17  18
ATOM     18  C   UNL     1       3.645  -4.498   1.913  0.00  0.00    +0.337 C 
ATOM     19  O   UNL     1       3.777  -5.214   2.888  0.00  0.00    -0.245 OA
BRANCH  18  21
ATOM     20  C   UNL     1       1.339  -4.003   2.519  0.00  0.00    +0.015 C 
ATOM     21  C   UNL     1       2.369  -3.828   1.666  0.00  0.00    +0.092 C 
BRANCH  20  25
ATOM     22  C   UNL     1      -2.362  -2.058   1.803  0.00  0.00    +0.000 A 
ATOM     23  C   UNL     1      -2.216  -2.871   2.913  0.00  0.00    +0.001 A 
ATOM     24  C   UNL     1      -1.016  -3.507   3.153  0.00  0.00    +0.008 A 
ATOM     25  C   UNL     1       0.054  -3.329   2.271  0.00  0.00    -0.025 A 
ATOM     26  C   UNL     1      -0.102  -2.505   1.151  0.00  0.00    +0.008 A 
ATOM     27  C   UNL     1      -1.308  -1.876   0.925  0.00  0.00    +0.001 A 
ENDBRANCH  20  25
ENDBRANCH  18  21
ENDBRANCH  17  18
ENDBRANCH  11  17
ENDBRANCH   1  16
BRANCH   2  28
ATOM     28  N   UNL     1       6.453  -9.078  -0.054  0.00  0.00    -0.326 N 
ATOM     29  H   UNL     1       7.281  -8.796  -0.472  0.00  0.00    +0.148 HD
BRANCH  28  30
ATOM     30  C   UNL     1       6.404 -10.329   0.707  0.00  0.00    +0.072 C 
ATOM     31  C   UNL     1       6.534 -10.023   2.200  0.00  0.00    +0.022 C 
ATOM     32  C   UNL     1       6.483 -11.330   2.994  0.00  0.00    +0.002 C 
ATOM     33  C   UNL     1       7.635 -12.237   2.558  0.00  0.00    +0.000 C 
ATOM     34  C   UNL     1       7.506 -12.543   1.064  0.00  0.00    +0.002 C 
ATOM     35  C   UNL     1       7.556 -11.236   0.270  0.00  0.00    +0.022 C 
ENDBRANCH  28  30
ENDBRANCH   2  28
TORSDOF 7
