REMARK  Name = ZINC34788158
REMARK  8 active torsions:
REMARK  status: ('A' for Active; 'I' for Inactive)
REMARK    1  A    between atoms: C_1  and  C_2
REMARK    2  A    between atoms: C_2  and  C_3
REMARK    3  A    between atoms: C_2  and  S_4
REMARK    4  A    between atoms: S_4  and  C_5
REMARK    5  A    between atoms: C_11  and  S_14
REMARK    6  A    between atoms: S_14  and  C_15
REMARK    7  A    between atoms: C_15  and  C_16
REMARK    8  A    between atoms: C_16  and  O_17
REMARK                            x       y       z     vdW  Elec       q    Type
REMARK                         _______ _______ _______ _____ _____    ______ ____
ROOT
ATOM      1  C   UNL     1      -0.318  -0.550   2.658  0.00  0.00    +0.176 A 
ATOM      2  N   UNL     1      -1.501  -0.078   2.347  0.00  0.00    -0.216 NA
ATOM      3  C   UNL     1      -2.429   0.183   3.265  0.00  0.00    +0.114 A 
ATOM      4  C   UNL     1      -2.214  -0.027   4.633  0.00  0.00    +0.035 A 
ATOM      5  C   UNL     1      -0.874  -0.562   4.981  0.00  0.00    +0.060 A 
ATOM      6  N   UNL     1       0.029  -0.809   3.964  0.00  0.00    -0.283 N 
ATOM      7  C   UNL     1       1.179  -1.298   4.529  0.00  0.00    +0.083 A 
ATOM      8  C   UNL     1       1.003  -1.366   5.873  0.00  0.00    +0.035 A 
ATOM      9  C   UNL     1      -0.291  -0.893   6.163  0.00  0.00    +0.029 A 
ATOM     10  C   UNL     1      -3.284   0.294   5.505  0.00  0.00    -0.026 A 
ATOM     11  C   UNL     1      -4.423   0.773   4.952  0.00  0.00    -0.004 A 
ATOM     12  S   UNL     1      -4.090   0.810   3.211  0.00  0.00    -0.073 S 
ATOM     13  C   UNL     1      -5.678   1.181   5.659  0.00  0.00    +0.043 C 
ATOM     14  C   UNL     1      -5.626   0.632   7.092  0.00  0.00    +0.005 C 
ATOM     15  C   UNL     1      -4.256   0.958   7.694  0.00  0.00    +0.005 C 
ATOM     16  C   UNL     1      -3.176   0.113   7.018  0.00  0.00    +0.037 C 
ENDROOT
BRANCH   1  17
ATOM     17  S   UNL     1       0.849  -0.865   1.376  0.00  0.00    -0.084 S 
BRANCH  17  19
ATOM     18  C   UNL     1      -0.299   1.119  -0.117  0.00  0.00    +0.019 C 
ATOM     19  C   UNL     1      -0.024  -0.386  -0.140  0.00  0.00    +0.048 C 
ATOM     20  C   UNL     1       0.840  -0.728  -1.356  0.00  0.00    +0.019 C 
ENDBRANCH  17  19
ENDBRANCH   1  17
BRANCH   7  21
ATOM     21  S   UNL     1       2.638  -1.762   3.657  0.00  0.00    -0.105 S 
BRANCH  21  22
ATOM     22  C   UNL     1       3.578  -2.739   4.862  0.00  0.00    +0.103 C 
BRANCH  22  23
ATOM     23  C   UNL     1       4.824  -3.317   4.189  0.00  0.00    +0.167 C 
BRANCH  23  24
ATOM     24  O   UNL     1       5.565  -4.087   5.138  0.00  0.00    -0.394 OA
ATOM     25  H   UNL     1       6.370  -4.484   4.779  0.00  0.00    +0.209 HD
ENDBRANCH  23  24
ENDBRANCH  22  23
ENDBRANCH  21  22
ENDBRANCH   7  21
TORSDOF 6
