REMARK  Name = ZINC09336907
REMARK  6 active torsions:
REMARK  status: ('A' for Active; 'I' for Inactive)
REMARK    1  A    between atoms: C_1  and  C_2
REMARK    2  A    between atoms: C_4  and  C_7
REMARK    3  A    between atoms: C_7  and  O_8
REMARK    4  A    between atoms: O_8  and  C_9
REMARK    5  A    between atoms: C_17  and  O_20
REMARK    6  A    between atoms: O_20  and  C_21
REMARK                            x       y       z     vdW  Elec       q    Type
REMARK                         _______ _______ _______ _____ _____    ______ ____
ROOT
ATOM      1  C   UNL     1       6.219   7.287   0.512  0.00  0.00    +0.125 A 
ATOM      2  C   UNL     1       5.083   8.094   0.537  0.00  0.00    +0.046 A 
ATOM      3  C   UNL     1       3.839   7.539   0.446  0.00  0.00    +0.019 A 
ATOM      4  C   UNL     1       3.706   6.154   0.326  0.00  0.00    +0.068 A 
ATOM      5  C   UNL     1       4.846   5.332   0.299  0.00  0.00    +0.142 A 
ATOM      6  C   UNL     1       6.104   5.912   0.394  0.00  0.00    +0.092 A 
ATOM      7  O   UNL     1       4.706   3.996   0.183  0.00  0.00    -0.459 OA
ATOM      8  C   UNL     1       3.507   3.405   0.096  0.00  0.00    +0.245 A 
ATOM      9  C   UNL     1       2.350   4.098   0.106  0.00  0.00    +0.210 A 
ATOM     10  C   UNL     1       2.382   5.516   0.225  0.00  0.00    +0.234 A 
ATOM     11  O   UNL     1       1.356   6.176   0.242  0.00  0.00    -0.283 OA
ENDROOT
BRANCH   1  12
ATOM     12  O   UNL     1       7.449   7.853   0.604  0.00  0.00    -0.484 OA
BRANCH  12  13
ATOM     13  C   UNL     1       7.501   9.276   0.724  0.00  0.00    +0.306 C 
BRANCH  13  17
ATOM     14  C   UNL     1      12.241  10.838  -0.278  0.00  0.00    +0.069 C 
ATOM     15  C   UNL     1      10.974  10.390   0.404  0.00  0.00    +0.081 A 
ATOM     16  C   UNL     1       9.751  10.050  -0.219  0.00  0.00    +0.074 A 
ATOM     17  C   UNL     1       8.938   9.721   0.814  0.00  0.00    +0.175 A 
ATOM     18  O   UNL     1       9.662   9.874   1.931  0.00  0.00    -0.356 OA
ATOM     19  N   UNL     1      10.788  10.240   1.684  0.00  0.00    -0.083 NA
ENDBRANCH  13  17
ENDBRANCH  12  13
ENDBRANCH   1  12
BRANCH   9  20
ATOM     20  O   UNL     1       1.160   3.445   0.009  0.00  0.00    -0.449 OA
BRANCH  20  21
ATOM     21  C   UNL     1       1.177   2.087  -0.018  0.00  0.00    +0.129 A 
ATOM     22  C   UNL     1       1.350   1.371   1.158  0.00  0.00    +0.048 A 
ATOM     23  C   UNL     1       1.367  -0.010   1.129  0.00  0.00    +0.023 A 
ATOM     24  C   UNL     1       1.213  -0.680  -0.073  0.00  0.00    +0.041 A 
ATOM     25  C   UNL     1       1.041   0.032  -1.246  0.00  0.00    +0.023 A 
ATOM     26  C   UNL     1       1.023   1.413  -1.222  0.00  0.00    +0.048 A 
ATOM     27 CL   UNL     1       1.235  -2.415  -0.107  0.00  0.00    -0.084 Cl
ENDBRANCH  20  21
ENDBRANCH   9  20
TORSDOF 5
