REMARK  Name = ZINC08283399
REMARK  10 active torsions:
REMARK  status: ('A' for Active; 'I' for Inactive)
REMARK    1  A    between atoms: C_1  and  C_2
REMARK    2  A    between atoms: C_5  and  C_8
REMARK    3  A    between atoms: C_11  and  S_14
REMARK    4  A    between atoms: N_12  and  N_13
REMARK    5  A    between atoms: S_14  and  C_15
REMARK    6  A    between atoms: C_15  and  C_17
REMARK    7  A    between atoms: C_15  and  C_18
REMARK    8  A    between atoms: N_20  and  C_21
REMARK    9  A    between atoms: C_26  and  C_31
REMARK   10  A    between atoms: C_28  and  C_30
REMARK                            x       y       z     vdW  Elec       q    Type
REMARK                         _______ _______ _______ _____ _____    ______ ____
ROOT
ATOM      1  C   UNL     1       2.026   0.648  -0.214  0.00  0.00    +0.182 A 
ATOM      2  N   UNL     1       1.298   1.730  -0.064  0.00  0.00    -0.127 NA
ATOM      3  N   UNL     1       0.075   1.408   0.162  0.00  0.00    -0.121 NA
ATOM      4  C   UNL     1      -0.053   0.100   0.170  0.00  0.00    +0.209 A 
ATOM      5  N   UNL     1       1.183  -0.429  -0.069  0.00  0.00    -0.224 N 
ENDROOT
BRANCH   1  10
ATOM      6  C   UNL     1       7.678   0.449  -1.277  0.00  0.00    +0.044 C 
ATOM      7  C   UNL     1       6.198   0.501  -0.999  0.00  0.00    -0.050 A 
ATOM      8  C   UNL     1       5.415  -0.617  -1.224  0.00  0.00    +0.004 A 
ATOM      9  C   UNL     1       4.059  -0.576  -0.971  0.00  0.00    +0.012 A 
ATOM     10  C   UNL     1       3.478   0.597  -0.487  0.00  0.00    +0.021 A 
ATOM     11  C   UNL     1       4.273   1.723  -0.267  0.00  0.00    +0.012 A 
ATOM     12  C   UNL     1       5.628   1.667  -0.519  0.00  0.00    +0.004 A 
ENDBRANCH   1  10
BRANCH   5  13
ATOM     13  N   UNL     1       1.513  -1.752  -0.148  0.00  0.00    -0.295 N 
ATOM     14  H   UNL     1       1.515  -2.068  -1.106  0.00  0.00    +0.163 HD
ATOM     15  H   UNL     1       2.403  -1.930   0.294  0.00  0.00    +0.163 HD
ENDBRANCH   5  13
BRANCH   4  16
ATOM     16  S   UNL     1      -1.543  -0.803   0.438  0.00  0.00    -0.072 S 
BRANCH  16  17
ATOM     17  C   UNL     1      -2.702   0.567   0.673  0.00  0.00    +0.137 C 
ATOM     18  C   UNL     1      -2.816   1.368  -0.626  0.00  0.00    +0.029 C 
BRANCH  17  19
ATOM     19  C   UNL     1      -4.056   0.020   1.046  0.00  0.00    +0.226 C 
ATOM     20  O   UNL     1      -4.333  -1.134   0.799  0.00  0.00    -0.275 OA
ATOM     21  N   UNL     1      -4.959   0.815   1.654  0.00  0.00    -0.311 N 
ATOM     22  H   UNL     1      -4.738   1.738   1.852  0.00  0.00    +0.149 HD
BRANCH  21  23
ATOM     23  C   UNL     1      -6.276   0.283   2.017  0.00  0.00    +0.076 C 
ATOM     24  C   UNL     1      -6.188  -0.411   3.378  0.00  0.00    +0.022 C 
ATOM     25  C   UNL     1      -7.562  -0.966   3.756  0.00  0.00    +0.002 C 
ATOM     26  C   UNL     1      -8.572   0.181   3.833  0.00  0.00    +0.003 C 
ATOM     27  C   UNL     1      -8.660   0.875   2.473  0.00  0.00    -0.009 C 
ATOM     28  C   UNL     1      -7.285   1.430   2.094  0.00  0.00    +0.009 C 
ATOM     29  C   UNL     1      -7.373   2.125   0.734  0.00  0.00    +0.009 C 
ATOM     30  C   UNL     1      -9.112  -0.132   1.414  0.00  0.00    +0.008 C 
ENDBRANCH  21  23
ENDBRANCH  17  19
ENDBRANCH  16  17
ENDBRANCH   4  16
TORSDOF 6
