REMARK  Name = ZINC16809667
REMARK  7 active torsions:
REMARK  status: ('A' for Active; 'I' for Inactive)
REMARK    1  A    between atoms: C_1  and  C_2
REMARK    2  A    between atoms: C_2  and  O_3
REMARK    3  A    between atoms: O_3  and  C_4
REMARK    4  A    between atoms: C_7  and  C_10
REMARK    5  A    between atoms: C_10  and  C_11
REMARK    6  A    between atoms: C_12  and  C_26
REMARK    7  A    between atoms: N_19  and  C_20
REMARK                            x       y       z     vdW  Elec       q    Type
REMARK                         _______ _______ _______ _____ _____    ______ ____
ROOT
ATOM      1  C   UNL     1      -3.507   7.380  -0.405  0.00  0.00    +0.042 A 
ATOM      2  C   UNL     1      -3.250   6.077  -0.089  0.00  0.00    +0.050 A 
ATOM      3  N   UNL     1      -2.016   5.700   0.237  0.00  0.00    -0.221 NA
ATOM      4  C   UNL     1      -1.022   6.565   0.274  0.00  0.00    +0.200 A 
ATOM      5  N   UNL     1      -1.218   7.876  -0.032  0.00  0.00    -0.295 N 
ATOM      6  H   UNL     1      -0.475   8.499  -0.003  0.00  0.00    +0.172 HD
ATOM      7  C   UNL     1      -2.451   8.308  -0.373  0.00  0.00    +0.256 A 
ATOM      8  O   UNL     1      -2.645   9.480  -0.650  0.00  0.00    -0.267 OA
ATOM      9  N   UNL     1       0.233   6.134   0.619  0.00  0.00    -0.285 N 
ATOM     10  C   UNL     1      -4.364   5.063  -0.115  0.00  0.00    +0.066 C 
ATOM     11  H   UNL     1       0.955   6.774   0.719  0.00  0.00    +0.155 HD
ENDROOT
BRANCH   9  12
ATOM     12  C   UNL     1       0.472   4.772   0.828  0.00  0.00    +0.034 A 
ATOM     13  C   UNL     1      -0.208   3.823   0.075  0.00  0.00    +0.023 A 
ATOM     14  C   UNL     1       0.030   2.479   0.283  0.00  0.00    +0.002 A 
ATOM     15  C   UNL     1       0.945   2.077   1.239  0.00  0.00    +0.000 A 
ATOM     16  C   UNL     1       1.620   3.019   1.994  0.00  0.00    +0.002 A 
ATOM     17  C   UNL     1       1.390   4.365   1.787  0.00  0.00    +0.023 A 
ENDBRANCH   9  12
BRANCH   1  18
ATOM     18  C   UNL     1      -4.899   7.816  -0.781  0.00  0.00    +0.077 C 
BRANCH  18  22
ATOM     19  C   UNL     1      -5.323   7.715  -5.032  0.00  0.00    +0.121 A 
ATOM     20  C   UNL     1      -5.720   6.627  -4.268  0.00  0.00    +0.046 A 
ATOM     21  C   UNL     1      -5.582   6.662  -2.894  0.00  0.00    +0.007 A 
ATOM     22  C   UNL     1      -5.049   7.781  -2.280  0.00  0.00    -0.043 A 
ATOM     23  C   UNL     1      -4.658   8.869  -3.039  0.00  0.00    +0.007 A 
ATOM     24  C   UNL     1      -4.789   8.836  -4.413  0.00  0.00    +0.046 A 
BRANCH  19  25
ATOM     25  O   UNL     1      -5.458   7.683  -6.384  0.00  0.00    -0.492 OA
BRANCH  25  27
ATOM     26  C   UNL     1      -5.257   8.619  -8.603  0.00  0.00    +0.048 C 
ATOM     27  C   UNL     1      -5.029   8.839  -7.106  0.00  0.00    +0.225 C 
ENDBRANCH  25  27
ENDBRANCH  19  25
ENDBRANCH  18  22
ENDBRANCH   1  18
TORSDOF 5
