REMARK  Name = ZINC40162839
REMARK  3 active torsions:
REMARK  status: ('A' for Active; 'I' for Inactive)
REMARK    1  A    between atoms: C_1  and  C_2
REMARK    2  A    between atoms: C_2  and  C_4
REMARK    3  A    between atoms: C_4  and  N_5
REMARK                            x       y       z     vdW  Elec       q    Type
REMARK                         _______ _______ _______ _____ _____    ______ ____
ROOT
ATOM      1  N   UNL     1       0.022  -2.192  -1.047  0.00  0.00    -0.301 N 
ATOM      2  C   UNL     1       1.137  -2.977  -0.908  0.00  0.00    +0.149 A 
ATOM      3  C   UNL     1       0.704  -4.233  -0.681  0.00  0.00    +0.167 A 
ATOM      4  N   UNL     1      -0.638  -4.216  -0.681  0.00  0.00    -0.208 NA
ATOM      5  C   UNL     1      -1.054  -2.996  -0.894  0.00  0.00    +0.181 A 
ATOM      6 BR   UNL     1      -2.861  -2.447  -0.980  0.00  0.00    -0.008 Br
ATOM      7 CL   UNL     1       1.706  -5.629  -0.432  0.00  0.00    -0.059 Cl
ATOM      8 CL   UNL     1       2.790  -2.454  -1.006  0.00  0.00    -0.061 Cl
ENDROOT
BRANCH   1   9
ATOM      9  C   UNL     1      -0.000  -0.750  -1.307  0.00  0.00    +0.199 C 
BRANCH   9  11
ATOM     10  C   UNL     1      -0.018   1.503   0.010  0.00  0.00    +0.088 C 
ATOM     11  C   UNL     1       0.002  -0.004   0.002  0.00  0.00    +0.150 C 
ATOM     12  O   UNL     1       0.020  -0.613   1.044  0.00  0.00    -0.296 OA
ENDBRANCH   9  11
ENDBRANCH   1   9
TORSDOF 2
