REMARK  Name = ZINC42956543
REMARK  8 active torsions:
REMARK  status: ('A' for Active; 'I' for Inactive)
REMARK    1  A    between atoms: C_1  and  C_2
REMARK    2  A    between atoms: C_2  and  C_4
REMARK    3  A    between atoms: C_2  and  N_23
REMARK    4  A    between atoms: C_4  and  C_6
REMARK    5  A    between atoms: C_4  and  O_13
REMARK    6  A    between atoms: O_13  and  C_14
REMARK    7  A    between atoms: C_17  and  C_20
REMARK    8  A    between atoms: C_20  and  C_21
REMARK                            x       y       z     vdW  Elec       q    Type
REMARK                         _______ _______ _______ _____ _____    ______ ____
ROOT
ATOM      1  C   UNL     1       0.758  -0.511   1.264  0.00  0.00    +0.189 C 
ENDROOT
BRANCH   1   2
ATOM      2  C   UNL     1       0.187  -0.038   2.576  0.00  0.00    -0.009 A 
ATOM      3  C   UNL     1      -0.828  -0.751   3.185  0.00  0.00    +0.008 A 
ATOM      4  C   UNL     1      -1.351  -0.317   4.389  0.00  0.00    +0.015 A 
ATOM      5  C   UNL     1      -0.859   0.830   4.984  0.00  0.00    +0.018 A 
ATOM      6  C   UNL     1       0.158   1.543   4.374  0.00  0.00    +0.015 A 
ATOM      7  C   UNL     1       0.684   1.106   3.173  0.00  0.00    +0.008 A 
ATOM      8 BR   UNL     1      -1.574   1.424   6.630  0.00  0.00    -0.050 Br
ENDBRANCH   1   2
BRANCH   1  10
ATOM      9  C   UNL     1      -0.103   1.551   0.146  0.00  0.00    -0.010 C 
ATOM     10  C   UNL     1      -0.099   0.021   0.114  0.00  0.00    -0.032 C 
BRANCH  10  11
ATOM     11  N   UNL     1       0.457  -0.440  -1.165  0.00  0.00    +0.382 N 
ATOM     12  H   UNL     1       1.401  -0.099  -1.264  0.00  0.00    -0.089 HD
ATOM     13  H   UNL     1       0.460  -1.449  -1.187  0.00  0.00    -0.089 HD
ATOM     14  H   UNL     1      -0.108  -0.089  -1.924  0.00  0.00    -0.089 HD
ENDBRANCH  10  11
ENDBRANCH   1  10
BRANCH   1  15
ATOM     15  O   UNL     1       0.761  -1.940   1.234  0.00  0.00    -0.486 OA
BRANCH  15  16
ATOM     16  C   UNL     1       1.755  -2.539   0.526  0.00  0.00    +0.121 A 
ATOM     17  C   UNL     1       2.754  -1.773  -0.055  0.00  0.00    +0.046 A 
ATOM     18  C   UNL     1       3.763  -2.385  -0.773  0.00  0.00    +0.008 A 
ATOM     19  C   UNL     1       3.778  -3.760  -0.913  0.00  0.00    -0.033 A 
ATOM     20  C   UNL     1       2.783  -4.527  -0.335  0.00  0.00    +0.008 A 
ATOM     21  C   UNL     1       1.775  -3.920   0.390  0.00  0.00    +0.046 A 
BRANCH  19  22
ATOM     22  C   UNL     1       4.879  -4.425  -1.697  0.00  0.00    +0.153 C 
BRANCH  22  23
ATOM     23  C   UNL     1       5.996  -4.752  -0.795  0.00  0.00    +0.067 C 
ATOM     24  N   UNL     1       6.857  -5.003  -0.099  0.00  0.00    -0.196 NA
ENDBRANCH  22  23
ENDBRANCH  19  22
ENDBRANCH  15  16
ENDBRANCH   1  15
TORSDOF 7
