REMARK  Name = ZINC39694692
REMARK  8 active torsions:
REMARK  status: ('A' for Active; 'I' for Inactive)
REMARK    1  A    between atoms: C_1  and  C_2
REMARK    2  A    between atoms: C_4  and  C_28
REMARK    3  A    between atoms: C_6  and  C_8
REMARK    4  A    between atoms: C_8  and  N_9
REMARK    5  A    between atoms: C_10  and  C_12
REMARK    6  A    between atoms: C_23  and  C_25
REMARK    7  A    between atoms: C_25  and  C_26
REMARK    8  A    between atoms: C_25  and  C_27
REMARK                            x       y       z     vdW  Elec       q    Type
REMARK                         _______ _______ _______ _____ _____    ______ ____
ROOT
ATOM      1  C   UNL     1       3.846  -3.293   4.833  0.00  0.00    +0.100 C 
ATOM      2  C   UNL     1       4.017  -4.513   3.901  0.00  0.00    +0.121 C 
ATOM      3  N   UNL     1       4.900  -5.437   4.651  0.00  0.00    -0.300 N 
ATOM      4  C   UNL     1       4.436  -5.331   6.055  0.00  0.00    +0.115 C 
ATOM      5  C   UNL     1       4.121  -3.834   6.246  0.00  0.00    -0.004 C 
ATOM      6  C   UNL     1       2.887  -3.663   7.127  0.00  0.00    -0.010 C 
ATOM      7  C   UNL     1       3.204  -4.155   8.542  0.00  0.00    -0.082 C 
ATOM      8  N   UNL     1       4.330  -3.387   9.088  0.00  0.00    +0.379 N 
ATOM      9  C   UNL     1       5.536  -3.630   8.289  0.00  0.00    -0.082 C 
ATOM     10  C   UNL     1       5.318  -3.117   6.862  0.00  0.00    -0.010 C 
ATOM     11  C   UNL     1       5.899  -6.200   4.166  0.00  0.00    +0.218 C 
ATOM     12  O   UNL     1       6.213  -6.119   2.997  0.00  0.00    -0.275 OA
ATOM     13  H   UNL     1       4.106  -2.403   9.066  0.00  0.00    -0.086 HD
ATOM     14  H   UNL     1       4.497  -3.670  10.042  0.00  0.00    -0.086 HD
ENDROOT
BRANCH   1  16
ATOM     15  N   UNL     1       2.200  -1.453   4.989  0.00  0.00    -0.311 N 
ATOM     16  C   UNL     1       2.441  -2.756   4.742  0.00  0.00    +0.218 C 
ATOM     17  O   UNL     1       1.527  -3.495   4.445  0.00  0.00    -0.275 OA
ATOM     18  H   UNL     1       2.932  -0.861   5.226  0.00  0.00    +0.149 HD
BRANCH  15  19
ATOM     19  C   UNL     1       0.835  -0.930   4.900  0.00  0.00    +0.139 C 
BRANCH  19  25
ATOM     20  C   UNL     1       0.483   2.779   8.241  0.00  0.00    +0.044 C 
ATOM     21  C   UNL     1       0.670   2.317   6.818  0.00  0.00    -0.050 A 
ATOM     22  C   UNL     1       0.844   3.244   5.808  0.00  0.00    +0.006 A 
ATOM     23  C   UNL     1       1.015   2.820   4.503  0.00  0.00    -0.050 A 
ATOM     24  C   UNL     1       1.012   1.469   4.209  0.00  0.00    +0.008 A 
ATOM     25  C   UNL     1       0.838   0.542   5.220  0.00  0.00    -0.030 A 
ATOM     26  C   UNL     1       0.672   0.966   6.525  0.00  0.00    +0.008 A 
ATOM     27  C   UNL     1       1.204   3.830   3.401  0.00  0.00    +0.044 C 
ENDBRANCH  19  25
ENDBRANCH  15  19
ENDBRANCH   1  16
BRANCH  11  28
ATOM     28  C   UNL     1       6.627  -7.156   5.077  0.00  0.00    +0.069 C 
ATOM     29  C   UNL     1       5.872  -8.485   5.130  0.00  0.00    +0.017 C 
ATOM     30  C   UNL     1       8.040  -7.394   4.541  0.00  0.00    +0.017 C 
ENDBRANCH  11  28
TORSDOF 4
