REMARK  Name = ZINC14551015
REMARK  5 active torsions:
REMARK  status: ('A' for Active; 'I' for Inactive)
REMARK    1  A    between atoms: C_4  and  C_7
REMARK    2  A    between atoms: C_7  and  O_8
REMARK    3  A    between atoms: O_8  and  C_9
REMARK    4  A    between atoms: C_16  and  C_25
REMARK    5  A    between atoms: C_28  and  N_31
REMARK                            x       y       z     vdW  Elec       q    Type
REMARK                         _______ _______ _______ _____ _____    ______ ____
ROOT
ATOM      1  C   UNL     1       6.751  -2.063  -1.903  0.00  0.00    +0.142 A 
ATOM      2  C   UNL     1       7.821  -2.652  -1.254  0.00  0.00    +0.047 A 
ATOM      3  C   UNL     1       8.767  -3.347  -1.986  0.00  0.00    +0.004 A 
ATOM      4  C   UNL     1       8.641  -3.453  -3.355  0.00  0.00    +0.006 A 
ATOM      5  C   UNL     1       7.570  -2.866  -4.018  0.00  0.00    -0.016 A 
ATOM      6  C   UNL     1       6.620  -2.172  -3.291  0.00  0.00    +0.074 A 
ATOM      7  N   UNL     1       5.527  -1.548  -3.897  0.00  0.00    -0.334 N 
ATOM      8  C   UNL     1       5.159  -2.192  -5.160  0.00  0.00    +0.105 C 
ATOM      9  C   UNL     1       6.358  -2.167  -6.110  0.00  0.00    +0.029 C 
ATOM     10  C   UNL     1       7.493  -3.023  -5.507  0.00  0.00    +0.049 C 
ATOM     11  C   UNL     1       7.122  -4.441  -5.876  0.00  0.00    -0.023 C 
ATOM     12  C   UNL     1       6.294  -4.449  -6.890  0.00  0.00    -0.030 C 
ATOM     13  C   UNL     1       6.000  -3.035  -7.350  0.00  0.00    +0.033 C 
ATOM     14  H   UNL     1       4.739  -1.510  -3.268  0.00  0.00    +0.147 HD
ENDROOT
BRANCH   8  15
ATOM     15  C   UNL     1       4.754  -3.619  -4.897  0.00  0.00    -0.027 A 
ATOM     16  C   UNL     1       5.153  -4.248  -3.732  0.00  0.00    +0.008 A 
ATOM     17  C   UNL     1       4.778  -5.556  -3.490  0.00  0.00    +0.033 A 
ATOM     18  C   UNL     1       4.011  -6.238  -4.416  0.00  0.00    +0.126 A 
ATOM     19  C   UNL     1       3.617  -5.612  -5.583  0.00  0.00    +0.033 A 
ATOM     20  C   UNL     1       3.989  -4.302  -5.824  0.00  0.00    +0.008 A 
BRANCH  18  21
ATOM     21  N   UNL     1       3.613  -7.640  -4.158  0.00  0.00    +0.056 N 
ATOM     22  O   UNL     1       2.937  -8.242  -4.974  0.00  0.00    -0.126 OA
ATOM     23  O   UNL     1       3.960  -8.193  -3.129  0.00  0.00    -0.126 OA
ENDBRANCH  18  21
ENDBRANCH   8  15
BRANCH   1  24
ATOM     24  O   UNL     1       5.819  -1.379  -1.187  0.00  0.00    -0.486 OA
BRANCH  24  25
ATOM     25  C   UNL     1       6.009  -1.310   0.228  0.00  0.00    +0.264 C 
BRANCH  25  29
ATOM     26  C   UNL     1       2.827   0.934   1.985  0.00  0.00    +0.000 A 
ATOM     27  C   UNL     1       3.978   1.577   1.567  0.00  0.00    +0.000 A 
ATOM     28  C   UNL     1       5.007   0.851   0.998  0.00  0.00    +0.007 A 
ATOM     29  C   UNL     1       4.887  -0.518   0.848  0.00  0.00    -0.010 A 
ATOM     30  C   UNL     1       3.736  -1.161   1.266  0.00  0.00    +0.007 A 
ATOM     31  C   UNL     1       2.707  -0.434   1.835  0.00  0.00    +0.000 A 
ENDBRANCH  25  29
ENDBRANCH  24  25
ENDBRANCH   1  24
TORSDOF 5
