REMARK  Name = ZINC59046330
REMARK  8 active torsions:
REMARK  status: ('A' for Active; 'I' for Inactive)
REMARK    1  A    between atoms: C_5  and  N_7
REMARK    2  A    between atoms: C_8  and  C_10
REMARK    3  A    between atoms: C_10  and  S_11
REMARK    4  A    between atoms: S_11  and  C_12
REMARK    5  A    between atoms: C_15  and  C_18
REMARK    6  A    between atoms: N_16  and  N_17
REMARK    7  A    between atoms: C_20  and  N_27
REMARK    8  A    between atoms: C_22  and  N_24
REMARK                            x       y       z     vdW  Elec       q    Type
REMARK                         _______ _______ _______ _____ _____    ______ ____
ROOT
ATOM      1  C   UNL     1      -1.370  -6.656   0.437  0.00  0.00    +0.209 A 
ATOM      2  N   UNL     1      -0.230  -7.309   0.429  0.00  0.00    -0.121 NA
ATOM      3  N   UNL     1      -0.444  -8.572   0.527  0.00  0.00    -0.127 NA
ATOM      4  C   UNL     1      -1.733  -8.804   0.604  0.00  0.00    +0.182 A 
ATOM      5  N   UNL     1      -2.366  -7.583   0.555  0.00  0.00    -0.224 N 
ENDROOT
BRANCH   4   6
ATOM      6  C   UNL     1      -2.383 -10.126   0.727  0.00  0.00    +0.025 A 
ATOM      7  C   UNL     1      -3.750 -10.261   0.481  0.00  0.00    +0.044 A 
ATOM      8  C   UNL     1      -4.351 -11.497   0.598  0.00  0.00    +0.129 A 
ATOM      9  C   UNL     1      -3.600 -12.603   0.957  0.00  0.00    +0.065 A 
ATOM     10  C   UNL     1      -2.244 -12.476   1.201  0.00  0.00    +0.129 A 
ATOM     11  C   UNL     1      -1.631 -11.246   1.083  0.00  0.00    +0.044 A 
BRANCH  10  12
ATOM     12  N   UNL     1      -1.449 -13.664   1.585  0.00  0.00    +0.057 N 
ATOM     13  O   UNL     1      -1.984 -14.744   1.685  0.00  0.00    -0.126 OA
ATOM     14  O   UNL     1      -0.264 -13.555   1.800  0.00  0.00    -0.126 OA
ENDBRANCH  10  12
BRANCH   8  15
ATOM     15  N   UNL     1      -5.801 -11.642   0.338  0.00  0.00    +0.057 N 
ATOM     16  O   UNL     1      -6.458 -10.677   0.025  0.00  0.00    -0.126 OA
ATOM     17  O   UNL     1      -6.328 -12.725   0.440  0.00  0.00    -0.126 OA
ENDBRANCH   8  15
ENDBRANCH   4   6
BRANCH   5  18
ATOM     18  N   UNL     1      -3.711  -7.348   0.610  0.00  0.00    -0.295 N 
ATOM     19  H   UNL     1      -4.116  -7.352  -0.314  0.00  0.00    +0.163 HD
ATOM     20  H   UNL     1      -4.171  -8.016   1.209  0.00  0.00    +0.163 HD
ENDBRANCH   5  18
BRANCH   1  21
ATOM     21  S   UNL     1      -1.576  -4.910   0.325  0.00  0.00    -0.075 S 
BRANCH  21  22
ATOM     22  C   UNL     1       0.119  -4.276   0.191  0.00  0.00    +0.173 C 
BRANCH  22  24
ATOM     23  N   UNL     1       1.237  -2.080  -0.022  0.00  0.00    -0.284 N 
ATOM     24  C   UNL     1       0.086  -2.773   0.087  0.00  0.00    +0.228 C 
ATOM     25  O   UNL     1      -0.976  -2.187   0.102  0.00  0.00    -0.275 OA
ATOM     26  H   UNL     1       2.080  -2.551  -0.115  0.00  0.00    +0.155 HD
BRANCH  23  31
ATOM     27  C   UNL     1       0.153   1.372   0.637  0.00  0.00    +0.002 A 
ATOM     28  C   UNL     1       1.173   2.086   0.035  0.00  0.00    +0.001 A 
ATOM     29  C   UNL     1       2.214   1.421  -0.586  0.00  0.00    +0.017 A 
ATOM     30  C   UNL     1       2.239   0.040  -0.607  0.00  0.00    +0.039 A 
ATOM     31  C   UNL     1       1.216  -0.681  -0.003  0.00  0.00    +0.047 A 
ATOM     32  C   UNL     1       0.172  -0.009   0.620  0.00  0.00    +0.024 A 
ATOM     33 BR   UNL     1       3.662  -0.869  -1.458  0.00  0.00    -0.048 Br
ENDBRANCH  23  31
ENDBRANCH  22  24
ENDBRANCH  21  22
ENDBRANCH   1  21
TORSDOF 8
