REMARK  Name = ZINC39520749
REMARK  6 active torsions:
REMARK  status: ('A' for Active; 'I' for Inactive)
REMARK    1  A    between atoms: C_1  and  O_2
REMARK    2  A    between atoms: O_2  and  C_3
REMARK    3  A    between atoms: N_9  and  C_10
REMARK    4  A    between atoms: C_10  and  C_11
REMARK    5  A    between atoms: C_20  and  S_23
REMARK    6  A    between atoms: S_23  and  C_26
REMARK                            x       y       z     vdW  Elec       q    Type
REMARK                         _______ _______ _______ _____ _____    ______ ____
ROOT
ATOM      1  C   UNL     1      -1.486  -0.978  -0.129  0.00  0.00    +0.067 C 
ATOM      2  C   UNL     1      -1.527  -2.454   0.246  0.00  0.00    +0.012 C 
ATOM      3  C   UNL     1      -1.056  -3.307  -0.934  0.00  0.00    -0.001 C 
ATOM      4  C   UNL     1      -1.946  -2.993  -2.135  0.00  0.00    -0.012 C 
ATOM      5  C   UNL     1      -1.726  -1.502  -2.530  0.00  0.00    -0.060 C 
ATOM      6  N   UNL     1      -2.150  -0.694  -1.396  0.00  0.00    +0.403 N 
ATOM      7  C   UNL     1      -2.652  -1.284  -3.724  0.00  0.00    -0.012 C 
ATOM      8  C   UNL     1      -2.240  -0.177  -4.674  0.00  0.00    +0.001 C 
ATOM      9  C   UNL     1      -0.776  -0.335  -5.085  0.00  0.00    +0.026 C 
ATOM     10  C   UNL     1       0.087  -0.235  -3.825  0.00  0.00    +0.135 C 
ATOM     11  C   UNL     1      -0.258  -1.375  -2.879  0.00  0.00    +0.015 C 
ATOM     12  H   UNL     1      -3.154  -0.891  -1.251  0.00  0.00    -0.077 HD
ENDROOT
BRANCH  10  13
ATOM     13  S   UNL     1       1.838  -0.357  -4.301  0.00  0.00    -0.000 S 
ATOM     14  O   UNL     1       2.669  -0.089  -3.180  0.00  0.00    -0.169 OA
ATOM     15  O   UNL     1       2.048  -1.513  -5.099  0.00  0.00    -0.169 OA
BRANCH  13  16
ATOM     16  C   UNL     1       2.106   0.999  -5.393  0.00  0.00    +0.088 A 
ATOM     17  C   UNL     1       1.905   0.842  -6.752  0.00  0.00    +0.027 A 
ATOM     18  C   UNL     1       2.115   1.906  -7.609  0.00  0.00    +0.002 A 
ATOM     19  C   UNL     1       2.526   3.127  -7.107  0.00  0.00    +0.000 A 
ATOM     20  C   UNL     1       2.726   3.284  -5.749  0.00  0.00    +0.002 A 
ATOM     21  C   UNL     1       2.512   2.221  -4.891  0.00  0.00    +0.027 A 
ENDBRANCH  13  16
ENDBRANCH  10  13
BRANCH   1  23
ATOM     22  C   UNL     1       0.353  -0.204   1.193  0.00  0.00    +0.191 C 
ATOM     23  O   UNL     1      -0.147  -0.490  -0.115  0.00  0.00    -0.397 OA
ENDBRANCH   1  23
BRANCH   6  24
ATOM     24  C   UNL     1      -2.056   0.748  -1.659  0.00  0.00    -0.039 C 
BRANCH  24  25
ATOM     25  C   UNL     1      -2.857   1.500  -0.628  0.00  0.00    -0.064 A 
ATOM     26  C   UNL     1      -4.220   1.661  -0.795  0.00  0.00    +0.002 A 
ATOM     27  C   UNL     1      -4.955   2.352   0.150  0.00  0.00    +0.000 A 
ATOM     28  C   UNL     1      -4.328   2.881   1.263  0.00  0.00    +0.000 A 
ATOM     29  C   UNL     1      -2.965   2.719   1.430  0.00  0.00    +0.000 A 
ATOM     30  C   UNL     1      -2.231   2.025   0.486  0.00  0.00    +0.002 A 
ENDBRANCH  24  25
ENDBRANCH   6  24
TORSDOF 5
