REMARK  Name = ZINC03832600
REMARK  6 active torsions:
REMARK  status: ('A' for Active; 'I' for Inactive)
REMARK    1  A    between atoms: C_1  and  C_2
REMARK    2  A    between atoms: C_4  and  C_24
REMARK    3  A    between atoms: C_5  and  S_9
REMARK    4  A    between atoms: C_6  and  C_8
REMARK    5  A    between atoms: S_9  and  N_12
REMARK    6  A    between atoms: N_12  and  C_13
REMARK                            x       y       z     vdW  Elec       q    Type
REMARK                         _______ _______ _______ _____ _____    ______ ____
ROOT
ATOM      1  N   UNL     1      -2.204   0.582  -0.080  0.00  0.00    -0.214 N 
ATOM      2  H   UNL     1      -2.914   0.928  -0.643  0.00  0.00    +0.174 HD
ENDROOT
BRANCH   1   3
ATOM      3  C   UNL     1      -0.984   1.254  -0.004  0.00  0.00    +0.074 A 
ATOM      4  C   UNL     1       0.068   0.875  -0.809  0.00  0.00    +0.028 A 
ATOM      5  C   UNL     1       1.289   1.540  -0.747  0.00  0.00    +0.018 A 
ATOM      6  C   UNL     1       1.478   2.579   0.114  0.00  0.00    +0.027 A 
ATOM      7  C   UNL     1       0.431   2.992   0.954  0.00  0.00    +0.016 A 
ATOM      8  C   UNL     1      -0.817   2.324   0.902  0.00  0.00    +0.094 A 
ATOM      9  N   UNL     1      -1.815   2.715   1.699  0.00  0.00    -0.253 NA
ATOM     10  C   UNL     1      -1.667   3.711   2.538  0.00  0.00    +0.111 A 
ATOM     11  C   UNL     1      -0.467   4.411   2.640  0.00  0.00    +0.020 A 
ATOM     12  C   UNL     1       0.594   4.063   1.854  0.00  0.00    +0.012 A 
ATOM     13 BR   UNL     1       3.148   3.464   0.177  0.00  0.00    -0.050 Br
ENDBRANCH   1   3
BRANCH   1  14
ATOM     14  S   UNL     1      -2.441  -0.806   0.791  0.00  0.00    +0.073 S 
ATOM     15  O   UNL     1      -3.784  -1.207   0.560  0.00  0.00    -0.150 OA
ATOM     16  O   UNL     1      -1.334  -1.654   0.514  0.00  0.00    -0.150 OA
BRANCH  14  21
ATOM     17  C   UNL     1      -2.061   0.666   6.630  0.00  0.00    +0.044 C 
ATOM     18  C   UNL     1      -2.156   0.299   5.172  0.00  0.00    -0.050 A 
ATOM     19  C   UNL     1      -1.014  -0.031   4.467  0.00  0.00    +0.008 A 
ATOM     20  C   UNL     1      -1.101  -0.368   3.129  0.00  0.00    -0.023 A 
ATOM     21  C   UNL     1      -2.330  -0.376   2.497  0.00  0.00    +0.114 A 
ATOM     22  C   UNL     1      -3.471  -0.041   3.201  0.00  0.00    -0.023 A 
ATOM     23  C   UNL     1      -3.385   0.291   4.540  0.00  0.00    +0.008 A 
ATOM     24  C   UNL     1      -4.811  -0.044   2.510  0.00  0.00    +0.046 C 
ATOM     25  C   UNL     1       0.145  -0.728   2.360  0.00  0.00    +0.046 C 
ENDBRANCH  14  21
ENDBRANCH   1  14
TORSDOF 3
