REMARK  Name = ZINC39161251
REMARK  6 active torsions:
REMARK  status: ('A' for Active; 'I' for Inactive)
REMARK    1  A    between atoms: C_1  and  C_2
REMARK    2  A    between atoms: C_4  and  C_27
REMARK    3  A    between atoms: C_7  and  N_14
REMARK    4  A    between atoms: C_9  and  C_11
REMARK    5  A    between atoms: C_15  and  C_17
REMARK    6  A    between atoms: C_17  and  C_18
REMARK                            x       y       z     vdW  Elec       q    Type
REMARK                         _______ _______ _______ _____ _____    ______ ____
ROOT
ATOM      1  N   UNL     1       1.590  -2.787   1.073  0.00  0.00    -0.303 N 
ATOM      2  C   UNL     1       1.869  -3.577   0.017  0.00  0.00    +0.218 C 
ATOM      3  O   UNL     1       2.480  -3.129  -0.930  0.00  0.00    -0.275 OA
ATOM      4  H   UNL     1       1.166  -3.162   1.861  0.00  0.00    +0.150 HD
ENDROOT
BRANCH   1   9
ATOM      5  C   UNL     1       2.064   1.141   3.654  0.00  0.00    +0.009 C 
ATOM      6  C   UNL     1       1.603  -0.284   3.342  0.00  0.00    +0.013 C 
ATOM      7  C   UNL     1       0.146  -0.230   2.830  0.00  0.00    +0.049 C 
ATOM      8  S   UNL     1       0.402  -0.321   1.004  0.00  0.00    -0.134 S 
ATOM      9  C   UNL     1       1.926  -1.362   1.031  0.00  0.00    +0.143 C 
ATOM     10  C   UNL     1       2.578  -0.904   2.351  0.00  0.00    +0.109 C 
ATOM     11  C   UNL     1      -0.527   1.085   3.227  0.00  0.00    +0.019 C 
BRANCH  10  12
ATOM     12  C   UNL     1       3.230  -2.097   3.001  0.00  0.00    +0.216 C 
ATOM     13  O   UNL     1       2.935  -2.406   4.136  0.00  0.00    -0.276 OA
ATOM     14  N   UNL     1       4.140  -2.821   2.320  0.00  0.00    -0.329 N 
ATOM     15  H   UNL     1       4.375  -2.574   1.412  0.00  0.00    +0.145 HD
ATOM     16  H   UNL     1       4.559  -3.589   2.738  0.00  0.00    +0.145 HD
ENDBRANCH  10  12
ENDBRANCH   1   9
BRANCH   2  17
ATOM     17  C   UNL     1       1.423  -5.016   0.014  0.00  0.00    +0.133 C 
BRANCH  17  18
ATOM     18  C   UNL     1       1.857  -5.673  -1.271  0.00  0.00    -0.014 A 
ATOM     19  C   UNL     1       3.163  -6.281  -1.540  0.00  0.00    +0.003 A 
ATOM     20  C   UNL     1       4.330  -6.446  -0.792  0.00  0.00    +0.010 A 
ATOM     21  C   UNL     1       5.408  -7.075  -1.347  0.00  0.00    +0.001 A 
ATOM     22  C   UNL     1       5.354  -7.550  -2.650  0.00  0.00    +0.002 A 
ATOM     23  C   UNL     1       4.213  -7.398  -3.406  0.00  0.00    +0.026 A 
ATOM     24  C   UNL     1       3.103  -6.761  -2.862  0.00  0.00    +0.047 A 
ATOM     25  N   UNL     1       1.849  -6.461  -3.346  0.00  0.00    -0.360 N 
ATOM     26  C   UNL     1       1.120  -5.819  -2.383  0.00  0.00    +0.087 A 
ATOM     27  H   UNL     1       1.529  -6.677  -4.236  0.00  0.00    +0.165 HD
ENDBRANCH  17  18
ENDBRANCH   2  17
TORSDOF 4
