REMARK  Name = ZINC29515664
REMARK  11 active torsions:
REMARK  status: ('A' for Active; 'I' for Inactive)
REMARK    1  A    between atoms: C_1  and  C_2
REMARK    2  A    between atoms: C_2  and  O_3
REMARK    3  A    between atoms: O_3  and  C_4
REMARK    4  A    between atoms: C_4  and  C_6
REMARK    5  A    between atoms: C_7  and  C_24
REMARK    6  A    between atoms: C_12  and  C_14
REMARK    7  A    between atoms: C_19  and  O_20
REMARK    8  A    between atoms: O_20  and  C_21
REMARK    9  A    between atoms: C_24  and  O_25
REMARK   10  A    between atoms: O_25  and  C_26
REMARK   11  A    between atoms: C_26  and  C_28
REMARK                            x       y       z     vdW  Elec       q    Type
REMARK                         _______ _______ _______ _____ _____    ______ ____
ROOT
ATOM      1  C   UNL     1      -1.149   3.757   2.636  0.00  0.00    +0.082 C 
ATOM      2  C   UNL     1      -1.171   5.104   2.739  0.00  0.00    +0.061 C 
ATOM      3  N   UNL     1      -1.967   5.727   3.657  0.00  0.00    -0.269 N 
ATOM      4  C   UNL     1      -2.761   5.076   4.515  0.00  0.00    +0.304 C 
ATOM      5  O   UNL     1      -3.431   5.718   5.300  0.00  0.00    -0.252 OA
ATOM      6  N   UNL     1      -2.843   3.731   4.537  0.00  0.00    -0.288 N 
ATOM      7  C   UNL     1      -2.027   2.963   3.581  0.00  0.00    +0.147 C 
ATOM      8  H   UNL     1      -1.978   6.825   3.719  0.00  0.00    +0.156 HD
ATOM      9  H   UNL     1      -3.499   3.205   5.247  0.00  0.00    +0.151 HD
ENDROOT
BRANCH   7  10
ATOM     10  C   UNL     1      -1.141   2.034   4.370  0.00  0.00    +0.019 A 
ATOM     11  C   UNL     1      -0.654   2.423   5.603  0.00  0.00    +0.009 A 
ATOM     12  C   UNL     1       0.159   1.571   6.327  0.00  0.00    +0.001 A 
ATOM     13  C   UNL     1       0.488   0.328   5.819  0.00  0.00    +0.004 A 
ATOM     14  C   UNL     1       0.004  -0.066   4.587  0.00  0.00    +0.046 A 
ATOM     15  C   UNL     1      -0.817   0.785   3.861  0.00  0.00    +0.132 A 
BRANCH  15  16
ATOM     16  O   UNL     1      -1.298   0.398   2.650  0.00  0.00    -0.434 OA
BRANCH  16  17
ATOM     17  C   UNL     1      -0.952  -0.915   2.204  0.00  0.00    +0.541 C 
ATOM     18  F   UNL     1       0.438  -1.012   2.074  0.00  0.00    -0.166 F 
ATOM     19  F   UNL     1      -1.400  -1.857   3.136  0.00  0.00    -0.166 F 
ENDBRANCH  16  17
ENDBRANCH  15  16
ENDBRANCH   7  10
BRANCH   1  20
ATOM     20  C   UNL     1      -0.329   3.110   1.683  0.00  0.00    +0.339 C 
ATOM     21  O   UNL     1      -0.818   2.667   0.660  0.00  0.00    -0.245 OA
BRANCH  20  22
ATOM     22  O   UNL     1       0.996   2.984   1.907  0.00  0.00    -0.462 OA
BRANCH  22  24
ATOM     23  C   UNL     1       3.225   2.250   1.330  0.00  0.00    +0.048 C 
ATOM     24  C   UNL     1       1.781   2.419   0.855  0.00  0.00    +0.229 C 
ENDBRANCH  22  24
ENDBRANCH  20  22
ENDBRANCH   1  20
BRANCH   2  25
ATOM     25  C   UNL     1      -0.308   5.931   1.822  0.00  0.00    +0.284 C 
BRANCH  25  26
ATOM     26  O   UNL     1      -1.153   6.731   0.953  0.00  0.00    -0.454 OA
BRANCH  26  27
ATOM     27  C   UNL     1      -0.532   7.535   0.066  0.00  0.00    +0.356 C 
ATOM     28  O   UNL     1       0.683   7.566   0.019  0.00  0.00    -0.243 OA
BRANCH  27  29
ATOM     29  C   UNL     1      -1.321   8.371  -0.843  0.00  0.00    +0.126 A 
ATOM     30  C   UNL     1      -0.823   9.240  -1.792  0.00  0.00    +0.054 A 
ATOM     31  C   UNL     1      -1.921   9.826  -2.429  0.00  0.00    +0.059 A 
ATOM     32  C   UNL     1      -3.046   9.322  -1.866  0.00  0.00    +0.103 A 
ATOM     33  N   UNL     1      -2.695   8.437  -0.900  0.00  0.00    -0.354 N 
ATOM     34  H   UNL     1      -3.305   7.823  -0.221  0.00  0.00    +0.166 HD
ATOM     35 CL   UNL     1      -1.854  10.995  -3.711  0.00  0.00    -0.082 Cl
ENDBRANCH  27  29
ENDBRANCH  26  27
ENDBRANCH  25  26
ENDBRANCH   2  25
TORSDOF 10
