REMARK  Name = ZINC02724617
REMARK  4 active torsions:
REMARK  status: ('A' for Active; 'I' for Inactive)
REMARK    1  A    between atoms: C_4  and  C_7
REMARK    2  A    between atoms: C_20  and  C_22
REMARK    3  A    between atoms: C_25  and  S_28
REMARK    4  A    between atoms: S_28  and  N_31
REMARK                            x       y       z     vdW  Elec       q    Type
REMARK                         _______ _______ _______ _____ _____    ______ ____
ROOT
ATOM      1  C   UNL     1       3.534  -0.459  -0.389  0.00  0.00    +0.139 C 
ATOM      2  C   UNL     1       3.768  -0.521   1.088  0.00  0.00    -0.000 A 
ATOM      3  C   UNL     1       4.530   0.514   1.627  0.00  0.00    +0.027 A 
ATOM      4  C   UNL     1       4.812   0.571   2.974  0.00  0.00    +0.041 A 
ATOM      5  C   UNL     1       4.330  -0.421   3.811  0.00  0.00    +0.022 A 
ATOM      6  C   UNL     1       3.579  -1.445   3.289  0.00  0.00    +0.025 A 
ATOM      7  C   UNL     1       3.285  -1.513   1.915  0.00  0.00    +0.039 A 
ATOM      8  N   UNL     1       2.529  -2.597   1.535  0.00  0.00    -0.284 N 
ATOM      9  C   UNL     1       2.231  -3.202   0.422  0.00  0.00    +0.235 C 
ATOM     10  O   UNL     1       1.825  -4.341   0.512  0.00  0.00    -0.274 OA
ATOM     11  C   UNL     1       2.339  -2.635  -0.957  0.00  0.00    +0.205 C 
ATOM     12  N   UNL     1       3.479  -1.741  -1.040  0.00  0.00    -0.278 N 
ATOM     13  C   UNL     1       4.541  -2.133  -1.770  0.00  0.00    +0.248 C 
ATOM     14  O   UNL     1       4.495  -3.171  -2.402  0.00  0.00    -0.270 OA
ATOM     15 CL   UNL     1       5.765   1.873   3.616  0.00  0.00    -0.084 Cl
ATOM     16  H   UNL     1       2.106  -3.022   2.297  0.00  0.00    +0.155 HD
ENDROOT
BRANCH   1  20
ATOM     17  C   UNL     1      -0.160   1.571  -1.086  0.00  0.00    +0.000 A 
ATOM     18  C   UNL     1      -0.146   0.385  -0.376  0.00  0.00    +0.000 A 
ATOM     19  C   UNL     1       1.049  -0.272  -0.150  0.00  0.00    +0.006 A 
ATOM     20  C   UNL     1       2.231   0.257  -0.636  0.00  0.00    -0.023 A 
ATOM     21  C   UNL     1       2.217   1.442  -1.346  0.00  0.00    +0.006 A 
ATOM     22  C   UNL     1       1.022   2.100  -1.571  0.00  0.00    +0.000 A 
ENDBRANCH   1  20
BRANCH  13  23
ATOM     23  C   UNL     1       5.763  -1.301  -1.802  0.00  0.00    +0.037 A 
ATOM     24  C   UNL     1       6.298  -0.795  -0.617  0.00  0.00    +0.015 A 
ATOM     25  C   UNL     1       7.439  -0.019  -0.654  0.00  0.00    +0.029 A 
ATOM     26  C   UNL     1       8.052   0.257  -1.863  0.00  0.00    +0.106 A 
ATOM     27  C   UNL     1       7.526  -0.242  -3.042  0.00  0.00    +0.029 A 
ATOM     28  C   UNL     1       6.390  -1.023  -3.018  0.00  0.00    +0.015 A 
BRANCH  26  29
ATOM     29  S   UNL     1       9.508   1.248  -1.902  0.00  0.00    +0.061 S 
ATOM     30  O   UNL     1       9.579   1.814  -3.204  0.00  0.00    -0.153 OA
ATOM     31  O   UNL     1       9.488   2.045  -0.726  0.00  0.00    -0.153 OA
BRANCH  29  32
ATOM     32  N   UNL     1      10.801   0.224  -1.759  0.00  0.00    -0.177 NA
ATOM     33  C   UNL     1      11.423  -0.200  -0.496  0.00  0.00    +0.109 C 
ATOM     34  C   UNL     1      12.603  -1.128  -0.855  0.00  0.00    +0.018 C 
ATOM     35  C   UNL     1      12.930  -0.724  -2.317  0.00  0.00    +0.018 C 
ATOM     36  C   UNL     1      11.516  -0.418  -2.877  0.00  0.00    +0.109 C 
ENDBRANCH  29  32
ENDBRANCH  26  29
ENDBRANCH  13  23
TORSDOF 4
