REMARK  Name = ZINC20881615
REMARK  9 active torsions:
REMARK  status: ('A' for Active; 'I' for Inactive)
REMARK    1  A    between atoms: C_1  and  C_2
REMARK    2  A    between atoms: C_2  and  C_3
REMARK    3  A    between atoms: C_3  and  C_5
REMARK    4  A    between atoms: C_3  and  O_6
REMARK    5  A    between atoms: O_6  and  C_7
REMARK    6  A    between atoms: C_12  and  C_13
REMARK    7  A    between atoms: C_18  and  C_23
REMARK    8  A    between atoms: C_28  and  O_29
REMARK    9  A    between atoms: O_29  and  C_30
REMARK                            x       y       z     vdW  Elec       q    Type
REMARK                         _______ _______ _______ _____ _____    ______ ____
ROOT
ATOM      1  C   UNL     1       0.699   9.581  -0.013  0.00  0.00    +0.139 C 
ATOM      2  C   UNL     1       0.763   8.072  -0.018  0.00  0.00    +0.037 C 
ATOM      3  C   UNL     1       0.715   7.277   1.063  0.00  0.00    +0.017 C 
ATOM      4  C   UNL     1       0.787   5.767   0.911  0.00  0.00    +0.060 C 
ATOM      5  C   UNL     1       0.137   5.343  -0.404  0.00  0.00    +0.035 C 
ATOM      6  C   UNL     1       0.898   6.029  -1.544  0.00  0.00    +0.088 C 
ATOM      7  C   UNL     1       0.868   7.511  -1.313  0.00  0.00    +0.163 C 
ATOM      8  O   UNL     1       0.936   8.255  -2.271  0.00  0.00    -0.292 OA
ATOM      9  N   UNL     1       0.621   7.712   2.347  0.00  0.00    -0.316 N 
ATOM     10  C   UNL     1      -0.270   8.682   2.795  0.00  0.00    +0.052 A 
ATOM     11  C   UNL     1      -1.270   8.406   3.710  0.00  0.00    +0.025 A 
ATOM     12  C   UNL     1      -2.088   9.432   4.151  0.00  0.00    +0.002 A 
ATOM     13  C   UNL     1      -1.904  10.720   3.682  0.00  0.00    +0.002 A 
ATOM     14  C   UNL     1      -0.916  10.994   2.752  0.00  0.00    +0.025 A 
ATOM     15  C   UNL     1      -0.110   9.964   2.290  0.00  0.00    +0.049 A 
ATOM     16  N   UNL     1       0.841  10.180   1.297  0.00  0.00    -0.331 N 
ATOM     17  H   UNL     1       1.280   7.290   3.120  0.00  0.00    +0.152 HD
ATOM     18  H   UNL     1       1.710  10.817   1.519  0.00  0.00    +0.147 HD
ENDROOT
BRANCH   1  24
ATOM     19  C   UNL     1      -0.780  11.276  -1.119  0.00  0.00    +0.126 A 
ATOM     20  C   UNL     1      -2.003  11.662  -1.650  0.00  0.00    +0.046 A 
ATOM     21  C   UNL     1      -3.064  10.777  -1.652  0.00  0.00    +0.004 A 
ATOM     22  C   UNL     1      -2.908   9.508  -1.125  0.00  0.00    +0.001 A 
ATOM     23  C   UNL     1      -1.690   9.120  -0.599  0.00  0.00    +0.009 A 
ATOM     24  C   UNL     1      -0.627  10.003  -0.591  0.00  0.00    +0.019 A 
BRANCH  19  25
ATOM     25  O   UNL     1       0.265  12.145  -1.116  0.00  0.00    -0.489 OA
BRANCH  25  26
ATOM     26  C   UNL     1       0.003  13.476  -1.565  0.00  0.00    +0.170 C 
ATOM     27  C   UNL     1       0.115  13.530  -3.090  0.00  0.00    +0.052 C 
BRANCH  26  29
ATOM     28  C   UNL     1       0.828  14.473   0.572  0.00  0.00    +0.007 C 
ATOM     29  C   UNL     1       1.023  14.433  -0.945  0.00  0.00    +0.041 C 
ENDBRANCH  26  29
ENDBRANCH  25  26
ENDBRANCH  19  25
ENDBRANCH   1  24
BRANCH   5  30
ATOM     30  C   UNL     1       0.225   3.847  -0.559  0.00  0.00    -0.002 A 
ATOM     31  C   UNL     1       1.459   3.226  -0.589  0.00  0.00    +0.007 A 
ATOM     32  C   UNL     1       1.541   1.854  -0.731  0.00  0.00    +0.001 A 
ATOM     33  C   UNL     1       0.388   1.098  -0.844  0.00  0.00    +0.004 A 
ATOM     34  C   UNL     1      -0.848   1.714  -0.819  0.00  0.00    +0.046 A 
ATOM     35  C   UNL     1      -0.933   3.091  -0.671  0.00  0.00    +0.124 A 
BRANCH  35  36
ATOM     36  O   UNL     1      -2.148   3.699  -0.643  0.00  0.00    -0.495 OA
ATOM     37  C   UNL     1      -3.297   2.858  -0.764  0.00  0.00    +0.277 C 
ENDBRANCH  35  36
ENDBRANCH   5  30
TORSDOF 6
