REMARK  Name = ZINC12384536
REMARK  7 active torsions:
REMARK  status: ('A' for Active; 'I' for Inactive)
REMARK    1  A    between atoms: C_1  and  C_2
REMARK    2  A    between atoms: C_2  and  C_25
REMARK    3  A    between atoms: C_6  and  N_17
REMARK    4  A    between atoms: C_9  and  N_16
REMARK    5  A    between atoms: C_10  and  C_12
REMARK    6  A    between atoms: C_12  and  O_14
REMARK    7  A    between atoms: O_14  and  C_15
REMARK                            x       y       z     vdW  Elec       q    Type
REMARK                         _______ _______ _______ _____ _____    ______ ____
ROOT
ATOM      1  C   UNL     1      -5.299  -6.244  -2.122  0.00  0.00    +0.041 C 
ATOM      2  C   UNL     1      -5.533  -6.022  -0.627  0.00  0.00    +0.068 C 
ATOM      3  C   UNL     1      -4.653  -4.872  -0.132  0.00  0.00    +0.070 C 
ATOM      4  C   UNL     1      -3.212  -5.308  -0.110  0.00  0.00    -0.025 A 
ATOM      5  C   UNL     1      -2.856  -6.617  -0.153  0.00  0.00    +0.020 A 
ATOM      6  C   UNL     1      -1.502  -6.975  -0.114  0.00  0.00    +0.105 A 
ATOM      7  C   UNL     1      -0.869  -4.767   0.002  0.00  0.00    +0.089 A 
ATOM      8  C   UNL     1      -2.205  -4.309  -0.032  0.00  0.00    +0.031 A 
ATOM      9  C   UNL     1      -2.365  -2.865   0.018  0.00  0.00    +0.055 A 
ATOM     10  C   UNL     1      -1.231  -2.084   0.095  0.00  0.00    +0.119 A 
ATOM     11  S   UNL     1       0.093  -3.277   0.092  0.00  0.00    -0.062 S 
ATOM     12  C   UNL     1      -3.889  -7.711  -0.248  0.00  0.00    +0.199 C 
ATOM     13  O   UNL     1      -5.178  -7.205   0.098  0.00  0.00    -0.369 OA
ATOM     14  C   UNL     1      -7.005  -5.688  -0.379  0.00  0.00    +0.041 C 
ATOM     15  N   UNL     1      -0.489  -6.067  -0.035  0.00  0.00    -0.337 N 
ATOM     16  H   UNL     1       0.498  -6.349  -0.005  0.00  0.00    +0.168 HD
ENDROOT
BRANCH   6  17
ATOM     17  N   UNL     1      -1.143  -8.314  -0.157  0.00  0.00    -0.316 N 
ATOM     18  C   UNL     1      -0.540  -8.737   1.114  0.00  0.00    +0.106 C 
ATOM     19  C   UNL     1      -0.291 -10.247   1.083  0.00  0.00    +0.019 C 
ATOM     20  C   UNL     1       0.643 -10.582  -0.083  0.00  0.00    +0.003 C 
ATOM     21  C   UNL     1       0.014 -10.087  -1.388  0.00  0.00    +0.019 C 
ATOM     22  C   UNL     1      -0.244  -8.582  -1.286  0.00  0.00    +0.106 C 
ENDBRANCH   6  17
BRANCH   9  23
ATOM     23  N   UNL     1      -3.626  -2.288  -0.010  0.00  0.00    -0.356 N 
ATOM     24  H   UNL     1      -3.740  -1.389  -0.355  0.00  0.00    +0.142 HD
ATOM     25  H   UNL     1      -4.394  -2.784   0.317  0.00  0.00    +0.142 HD
ENDBRANCH   9  23
BRANCH  10  26
ATOM     26  C   UNL     1      -1.140  -0.675   0.154  0.00  0.00    +0.348 C 
ATOM     27  O   UNL     1      -2.152   0.001   0.141  0.00  0.00    -0.244 OA
BRANCH  26  28
ATOM     28  O   UNL     1       0.069  -0.079   0.227  0.00  0.00    -0.464 OA
ATOM     29  C   UNL     1       0.086   1.349   0.284  0.00  0.00    +0.280 C 
ENDBRANCH  26  28
ENDBRANCH  10  26
TORSDOF 4
