REMARK  Name = ZINC19795162
REMARK  8 active torsions:
REMARK  status: ('A' for Active; 'I' for Inactive)
REMARK    1  A    between atoms: C_1  and  O_2
REMARK    2  A    between atoms: O_2  and  C_3
REMARK    3  A    between atoms: C_7  and  C_9
REMARK    4  A    between atoms: C_9  and  N_10
REMARK    5  A    between atoms: C_21  and  N_25
REMARK    6  A    between atoms: N_25  and  C_26
REMARK    7  A    between atoms: C_26  and  C_27
REMARK    8  A    between atoms: C_27  and  C_28
REMARK                            x       y       z     vdW  Elec       q    Type
REMARK                         _______ _______ _______ _____ _____    ______ ____
ROOT
ATOM      1  N   UNL     1      -1.246   5.533   4.915  0.00  0.00    -0.294 N 
ATOM      2  C   UNL     1      -1.014   4.525   5.795  0.00  0.00    +0.203 A 
ATOM      3  N   UNL     1      -0.146   4.658   6.763  0.00  0.00    -0.230 NA
ATOM      4  C   UNL     1       0.531   5.791   6.922  0.00  0.00    +0.116 A 
ATOM      5  C   UNL     1       0.356   6.890   6.066  0.00  0.00    +0.076 A 
ATOM      6  C   UNL     1      -0.599   6.710   5.013  0.00  0.00    +0.263 A 
ATOM      7  O   UNL     1      -0.821   7.606   4.218  0.00  0.00    -0.267 OA
ATOM      8  C   UNL     1       1.169   8.069   6.364  0.00  0.00    -0.023 A 
ATOM      9  C   UNL     1       2.002   7.987   7.423  0.00  0.00    -0.006 A 
ATOM     10  S   UNL     1       1.756   6.357   8.075  0.00  0.00    -0.073 S 
ATOM     11  C   UNL     1       2.930   9.046   7.932  0.00  0.00    +0.027 C 
ATOM     12  C   UNL     1       2.529  10.387   7.299  0.00  0.00    -0.067 C 
ATOM     13  C   UNL     1       2.346  10.181   5.792  0.00  0.00    -0.011 C 
ATOM     14  C   UNL     1       1.093   9.345   5.530  0.00  0.00    +0.035 C 
ENDROOT
BRANCH  12  15
ATOM     15  N   UNL     1       3.585  11.380   7.536  0.00  0.00    +0.381 N 
ATOM     16  H   UNL     1       4.566  10.882   7.523  0.00  0.00    -0.086 HD
ATOM     17  H   UNL     1       3.552  12.146   6.747  0.00  0.00    -0.086 HD
BRANCH  15  18
ATOM     18  C   UNL     1       3.407  12.037   8.838  0.00  0.00    -0.077 C 
BRANCH  18  19
ATOM     19  C   UNL     1       4.524  13.062   9.048  0.00  0.00    +0.019 C 
BRANCH  19  20
ATOM     20  C   UNL     1       4.341  13.736  10.384  0.00  0.00    -0.014 A 
ATOM     21  C   UNL     1       5.092  13.330  11.471  0.00  0.00    +0.006 A 
ATOM     22  C   UNL     1       4.926  13.949  12.696  0.00  0.00    +0.000 A 
ATOM     23  C   UNL     1       4.008  14.973  12.835  0.00  0.00    +0.003 A 
ATOM     24  C   UNL     1       3.255  15.380  11.750  0.00  0.00    +0.038 A 
ATOM     25  C   UNL     1       3.425  14.764  10.521  0.00  0.00    +0.126 A 
ATOM     26  F   UNL     1       2.694  15.165   9.457  0.00  0.00    -0.205 F 
ENDBRANCH  19  20
ENDBRANCH  18  19
ENDBRANCH  15  18
ENDBRANCH  12  15
BRANCH   1  27
ATOM     27  C   UNL     1      -2.223   5.338   3.842  0.00  0.00    +0.161 C 
BRANCH  27  32
ATOM     28  C   UNL     1      -0.787   2.892   1.346  0.00  0.00    +0.120 A 
ATOM     29  C   UNL     1      -0.253   3.751   0.396  0.00  0.00    +0.045 A 
ATOM     30  C   UNL     1      -0.368   5.117   0.561  0.00  0.00    +0.004 A 
ATOM     31  C   UNL     1      -1.003   5.630   1.677  0.00  0.00    +0.005 A 
ATOM     32  C   UNL     1      -1.531   4.776   2.627  0.00  0.00    -0.024 A 
ATOM     33  C   UNL     1      -1.425   3.409   2.465  0.00  0.00    +0.051 A 
BRANCH  28  35
ATOM     34  C   UNL     1      -0.013   1.086   0.008  0.00  0.00    +0.277 C 
ATOM     35  O   UNL     1      -0.682   1.547   1.184  0.00  0.00    -0.495 OA
ENDBRANCH  28  35
ENDBRANCH  27  32
ENDBRANCH   1  27
TORSDOF 7
