REMARK  Name = ZINC02417382
REMARK  10 active torsions:
REMARK  status: ('A' for Active; 'I' for Inactive)
REMARK    1  A    between atoms: C_1  and  O_2
REMARK    2  A    between atoms: O_2  and  C_3
REMARK    3  A    between atoms: C_6  and  C_11
REMARK    4  A    between atoms: C_8  and  O_9
REMARK    5  A    between atoms: O_9  and  C_10
REMARK    6  A    between atoms: C_11  and  C_12
REMARK    7  A    between atoms: C_12  and  N_13
REMARK    8  A    between atoms: C_14  and  N_34
REMARK    9  A    between atoms: C_15  and  S_26
REMARK   10  A    between atoms: S_26  and  C_29
REMARK                            x       y       z     vdW  Elec       q    Type
REMARK                         _______ _______ _______ _____ _____    ______ ____
ROOT
ATOM      1  N   UNL     1      -6.747  -3.541  -1.396  0.00  0.00    -0.311 N 
ATOM      2  C   UNL     1      -6.934  -4.901  -1.390  0.00  0.00    +0.126 A 
ATOM      3  C   UNL     1      -8.254  -5.202  -1.382  0.00  0.00    +0.159 A 
ATOM      4  C   UNL     1      -8.981  -3.988  -1.383  0.00  0.00    +0.112 A 
ATOM      5  C   UNL     1      -7.976  -2.917  -1.386  0.00  0.00    +0.161 A 
ATOM      6  N   UNL     1      -8.364  -1.662  -1.382  0.00  0.00    -0.226 NA
ATOM      7  C   UNL     1      -9.671  -1.367  -1.372  0.00  0.00    +0.089 A 
ATOM      8  C   UNL     1     -10.094  -0.025  -1.369  0.00  0.00    +0.030 A 
ATOM      9  C   UNL     1     -11.423   0.266  -1.359  0.00  0.00    +0.002 A 
ATOM     10  C   UNL     1     -12.379  -0.749  -1.353  0.00  0.00    +0.002 A 
ATOM     11  C   UNL     1     -12.009  -2.058  -1.356  0.00  0.00    +0.028 A 
ATOM     12  C   UNL     1     -10.642  -2.399  -1.366  0.00  0.00    +0.066 A 
ATOM     13  N   UNL     1     -10.268  -3.683  -1.376  0.00  0.00    -0.349 N 
ATOM     14  H   UNL     1     -10.937  -4.386  -1.370  0.00  0.00    +0.166 HD
ENDROOT
BRANCH   3  15
ATOM     15  S   UNL     1      -8.945  -6.823  -1.373  0.00  0.00    +0.036 S 
ATOM     16  O   UNL     1     -10.252  -6.710  -1.918  0.00  0.00    -0.164 OA
ATOM     17  O   UNL     1      -7.962  -7.687  -1.926  0.00  0.00    -0.164 OA
BRANCH  15  18
ATOM     18  C   UNL     1      -9.141  -7.296   0.313  0.00  0.00    +0.131 A 
ATOM     19  C   UNL     1     -10.207  -7.118   1.131  0.00  0.00    +0.035 A 
ATOM     20  C   UNL     1     -10.137  -7.577   2.433  0.00  0.00    +0.009 A 
ATOM     21  C   UNL     1      -9.005  -8.193   2.853  0.00  0.00    +0.047 A 
ATOM     22  S   UNL     1      -7.991  -8.143   1.384  0.00  0.00    -0.078 S 
ENDBRANCH  15  18
ENDBRANCH   3  15
BRANCH   2  23
ATOM     23  N   UNL     1      -5.914  -5.835  -1.392  0.00  0.00    -0.343 N 
ATOM     24  H   UNL     1      -4.989  -5.543  -1.398  0.00  0.00    +0.144 HD
ATOM     25  H   UNL     1      -6.123  -6.782  -1.387  0.00  0.00    +0.144 HD
ENDBRANCH   2  23
BRANCH   1  26
ATOM     26  C   UNL     1      -5.449  -2.862  -1.404  0.00  0.00    +0.130 C 
BRANCH  26  27
ATOM     27  C   UNL     1      -4.987  -2.627   0.035  0.00  0.00    +0.057 C 
BRANCH  27  31
ATOM     28  C   UNL     1      -1.201  -0.638   0.010  0.00  0.00    +0.161 A 
ATOM     29  C   UNL     1      -2.374   0.099   0.019  0.00  0.00    +0.049 A 
ATOM     30  C   UNL     1      -3.596  -0.546   0.027  0.00  0.00    +0.007 A 
ATOM     31  C   UNL     1      -3.652  -1.928   0.026  0.00  0.00    -0.042 A 
ATOM     32  C   UNL     1      -2.485  -2.669   0.017  0.00  0.00    +0.053 A 
ATOM     33  C   UNL     1      -1.257  -2.028   0.003  0.00  0.00    +0.162 A 
BRANCH  28  35
ATOM     34  C   UNL     1      -0.017   1.425   0.010  0.00  0.00    +0.277 C 
ATOM     35  O   UNL     1       0.002  -0.004   0.002  0.00  0.00    -0.491 OA
ENDBRANCH  28  35
BRANCH  33  36
ATOM     36  O   UNL     1      -0.108  -2.756  -0.012  0.00  0.00    -0.491 OA
ATOM     37  C   UNL     1      -0.242  -4.179  -0.018  0.00  0.00    +0.277 C 
ENDBRANCH  33  36
ENDBRANCH  27  31
ENDBRANCH  26  27
ENDBRANCH   1  26
TORSDOF 8
