REMARK  Name = ZINC50361919
REMARK  4 active torsions:
REMARK  status: ('A' for Active; 'I' for Inactive)
REMARK    1  A    between atoms: C_3  and  N_8
REMARK    2  A    between atoms: C_9  and  C_11
REMARK    3  A    between atoms: C_11  and  N_12
REMARK    4  A    between atoms: C_13  and  C_15
REMARK                            x       y       z     vdW  Elec       q    Type
REMARK                         _______ _______ _______ _____ _____    ______ ____
ROOT
ATOM      1  N   UNL     1       7.173   1.315   0.252  0.00  0.00    -0.303 N 
ATOM      2  C   UNL     1       8.432   1.785   0.353  0.00  0.00    +0.244 C 
ATOM      3  O   UNL     1       8.633   2.985   0.376  0.00  0.00    -0.270 OA
ATOM      4  H   UNL     1       7.013   0.358   0.234  0.00  0.00    +0.150 HD
ENDROOT
BRANCH   2   5
ATOM      5  C   UNL     1       9.556   0.854   0.434  0.00  0.00    +0.052 C 
ATOM      6  C   UNL     1      10.824   1.324   0.541  0.00  0.00    +0.023 C 
ATOM      7  C   UNL     1      11.919   0.343   0.599  0.00  0.00    +0.019 A 
ATOM      8  C   UNL     1      13.194   0.700   1.036  0.00  0.00    +0.031 A 
ATOM      9  C   UNL     1      14.191  -0.254   1.074  0.00  0.00    +0.042 A 
ATOM     10  C   UNL     1      13.928  -1.558   0.682  0.00  0.00    +0.023 A 
ATOM     11  C   UNL     1      12.668  -1.922   0.247  0.00  0.00    +0.048 A 
ATOM     12  C   UNL     1      11.656  -0.980   0.202  0.00  0.00    +0.128 A 
ATOM     13  O   UNL     1      10.409  -1.305  -0.220  0.00  0.00    -0.487 OA
ATOM     14  C   UNL     1       9.311  -0.633   0.406  0.00  0.00    +0.269 C 
ATOM     15 CL   UNL     1      15.782   0.181   1.616  0.00  0.00    -0.084 Cl
ENDBRANCH   2   5
BRANCH   1  16
ATOM     16  C   UNL     1       6.047   2.248   0.171  0.00  0.00    +0.200 C 
BRANCH  16  18
ATOM     17  N   UNL     1       3.584   2.127  -0.021  0.00  0.00    -0.284 N 
ATOM     18  C   UNL     1       4.759   1.473   0.066  0.00  0.00    +0.234 C 
ATOM     19  O   UNL     1       4.779   0.260   0.060  0.00  0.00    -0.274 OA
ATOM     20  H   UNL     1       3.571   3.094  -0.093  0.00  0.00    +0.155 HD
BRANCH  17  23
ATOM     21  C   UNL     1       1.088  -0.461   0.751  0.00  0.00    +0.005 A 
ATOM     22  C   UNL     1       2.276   0.244   0.738  0.00  0.00    +0.023 A 
ATOM     23  C   UNL     1       2.381   1.411  -0.007  0.00  0.00    +0.036 A 
ATOM     24  C   UNL     1       1.292   1.866  -0.739  0.00  0.00    +0.061 A 
ATOM     25  C   UNL     1       0.106   1.156  -0.722  0.00  0.00    +0.125 A 
ATOM     26  C   UNL     1       0.004  -0.007   0.023  0.00  0.00    +0.038 A 
ATOM     27  F   UNL     1      -0.955   1.598  -1.433  0.00  0.00    -0.205 F 
ENDBRANCH  17  23
ENDBRANCH  16  18
ENDBRANCH   1  16
TORSDOF 4
