REMARK  Name = ZINC36597763
REMARK  13 active torsions:
REMARK  status: ('A' for Active; 'I' for Inactive)
REMARK    1  A    between atoms: C_1  and  C_2
REMARK    2  A    between atoms: C_5  and  C_7
REMARK    3  A    between atoms: C_7  and  N_8
REMARK    4  A    between atoms: N_8  and  C_9
REMARK    5  A    between atoms: C_9  and  C_11
REMARK    6  A    between atoms: C_9  and  C_16
REMARK    7  A    between atoms: N_18  and  C_19
REMARK    8  A    between atoms: C_19  and  C_20
REMARK    9  A    between atoms: C_19  and  C_21
REMARK   10  A    between atoms: C_19  and  C_22
REMARK   11  A    between atoms: C_23  and  C_25
REMARK   12  A    between atoms: C_29  and  O_32
REMARK   13  A    between atoms: C_30  and  O_31
REMARK                            x       y       z     vdW  Elec       q    Type
REMARK                         _______ _______ _______ _____ _____    ______ ____
ROOT
ATOM      1  N   UNL     1      10.487  -4.943  -2.991  0.00  0.00    -0.272 N 
ATOM      2  C   UNL     1       9.765  -5.778  -2.218  0.00  0.00    +0.252 C 
ATOM      3  O   UNL     1      10.213  -6.160  -1.154  0.00  0.00    -0.270 OA
ENDROOT
BRANCH   2   4
ATOM      4  C   UNL     1       8.433  -6.230  -2.663  0.00  0.00    +0.082 A 
ATOM      5  C   UNL     1       8.210  -6.544  -4.006  0.00  0.00    +0.017 A 
ATOM      6  C   UNL     1       6.965  -6.966  -4.418  0.00  0.00    +0.005 A 
ATOM      7  C   UNL     1       5.928  -7.081  -3.506  0.00  0.00    +0.049 A 
ATOM      8  C   UNL     1       6.133  -6.773  -2.172  0.00  0.00    +0.159 A 
ATOM      9  C   UNL     1       7.387  -6.351  -1.740  0.00  0.00    +0.171 A 
BRANCH   9  10
ATOM     10  O   UNL     1       7.594  -6.054  -0.432  0.00  0.00    -0.503 OA
ATOM     11  H   UNL     1       7.421  -5.129  -0.206  0.00  0.00    +0.292 HD
ENDBRANCH   9  10
BRANCH   8  12
ATOM     12  O   UNL     1       5.111  -6.887  -1.283  0.00  0.00    -0.503 OA
ATOM     13  H   UNL     1       5.046  -7.758  -0.868  0.00  0.00    +0.292 HD
ENDBRANCH   8  12
ENDBRANCH   2   4
BRANCH   1  14
ATOM     14  C   UNL     1      11.297  -3.890  -2.374  0.00  0.00    +0.183 C 
BRANCH  14  19
ATOM     15  C   UNL     1       9.270   0.584  -3.522  0.00  0.00    +0.086 C 
ATOM     16  C   UNL     1       9.603  -0.680  -2.771  0.00  0.00    +0.102 A 
ATOM     17  C   UNL     1       9.128  -1.023  -1.560  0.00  0.00    +0.045 A 
ATOM     18  C   UNL     1       9.697  -2.278  -1.238  0.00  0.00    +0.046 A 
ATOM     19  C   UNL     1      10.484  -2.625  -2.272  0.00  0.00    +0.122 A 
ATOM     20  O   UNL     1      10.419  -1.656  -3.200  0.00  0.00    -0.463 OA
ENDBRANCH  14  19
ENDBRANCH   1  14
BRANCH   1  21
ATOM     21  C   UNL     1      10.461  -5.088  -4.449  0.00  0.00    +0.229 C 
BRANCH  21  22
ATOM     22  C   UNL     1       9.090  -4.732  -4.964  0.00  0.00    +0.134 A 
ATOM     23  C   UNL     1       8.473  -5.299  -6.016  0.00  0.00    +0.047 A 
ATOM     24  C   UNL     1       7.216  -4.666  -6.145  0.00  0.00    +0.041 A 
ATOM     25  C   UNL     1       7.139  -3.749  -5.163  0.00  0.00    +0.195 A 
ATOM     26  O   UNL     1       8.275  -3.798  -4.448  0.00  0.00    -0.465 OA
ENDBRANCH  21  22
BRANCH  21  27
ATOM     27  C   UNL     1      10.781  -6.513  -4.818  0.00  0.00    +0.242 C 
ATOM     28  O   UNL     1      11.009  -7.328  -3.949  0.00  0.00    -0.273 OA
ATOM     29  N   UNL     1      10.815  -6.883  -6.113  0.00  0.00    -0.309 N 
ATOM     30  H   UNL     1      10.632  -6.231  -6.808  0.00  0.00    +0.149 HD
BRANCH  29  31
ATOM     31  C   UNL     1      11.127  -8.269  -6.472  0.00  0.00    +0.026 C 
ATOM     32  C   UNL     1      10.088  -9.203  -5.848  0.00  0.00    +0.031 C 
ATOM     33  C   UNL     1      11.099  -8.420  -7.994  0.00  0.00    +0.031 C 
ATOM     34  C   UNL     1      12.518  -8.630  -5.949  0.00  0.00    +0.031 C 
ENDBRANCH  29  31
ENDBRANCH  21  27
ENDBRANCH   1  21
TORSDOF 9
