REMARK  Name = ZINC09192026
REMARK  7 active torsions:
REMARK  status: ('A' for Active; 'I' for Inactive)
REMARK    1  A    between atoms: C_5  and  C_7
REMARK    2  A    between atoms: C_7  and  O_8
REMARK    3  A    between atoms: O_8  and  C_9
REMARK    4  A    between atoms: C_12  and  C_16
REMARK    5  A    between atoms: C_13  and  O_15
REMARK    6  A    between atoms: C_17  and  O_22
REMARK    7  A    between atoms: O_22  and  C_23
REMARK                            x       y       z     vdW  Elec       q    Type
REMARK                         _______ _______ _______ _____ _____    ______ ____
ROOT
ATOM      1  C   UNL     1      -0.157  -4.059  -0.043  0.00  0.00    +0.124 A 
ATOM      2  C   UNL     1       0.916  -4.940   0.014  0.00  0.00    +0.046 A 
ATOM      3  C   UNL     1       0.696  -6.301   0.029  0.00  0.00    +0.017 A 
ATOM      4  C   UNL     1      -0.608  -6.796  -0.014  0.00  0.00    +0.045 A 
ATOM      5  C   UNL     1      -1.688  -5.907  -0.071  0.00  0.00    +0.130 A 
ATOM      6  C   UNL     1      -1.456  -4.543  -0.080  0.00  0.00    +0.091 A 
ENDROOT
BRANCH   4   7
ATOM      7  C   UNL     1      -0.847  -8.255   0.001  0.00  0.00    +0.111 A 
ATOM      8  C   UNL     1      -1.399  -9.006  -1.018  0.00  0.00    +0.173 A 
ATOM      9  C   UNL     1      -1.442 -10.335  -0.586  0.00  0.00    +0.181 A 
ATOM     10  N   UNL     1      -0.948 -10.400   0.624  0.00  0.00    -0.178 NA
ATOM     11  N   UNL     1      -0.559  -9.115   1.023  0.00  0.00    -0.273 N 
ATOM     12  H   UNL     1      -0.159  -8.878   1.874  0.00  0.00    +0.189 HD
BRANCH   8  13
ATOM     13  O   UNL     1      -1.823  -8.537  -2.223  0.00  0.00    -0.451 OA
BRANCH  13  14
ATOM     14  C   UNL     1      -2.244  -9.441  -3.146  0.00  0.00    +0.142 A 
ATOM     15  C   UNL     1      -1.359  -9.927  -4.097  0.00  0.00    +0.047 A 
ATOM     16  C   UNL     1      -1.789 -10.846  -5.035  0.00  0.00    +0.004 A 
ATOM     17  C   UNL     1      -3.101 -11.282  -5.026  0.00  0.00    +0.001 A 
ATOM     18  C   UNL     1      -3.987 -10.799  -4.080  0.00  0.00    +0.019 A 
ATOM     19  C   UNL     1      -3.560  -9.884  -3.136  0.00  0.00    +0.060 A 
ATOM     20 BR   UNL     1      -4.769  -9.230  -1.838  0.00  0.00    -0.046 Br
ENDBRANCH  13  14
ENDBRANCH   8  13
ENDBRANCH   4   7
BRANCH   5  21
ATOM     21  O   UNL     1      -2.960  -6.383  -0.114  0.00  0.00    -0.506 OA
ATOM     22  H   UNL     1      -3.363  -6.506   0.757  0.00  0.00    +0.292 HD
ENDBRANCH   5  21
BRANCH   1  23
ATOM     23  O   UNL     1       0.067  -2.719  -0.057  0.00  0.00    -0.487 OA
BRANCH  23  24
ATOM     24  C   UNL     1       1.429  -2.288  -0.017  0.00  0.00    +0.267 C 
BRANCH  24  29
ATOM     25  C   UNL     1       0.356   1.330  -0.115  0.00  0.00    +0.001 A 
ATOM     26  C   UNL     1       1.575   1.982  -0.083  0.00  0.00    +0.003 A 
ATOM     27  C   UNL     1       2.748   1.253  -0.030  0.00  0.00    +0.039 A 
ATOM     28  C   UNL     1       2.702  -0.131  -0.009  0.00  0.00    +0.130 A 
ATOM     29  C   UNL     1       1.481  -0.782  -0.040  0.00  0.00    +0.025 A 
ATOM     30  C   UNL     1       0.309  -0.051  -0.093  0.00  0.00    +0.010 A 
ATOM     31  F   UNL     1       3.848  -0.845   0.043  0.00  0.00    -0.205 F 
ENDBRANCH  24  29
ENDBRANCH  23  24
ENDBRANCH   1  23
TORSDOF 7
