REMARK  Name = ZINC01069010
REMARK  1 active torsions:
REMARK  status: ('A' for Active; 'I' for Inactive)
REMARK    1  A    between atoms: C_5  and  C_6
REMARK                            x       y       z     vdW  Elec       q    Type
REMARK                         _______ _______ _______ _____ _____    ______ ____
ROOT
ATOM      1  C   UNL     1      -1.289  -0.782   0.032  0.00  0.00    +0.066 C 
ATOM      2  C   UNL     1      -1.085  -2.055   0.859  0.00  0.00    +0.109 C 
ATOM      3  C   UNL     1       0.146  -2.777   0.378  0.00  0.00    +0.218 C 
ATOM      4  O   UNL     1       0.173  -3.990   0.381  0.00  0.00    -0.275 OA
ATOM      5  N   UNL     1       1.218  -2.086  -0.056  0.00  0.00    -0.285 N 
ATOM      6  C   UNL     1       1.212  -0.686  -0.022  0.00  0.00    +0.041 A 
ATOM      7  C   UNL     1       0.002  -0.004   0.002  0.00  0.00    -0.014 A 
ATOM      8  C   UNL     1      -0.017   1.377   0.010  0.00  0.00    +0.055 A 
ATOM      9  C   UNL     1       1.173   2.084   0.002  0.00  0.00    +0.167 A 
ATOM     10  C   UNL     1       2.390   1.403  -0.014  0.00  0.00    +0.168 A 
ATOM     11  C   UNL     1       2.407   0.020  -0.026  0.00  0.00    +0.073 A 
ATOM     12  O   UNL     1       3.398   2.329  -0.015  0.00  0.00    -0.453 OA
ATOM     13  C   UNL     1       2.782   3.518   0.533  0.00  0.00    +0.466 C 
ATOM     14  O   UNL     1       1.436   3.428   0.008  0.00  0.00    -0.453 OA
ATOM     15  H   UNL     1       1.996  -2.559  -0.391  0.00  0.00    +0.155 HD
ENDROOT
BRANCH   1  20
ATOM     16  C   UNL     1      -3.543   0.478   0.127  0.00  0.00    +0.013 A 
ATOM     17  C   UNL     1      -4.394   1.248   0.899  0.00  0.00    +0.028 A 
ATOM     18  C   UNL     1      -4.024   1.569   2.163  0.00  0.00    +0.078 A 
ATOM     19  S   UNL     1      -2.434   0.767   2.298  0.00  0.00    -0.081 S 
ATOM     20  C   UNL     1      -2.370   0.059   0.660  0.00  0.00    -0.001 A 
ATOM     21 CL   UNL     1      -4.875   2.514   3.345  0.00  0.00    -0.076 Cl
ENDBRANCH   1  20
TORSDOF 1
