REMARK  Name = ZINC00718889
REMARK  3 active torsions:
REMARK  status: ('A' for Active; 'I' for Inactive)
REMARK    1  A    between atoms: C_16  and  C_18
REMARK    2  A    between atoms: C_18  and  S_19
REMARK    3  A    between atoms: S_19  and  C_20
REMARK                            x       y       z     vdW  Elec       q    Type
REMARK                         _______ _______ _______ _____ _____    ______ ____
ROOT
ATOM      1  C   UNL     1       1.178   1.780   0.000  0.00  0.00    +0.000 A 
ATOM      2  C   UNL     1      -0.013   1.076   0.008  0.00  0.00    +0.002 A 
ATOM      3  C   UNL     1      -1.224   1.748   0.017  0.00  0.00    +0.024 A 
ATOM      4  C   UNL     1      -1.214   3.132   0.036  0.00  0.00    +0.044 A 
ATOM      5  C   UNL     1      -0.033   3.826   0.007  0.00  0.00    -0.025 A 
ATOM      6  C   UNL     1       1.175   3.167  -0.006  0.00  0.00    +0.005 A 
ATOM      7  C   UNL     1      -0.145   5.328  -0.042  0.00  0.00    +0.042 C 
ATOM      8  C   UNL     1      -0.447   5.904   1.330  0.00  0.00    +0.042 C 
ATOM      9  C   UNL     1      -1.767   5.431   1.896  0.00  0.00    -0.025 A 
ATOM     10  C   UNL     1      -2.091   5.964   3.146  0.00  0.00    +0.005 A 
ATOM     11  C   UNL     1      -3.273   5.650   3.776  0.00  0.00    +0.000 A 
ATOM     12  C   UNL     1      -4.178   4.794   3.174  0.00  0.00    +0.002 A 
ATOM     13  C   UNL     1      -3.873   4.249   1.945  0.00  0.00    +0.024 A 
ATOM     14  C   UNL     1      -2.669   4.553   1.317  0.00  0.00    +0.044 A 
ATOM     15  N   UNL     1      -2.383   3.903   0.106  0.00  0.00    -0.239 N 
ATOM     16  C   UNL     1      -3.207   4.016  -0.955  0.00  0.00    +0.234 C 
ATOM     17  O   UNL     1      -4.213   4.688  -0.872  0.00  0.00    -0.274 OA
ENDROOT
BRANCH  16  18
ATOM     18  C   UNL     1      -2.877   3.308  -2.243  0.00  0.00    +0.174 C 
BRANCH  18  19
ATOM     19  S   UNL     1      -4.167   3.654  -3.470  0.00  0.00    -0.076 S 
BRANCH  19  20
ATOM     20  C   UNL     1      -3.643   2.768  -4.901  0.00  0.00    +0.197 A 
ATOM     21  N   UNL     1      -2.556   2.047  -4.995  0.00  0.00    -0.121 NA
ATOM     22  N   UNL     1      -2.504   1.508  -6.288  0.00  0.00    -0.121 NA
ATOM     23  C   UNL     1      -3.554   1.926  -6.929  0.00  0.00    +0.202 A 
ATOM     24  N   UNL     1      -4.312   2.724  -6.114  0.00  0.00    -0.264 N 
ATOM     25  C   UNL     1      -5.493   3.272  -6.639  0.00  0.00    +0.065 A 
ATOM     26  C   UNL     1      -6.399   4.107  -5.965  0.00  0.00    +0.027 A 
ATOM     27  C   UNL     1      -7.525   4.579  -6.597  0.00  0.00    +0.002 A 
ATOM     28  C   UNL     1      -7.803   4.247  -7.912  0.00  0.00    +0.001 A 
ATOM     29  C   UNL     1      -6.927   3.425  -8.600  0.00  0.00    +0.017 A 
ATOM     30  C   UNL     1      -5.800   2.954  -7.966  0.00  0.00    +0.040 A 
ATOM     31  S   UNL     1      -4.454   1.907  -8.461  0.00  0.00    -0.048 S 
ENDBRANCH  19  20
ENDBRANCH  18  19
ENDBRANCH  16  18
TORSDOF 3
