REMARK  Name = ZINC01824261
REMARK  9 active torsions:
REMARK  status: ('A' for Active; 'I' for Inactive)
REMARK    1  A    between atoms: C_1  and  C_2
REMARK    2  A    between atoms: C_2  and  N_3
REMARK    3  A    between atoms: C_4  and  C_24
REMARK    4  A    between atoms: C_7  and  S_8
REMARK    5  A    between atoms: S_8  and  C_9
REMARK    6  A    between atoms: C_9  and  C_10
REMARK    7  A    between atoms: N_12  and  N_13
REMARK    8  A    between atoms: N_13  and  C_14
REMARK    9  A    between atoms: C_14  and  C_16
REMARK                            x       y       z     vdW  Elec       q    Type
REMARK                         _______ _______ _______ _____ _____    ______ ____
ROOT
ATOM      1  C   UNL     1      -3.528  -0.644  -3.587  0.00  0.00    +0.174 C 
ENDROOT
BRANCH   1   2
ATOM      2  C   UNL     1      -3.289  -0.375  -5.050  0.00  0.00    +0.239 C 
ATOM      3  O   UNL     1      -2.286   0.208  -5.404  0.00  0.00    -0.273 OA
ATOM      4  N   UNL     1      -4.190  -0.783  -5.966  0.00  0.00    -0.236 N 
ATOM      5  H   UNL     1      -4.992  -1.249  -5.683  0.00  0.00    +0.173 HD
BRANCH   4   6
ATOM      6  N   UNL     1      -3.967  -0.533  -7.327  0.00  0.00    -0.264 N 
ATOM      7  H   UNL     1      -3.165  -0.067  -7.609  0.00  0.00    +0.170 HD
BRANCH   6   8
ATOM      8  C   UNL     1      -4.900  -0.955  -8.275  0.00  0.00    +0.046 C 
ATOM      9  C   UNL     1      -6.003  -1.596  -7.886  0.00  0.00    +0.035 C 
BRANCH   8  10
ATOM     10  C   UNL     1      -4.665  -0.691  -9.713  0.00  0.00    +0.015 A 
ATOM     11  C   UNL     1      -5.604   0.024 -10.456  0.00  0.00    +0.012 A 
ATOM     12  C   UNL     1      -5.380   0.268 -11.795  0.00  0.00    +0.021 A 
ATOM     13  C   UNL     1      -4.225  -0.196 -12.403  0.00  0.00    +0.042 A 
ATOM     14  C   UNL     1      -3.289  -0.906 -11.671  0.00  0.00    +0.040 A 
ATOM     15  C   UNL     1      -3.500  -1.151 -10.328  0.00  0.00    +0.051 A 
ATOM     16 CL   UNL     1      -2.322  -2.036  -9.410  0.00  0.00    -0.083 Cl
ATOM     17 CL   UNL     1      -3.951   0.115 -14.088  0.00  0.00    -0.083 Cl
ENDBRANCH   8  10
ENDBRANCH   6   8
ENDBRANCH   4   6
ENDBRANCH   1   2
BRANCH   1  18
ATOM     18  S   UNL     1      -2.147   0.021  -2.616  0.00  0.00    -0.077 S 
BRANCH  18  23
ATOM     19  N   UNL     1      -1.837  -0.070   0.162  0.00  0.00    -0.302 N 
ATOM     20  C   UNL     1      -2.560  -0.560   1.225  0.00  0.00    +0.165 A 
ATOM     21  N   UNL     1      -3.645  -1.111   0.733  0.00  0.00    -0.128 NA
ATOM     22  N   UNL     1      -3.650  -1.000  -0.548  0.00  0.00    -0.122 NA
ATOM     23  C   UNL     1      -2.571  -0.367  -0.951  0.00  0.00    +0.192 A 
BRANCH  20  24
ATOM     24  C   UNL     1      -2.186  -0.481   2.653  0.00  0.00    +0.019 A 
ATOM     25  C   UNL     1      -1.231   0.445   3.077  0.00  0.00    +0.013 A 
ATOM     26  C   UNL     1      -0.885   0.513   4.411  0.00  0.00    +0.021 A 
ATOM     27  C   UNL     1      -1.485  -0.333   5.329  0.00  0.00    +0.041 A 
ATOM     28  C   UNL     1      -2.433  -1.253   4.914  0.00  0.00    +0.021 A 
ATOM     29  C   UNL     1      -2.791  -1.327   3.584  0.00  0.00    +0.013 A 
ATOM     30 CL   UNL     1      -1.045  -0.240   7.005  0.00  0.00    -0.084 Cl
ENDBRANCH  20  24
BRANCH  19  32
ATOM     31  C   UNL     1      -0.794   2.141   0.254  0.00  0.00    +0.027 C 
ATOM     32  C   UNL     1      -0.551   0.630   0.214  0.00  0.00    +0.122 C 
ENDBRANCH  19  32
ENDBRANCH  18  23
ENDBRANCH   1  18
TORSDOF 8
