REMARK  Name = ZINC06927941
REMARK  3 active torsions:
REMARK  status: ('A' for Active; 'I' for Inactive)
REMARK    1  A    between atoms: C_7  and  N_12
REMARK    2  A    between atoms: C_8  and  O_11
REMARK    3  A    between atoms: N_13  and  C_14
REMARK                            x       y       z     vdW  Elec       q    Type
REMARK                         _______ _______ _______ _____ _____    ______ ____
ROOT
ATOM      1  N   UNL     1       0.761  -3.163  -0.022  0.00  0.00    -0.143 NA
ATOM      2  N   UNL     1       1.238  -4.362  -0.034  0.00  0.00    -0.143 NA
ENDROOT
BRANCH   2   3
ATOM      3  C   UNL     1       0.390  -5.434  -0.031  0.00  0.00    +0.162 A 
ATOM      4  C   UNL     1      -0.995  -5.235  -0.021  0.00  0.00    +0.191 A 
ATOM      5  C   UNL     1      -1.846  -6.324  -0.018  0.00  0.00    +0.199 A 
ATOM      6  C   UNL     1      -1.331  -7.612  -0.025  0.00  0.00    +0.199 A 
ATOM      7  C   UNL     1       0.041  -7.816  -0.034  0.00  0.00    +0.199 A 
ATOM      8  C   UNL     1       0.904  -6.735  -0.044  0.00  0.00    +0.191 A 
ATOM      9  F   UNL     1       2.240  -6.936  -0.059  0.00  0.00    -0.200 F 
ATOM     10  F   UNL     1       0.536  -9.073  -0.041  0.00  0.00    -0.199 F 
ATOM     11  F   UNL     1      -2.168  -8.672  -0.021  0.00  0.00    -0.199 F 
ATOM     12  F   UNL     1      -3.184  -6.134  -0.009  0.00  0.00    -0.199 F 
ATOM     13  F   UNL     1      -1.498  -3.982  -0.014  0.00  0.00    -0.200 F 
ENDBRANCH   2   3
BRANCH   1  20
ATOM     14  C   UNL     1      -0.017   1.374   0.010  0.00  0.00    +0.001 A 
ATOM     15  C   UNL     1       1.172   2.089   0.002  0.00  0.00    +0.002 A 
ATOM     16  C   UNL     1       2.385   1.435  -0.013  0.00  0.00    +0.026 A 
ATOM     17  C   UNL     1       2.425   0.045  -0.021  0.00  0.00    +0.051 A 
ATOM     18  C   UNL     1       1.222  -0.677  -0.013  0.00  0.00    +0.031 A 
ATOM     19  C   UNL     1       0.002  -0.004   0.002  0.00  0.00    +0.012 A 
ATOM     20  C   UNL     1       1.599  -2.103  -0.025  0.00  0.00    +0.154 A 
ATOM     21  C   UNL     1       2.983  -2.139  -0.039  0.00  0.00    +0.219 A 
ATOM     22  N   UNL     1       3.466  -0.866  -0.037  0.00  0.00    -0.324 N 
ATOM     23  H   UNL     1       4.407  -0.631  -0.045  0.00  0.00    +0.169 HD
BRANCH  21  24
ATOM     24  O   UNL     1       3.737  -3.262  -0.053  0.00  0.00    -0.492 OA
ATOM     25  H   UNL     1       3.947  -3.583  -0.941  0.00  0.00    +0.294 HD
ENDBRANCH  21  24
ENDBRANCH   1  20
TORSDOF 3
