REMARK  Name = ZINC09690541
REMARK  5 active torsions:
REMARK  status: ('A' for Active; 'I' for Inactive)
REMARK    1  A    between atoms: C_1  and  C_2
REMARK    2  A    between atoms: C_2  and  C_4
REMARK    3  A    between atoms: C_2  and  S_16
REMARK    4  A    between atoms: S_16  and  C_17
REMARK    5  A    between atoms: C_20  and  C_22
REMARK                            x       y       z     vdW  Elec       q    Type
REMARK                         _______ _______ _______ _____ _____    ______ ____
ROOT
ATOM      1  C   UNL     1       2.359   1.600  -1.319  0.00  0.00    +0.027 C 
ATOM      2  C   UNL     1       1.756   2.096  -0.004  0.00  0.00    +0.119 C 
ENDROOT
BRANCH   2   3
ATOM      3  C   UNL     1       1.986   3.580   0.126  0.00  0.00    +0.124 A 
ATOM      4  N   UNL     1       3.067   4.005   0.831  0.00  0.00    -0.309 N 
ATOM      5  H   UNL     1       3.665   3.356   1.233  0.00  0.00    +0.170 HD
ATOM      6  C   UNL     1       3.321   5.327   0.972  0.00  0.00    +0.259 A 
ATOM      7  O   UNL     1       4.288   5.723   1.597  0.00  0.00    -0.267 OA
ATOM      8  C   UNL     1       2.379   6.268   0.347  0.00  0.00    +0.065 A 
ATOM      9  C   UNL     1       2.546   7.648   0.438  0.00  0.00    +0.015 A 
ATOM     10  C   UNL     1       1.633   8.484  -0.168  0.00  0.00    +0.001 A 
ATOM     11  C   UNL     1       0.551   7.961  -0.865  0.00  0.00    +0.002 A 
ATOM     12  C   UNL     1       0.368   6.601  -0.967  0.00  0.00    +0.028 A 
ATOM     13  C   UNL     1       1.280   5.733  -0.362  0.00  0.00    +0.078 A 
ATOM     14  N   UNL     1       1.138   4.386  -0.437  0.00  0.00    -0.233 NA
ENDBRANCH   2   3
BRANCH   2  15
ATOM     15  S   UNL     1      -0.022   1.758   0.012  0.00  0.00    -0.055 S 
BRANCH  15  16
ATOM     16  C   UNL     1       0.002  -0.004   0.002  0.00  0.00    +0.278 A 
ATOM     17  N   UNL     1       1.071  -0.767  -0.012  0.00  0.00    -0.101 NA
ATOM     18  N   UNL     1       0.715  -2.003  -0.015  0.00  0.00    -0.106 NA
ATOM     19  C   UNL     1      -0.594  -2.079  -0.004  0.00  0.00    +0.250 A 
ATOM     20  O   UNL     1      -1.073  -0.816   0.013  0.00  0.00    -0.411 OA
BRANCH  19  21
ATOM     21  C   UNL     1      -1.397  -3.319  -0.003  0.00  0.00    +0.052 A 
ATOM     22  C   UNL     1      -2.792  -3.251   0.015  0.00  0.00    +0.014 A 
ATOM     23  C   UNL     1      -3.536  -4.412   0.012  0.00  0.00    +0.001 A 
ATOM     24  C   UNL     1      -2.904  -5.644  -0.000  0.00  0.00    +0.001 A 
ATOM     25  C   UNL     1      -1.523  -5.719  -0.014  0.00  0.00    +0.016 A 
ATOM     26  C   UNL     1      -0.765  -4.565  -0.015  0.00  0.00    +0.030 A 
ATOM     27 BR   UNL     1       1.123  -4.670  -0.032  0.00  0.00    -0.050 Br
ENDBRANCH  19  21
ENDBRANCH  15  16
ENDBRANCH   2  15
TORSDOF 4
