REMARK  Name = ZINC36783013
REMARK  9 active torsions:
REMARK  status: ('A' for Active; 'I' for Inactive)
REMARK    1  A    between atoms: C_1  and  C_2
REMARK    2  A    between atoms: C_2  and  C_4
REMARK    3  A    between atoms: C_2  and  N_7
REMARK    4  A    between atoms: N_7  and  C_8
REMARK    5  A    between atoms: N_7  and  C_9
REMARK    6  A    between atoms: C_9  and  C_11
REMARK    7  A    between atoms: C_9  and  C_12
REMARK    8  A    between atoms: N_14  and  C_15
REMARK    9  A    between atoms: C_18  and  N_22
REMARK                            x       y       z     vdW  Elec       q    Type
REMARK                         _______ _______ _______ _____ _____    ______ ____
ROOT
ATOM      1  C   UNL     1      -2.267   1.653  -0.875  0.00  0.00    +0.203 C 
ATOM      2  O   UNL     1      -2.025   2.268   0.142  0.00  0.00    -0.277 OA
ATOM      3  N   UNL     1      -2.359   2.304  -2.051  0.00  0.00    -0.284 N 
ATOM      4  H   UNL     1      -2.603   1.821  -2.856  0.00  0.00    +0.155 HD
ENDROOT
BRANCH   3   5
ATOM      5  C   UNL     1      -2.101   3.682  -2.112  0.00  0.00    +0.070 A 
ATOM      6  C   UNL     1      -1.014   4.216  -1.431  0.00  0.00    +0.065 A 
ATOM      7  C   UNL     1      -0.760   5.573  -1.491  0.00  0.00    +0.044 A 
ATOM      8  C   UNL     1      -1.592   6.403  -2.232  0.00  0.00    +0.027 A 
ATOM      9  C   UNL     1      -2.679   5.869  -2.912  0.00  0.00    +0.044 A 
ATOM     10  C   UNL     1      -2.929   4.511  -2.857  0.00  0.00    +0.065 A 
ATOM     11 CL   UNL     1      -4.283   3.843  -3.714  0.00  0.00    -0.082 Cl
ATOM     12 CL   UNL     1       0.025   3.178  -0.505  0.00  0.00    -0.082 Cl
BRANCH   8  13
ATOM     13  N   UNL     1      -1.335   7.776  -2.292  0.00  0.00    -0.358 N 
ATOM     14  H   UNL     1      -0.576   8.149  -1.817  0.00  0.00    +0.142 HD
ATOM     15  H   UNL     1      -1.916   8.356  -2.809  0.00  0.00    +0.142 HD
ENDBRANCH   8  13
ENDBRANCH   3   5
BRANCH   1  16
ATOM     16  C   UNL     1      -2.467   0.160  -0.823  0.00  0.00    +0.016 C 
ATOM     17  C   UNL     1      -3.911  -0.175  -1.200  0.00  0.00    -0.004 C 
BRANCH  16  18
ATOM     18  N   UNL     1      -2.191  -0.324   0.536  0.00  0.00    +0.387 N 
ATOM     19  C   UNL     1      -3.198   0.212   1.461  0.00  0.00    -0.095 C 
ATOM     20  H   UNL     1      -1.273  -0.016   0.823  0.00  0.00    -0.081 HD
BRANCH  18  22
ATOM     21  C   UNL     1      -1.144  -2.352  -0.353  0.00  0.00    -0.013 C 
ATOM     22  C   UNL     1      -2.242  -1.792   0.554  0.00  0.00    -0.068 C 
BRANCH  22  23
ATOM     23  C   UNL     1      -2.028  -2.293   1.983  0.00  0.00    -0.025 C 
ATOM     24  C   UNL     1      -0.725  -3.038   2.283  0.00  0.00    +0.002 C 
ATOM     25  C   UNL     1      -2.047  -3.806   2.212  0.00  0.00    +0.002 C 
ENDBRANCH  22  23
ENDBRANCH  18  22
ENDBRANCH  16  18
ENDBRANCH   1  16
TORSDOF 6
