REMARK  Name = ZINC11970214
REMARK  11 active torsions:
REMARK  status: ('A' for Active; 'I' for Inactive)
REMARK    1  A    between atoms: C_1  and  C_2
REMARK    2  A    between atoms: C_2  and  C_4
REMARK    3  A    between atoms: C_2  and  N_24
REMARK    4  A    between atoms: C_13  and  C_14
REMARK    5  A    between atoms: C_13  and  N_68
REMARK    6  A    between atoms: C_16  and  O_22
REMARK    7  A    between atoms: C_18  and  O_20
REMARK    8  A    between atoms: O_20  and  C_21
REMARK    9  A    between atoms: O_22  and  C_23
REMARK   10  A    between atoms: C_25  and  C_27
REMARK   11  A    between atoms: C_32  and  N_70
REMARK                            x       y       z     vdW  Elec       q    Type
REMARK                         _______ _______ _______ _____ _____    ______ ____
ROOT
ATOM      1  C   UNL     1      -3.001  -3.749   0.742  0.00  0.00    +0.154 A 
ATOM      2  N   UNL     1      -2.184  -4.722   0.435  0.00  0.00    -0.132 NA
ATOM      3  N   UNL     1      -2.458  -5.761   1.145  0.00  0.00    -0.134 NA
ATOM      4  C   UNL     1      -3.455  -5.496   1.936  0.00  0.00    +0.132 A 
ATOM      5  N   UNL     1      -3.834  -4.216   1.696  0.00  0.00    -0.315 N 
ATOM      6  C   UNL     1      -4.953  -3.517   2.329  0.00  0.00    +0.106 C 
ATOM      7  C   UNL     1      -5.184  -4.103   3.725  0.00  0.00    -0.056 C 
ATOM      8  C   UNL     1      -5.615  -6.318   2.813  0.00  0.00    -0.071 C 
ATOM      9  C   UNL     1      -4.092  -6.406   2.955  0.00  0.00    +0.058 C 
ATOM     10  N   UNL     1      -6.160  -5.214   3.634  0.00  0.00    +0.384 N 
ATOM     11  H   UNL     1      -7.017  -4.865   3.191  0.00  0.00    -0.081 HD
ENDROOT
BRANCH   1  13
ATOM     12  C   UNL     1      -3.604  -2.417  -1.260  0.00  0.00    +0.036 C 
ATOM     13  C   UNL     1      -3.008  -2.364   0.148  0.00  0.00    +0.138 C 
BRANCH  13  14
ATOM     14  N   UNL     1      -1.636  -1.856   0.079  0.00  0.00    -0.305 N 
ATOM     15  C   UNL     1      -1.409  -0.527   0.073  0.00  0.00    +0.217 C 
ATOM     16  O   UNL     1      -2.341   0.247   0.126  0.00  0.00    -0.276 OA
ATOM     17  H   UNL     1      -0.891  -2.475   0.037  0.00  0.00    +0.149 HD
BRANCH  15  18
ATOM     18  C   UNL     1       0.002  -0.004   0.002  0.00  0.00    +0.071 C 
ATOM     19  C   UNL     1      -0.019   1.527   0.010  0.00  0.00    -0.006 C 
ATOM     20  C   UNL     1       1.419   2.052  -0.001  0.00  0.00    -0.078 C 
ATOM     21  C   UNL     1       2.208   0.081   1.168  0.00  0.00    -0.078 C 
ATOM     22  C   UNL     1       0.794  -0.503   1.214  0.00  0.00    -0.006 C 
ATOM     23  C   UNL     1       3.474   2.142   1.275  0.00  0.00    -0.096 C 
ATOM     24  N   UNL     1       2.120   1.556   1.203  0.00  0.00    +0.378 N 
ATOM     25  H   UNL     1       1.590   1.838   2.037  0.00  0.00    -0.082 HD
ENDBRANCH  15  18
ENDBRANCH  13  14
ENDBRANCH   1  13
BRANCH  10  26
ATOM     26  C   UNL     1      -6.487  -5.707   4.984  0.00  0.00    -0.043 C 
BRANCH  26  27
ATOM     27  C   UNL     1      -7.655  -6.654   4.879  0.00  0.00    -0.057 A 
ATOM     28  C   UNL     1      -8.946  -6.169   4.963  0.00  0.00    +0.047 A 
ATOM     29  C   UNL     1     -10.023  -7.038   4.862  0.00  0.00    +0.124 A 
ATOM     30  C   UNL     1      -9.803  -8.395   4.686  0.00  0.00    +0.091 A 
ATOM     31  C   UNL     1      -8.506  -8.880   4.608  0.00  0.00    +0.124 A 
ATOM     32  C   UNL     1      -7.433  -8.007   4.705  0.00  0.00    +0.047 A 
BRANCH  31  33
ATOM     33  O   UNL     1      -8.287 -10.210   4.436  0.00  0.00    -0.495 OA
ATOM     34  C   UNL     1      -9.439 -11.051   4.344  0.00  0.00    +0.277 C 
ENDBRANCH  31  33
BRANCH  29  35
ATOM     35  O   UNL     1     -11.292  -6.559   4.939  0.00  0.00    -0.495 OA
ATOM     36  C   UNL     1     -12.352  -7.511   4.831  0.00  0.00    +0.277 C 
ENDBRANCH  29  35
ENDBRANCH  26  27
ENDBRANCH  10  26
TORSDOF 7
