REMARK  Name = ZINC23972868
REMARK  9 active torsions:
REMARK  status: ('A' for Active; 'I' for Inactive)
REMARK    1  A    between atoms: C_1  and  C_2
REMARK    2  A    between atoms: C_7  and  N_8
REMARK    3  A    between atoms: C_9  and  C_11
REMARK    4  A    between atoms: C_11  and  C_13
REMARK    5  A    between atoms: C_11  and  S_14
REMARK    6  A    between atoms: S_14  and  C_15
REMARK    7  A    between atoms: C_18  and  C_21
REMARK    8  A    between atoms: N_19  and  N_20
REMARK    9  A    between atoms: C_25  and  C_26
REMARK                            x       y       z     vdW  Elec       q    Type
REMARK                         _______ _______ _______ _____ _____    ______ ____
ROOT
ATOM      1  S   UNL     1       0.464  -0.982   6.226  0.00  0.00    -0.072 S 
ENDROOT
BRANCH   1   2
ATOM      2  C   UNL     1       0.359   0.158   7.565  0.00  0.00    +0.209 A 
ATOM      3  N   UNL     1      -0.068   1.398   7.501  0.00  0.00    -0.121 NA
ATOM      4  N   UNL     1      -0.015   1.944   8.663  0.00  0.00    -0.127 NA
ATOM      5  C   UNL     1       0.459   1.089   9.539  0.00  0.00    +0.185 A 
ATOM      6  N   UNL     1       0.713  -0.081   8.864  0.00  0.00    -0.224 N 
BRANCH   5   7
ATOM      7  C   UNL     1       0.678   1.339  10.980  0.00  0.00    +0.061 A 
ATOM      8  C   UNL     1       1.208   0.395  11.973  0.00  0.00    +0.053 A 
ATOM      9  C   UNL     1       1.230   1.058  13.141  0.00  0.00    +0.196 A 
ATOM     10  O   UNL     1       0.767   2.302  12.946  0.00  0.00    -0.467 OA
ATOM     11  C   UNL     1       0.437   2.492  11.661  0.00  0.00    +0.112 A 
ATOM     12  C   UNL     1      -0.112   3.765  11.070  0.00  0.00    +0.087 C 
ENDBRANCH   5   7
BRANCH   6  13
ATOM     13  N   UNL     1       1.215  -1.241   9.382  0.00  0.00    -0.295 N 
ATOM     14  H   UNL     1       1.461  -1.304  10.453  0.00  0.00    +0.163 HD
ATOM     15  H   UNL     1       1.373  -2.112   8.730  0.00  0.00    +0.163 HD
ENDBRANCH   6  13
ENDBRANCH   1   2
BRANCH   1  16
ATOM     16  C   UNL     1      -0.169   0.052   4.882  0.00  0.00    +0.137 C 
ATOM     17  C   UNL     1      -1.636   0.395   5.149  0.00  0.00    +0.029 C 
BRANCH  16  19
ATOM     18  N   UNL     1       0.025  -0.015   2.417  0.00  0.00    -0.284 N 
ATOM     19  C   UNL     1      -0.057  -0.694   3.578  0.00  0.00    +0.230 C 
ATOM     20  O   UNL     1      -0.040  -1.907   3.573  0.00  0.00    -0.274 OA
ATOM     21  H   UNL     1       0.084   1.084   2.426  0.00  0.00    +0.155 HD
BRANCH  18  28
ATOM     22  C   UNL     1      -1.256   1.188   0.178  0.00  0.00    +0.045 C 
ATOM     23  C   UNL     1      -0.580  -0.156   0.083  0.00  0.00    -0.029 A 
ATOM     24  C   UNL     1      -0.574  -0.844  -1.115  0.00  0.00    +0.005 A 
ATOM     25  C   UNL     1       0.050  -2.074  -1.204  0.00  0.00    +0.000 A 
ATOM     26  C   UNL     1       0.662  -2.624  -0.093  0.00  0.00    +0.002 A 
ATOM     27  C   UNL     1       0.656  -1.944   1.109  0.00  0.00    +0.023 A 
ATOM     28  C   UNL     1       0.034  -0.706   1.201  0.00  0.00    +0.036 A 
ENDBRANCH  18  28
ENDBRANCH  16  19
ENDBRANCH   1  16
TORSDOF 6
