REMARK  Name = ZINC39710294
REMARK  12 active torsions:
REMARK  status: ('A' for Active; 'I' for Inactive)
REMARK    1  A    between atoms: C_1  and  C_2
REMARK    2  A    between atoms: C_9  and  C_14
REMARK    3  A    between atoms: C_14  and  C_16
REMARK    4  A    between atoms: C_14  and  N_26
REMARK    5  A    between atoms: N_21  and  C_22
REMARK    6  A    between atoms: C_22  and  C_23
REMARK    7  A    between atoms: C_22  and  C_24
REMARK    8  A    between atoms: C_22  and  C_25
REMARK    9  A    between atoms: N_26  and  C_27
REMARK   10  A    between atoms: N_26  and  C_35
REMARK   11  A    between atoms: C_27  and  C_28
REMARK   12  A    between atoms: C_35  and  C_36
REMARK                            x       y       z     vdW  Elec       q    Type
REMARK                         _______ _______ _______ _____ _____    ______ ____
ROOT
ATOM      1  C   UNL     1      -1.072  -4.920   2.675  0.00  0.00    -0.008 C 
ENDROOT
BRANCH   1  10
ATOM      2  C   UNL     1      -1.521   1.841   0.420  0.00  0.00    +0.044 C 
ATOM      3  C   UNL     1      -0.998   0.430   0.347  0.00  0.00    -0.050 A 
ATOM      4  C   UNL     1      -0.499  -0.052  -0.864  0.00  0.00    +0.005 A 
ATOM      5  C   UNL     1      -0.011  -1.312  -1.006  0.00  0.00    +0.024 A 
ATOM      6  C   UNL     1       0.010  -2.198   0.087  0.00  0.00    +0.040 A 
ATOM      7  N   UNL     1       0.491  -3.431  -0.064  0.00  0.00    -0.285 N 
ATOM      8  C   UNL     1       0.540  -4.313   0.920  0.00  0.00    +0.223 C 
ATOM      9  O   UNL     1       0.991  -5.425   0.722  0.00  0.00    -0.275 OA
ATOM     10  C   UNL     1       0.033  -3.933   2.293  0.00  0.00    +0.088 C 
ATOM     11  C   UNL     1      -0.515  -2.531   2.471  0.00  0.00    -0.006 C 
ATOM     12  C   UNL     1      -0.511  -1.715   1.378  0.00  0.00    -0.007 A 
ATOM     13  C   UNL     1      -1.017  -0.345   1.462  0.00  0.00    +0.012 A 
ATOM     14  H   UNL     1       0.821  -3.695  -0.937  0.00  0.00    +0.155 HD
ENDBRANCH   1  10
BRANCH   1  15
ATOM     15  C   UNL     1      -1.504  -4.668   4.121  0.00  0.00    +0.205 C 
ATOM     16  N   UNL     1      -2.664  -5.502   4.463  0.00  0.00    -0.152 NA
ATOM     17  N   UNL     1      -3.611  -4.768   4.756  0.00  0.00    -0.070 NA
ATOM     18  N   UNL     1      -3.292  -3.413   4.673  0.00  0.00    -0.179 N 
ATOM     19  N   UNL     1      -1.983  -3.278   4.281  0.00  0.00    -0.183 NA
ATOM     20  H   UNL     1      -3.899  -2.680   4.864  0.00  0.00    +0.191 HD
BRANCH  19  21
ATOM     21  C   UNL     1      -1.197  -2.564   5.297  0.00  0.00    +0.035 C 
ATOM     22  C   UNL     1       0.293  -2.712   4.985  0.00  0.00    +0.029 C 
ATOM     23  C   UNL     1      -1.576  -1.082   5.286  0.00  0.00    +0.029 C 
ATOM     24  C   UNL     1      -1.491  -3.155   6.677  0.00  0.00    +0.029 C 
ENDBRANCH  19  21
ENDBRANCH   1  15
BRANCH   1  25
ATOM     25  N   UNL     1      -0.567  -6.294   2.548  0.00  0.00    +0.392 N 
ATOM     26  H   UNL     1      -0.167  -6.421   1.631  0.00  0.00    -0.080 HD
BRANCH  25  27
ATOM     27  C   UNL     1       0.461  -6.534   3.569  0.00  0.00    -0.040 C 
BRANCH  27  28
ATOM     28  C   UNL     1       0.853  -7.989   3.554  0.00  0.00    -0.046 A 
ATOM     29  C   UNL     1       0.323  -8.857   4.490  0.00  0.00    +0.003 A 
ATOM     30  C   UNL     1       0.682 -10.192   4.477  0.00  0.00    +0.000 A 
ATOM     31  C   UNL     1       1.572 -10.659   3.528  0.00  0.00    +0.001 A 
ATOM     32  C   UNL     1       2.103  -9.793   2.592  0.00  0.00    +0.020 A 
ATOM     33  C   UNL     1       1.739  -8.458   2.601  0.00  0.00    +0.042 A 
ATOM     34 CL   UNL     1       2.400  -7.370   1.421  0.00  0.00    -0.083 Cl
ENDBRANCH  27  28
ENDBRANCH  25  27
BRANCH  25  35
ATOM     35  C   UNL     1      -1.674  -7.242   2.736  0.00  0.00    -0.002 C 
BRANCH  35  36
ATOM     36  C   UNL     1      -2.698  -7.040   1.648  0.00  0.00    +0.089 A 
ATOM     37  C   UNL     1      -2.753  -7.713   0.485  0.00  0.00    +0.042 A 
ATOM     38  C   UNL     1      -3.863  -7.206  -0.229  0.00  0.00    +0.041 A 
ATOM     39  C   UNL     1      -4.420  -6.254   0.541  0.00  0.00    +0.195 A 
ATOM     40  O   UNL     1      -3.714  -6.162   1.679  0.00  0.00    -0.470 OA
ENDBRANCH  35  36
ENDBRANCH  25  35
ENDBRANCH   1  25
TORSDOF 8
