REMARK  Name = ZINC28290372
REMARK  10 active torsions:
REMARK  status: ('A' for Active; 'I' for Inactive)
REMARK    1  A    between atoms: C_1  and  C_2
REMARK    2  A    between atoms: C_10  and  C_11
REMARK    3  A    between atoms: N_13  and  C_14
REMARK    4  A    between atoms: C_14  and  C_15
REMARK    5  A    between atoms: C_15  and  C_17
REMARK    6  A    between atoms: C_15  and  N_27
REMARK    7  A    between atoms: C_20  and  C_23
REMARK    8  A    between atoms: C_23  and  C_24
REMARK    9  A    between atoms: C_23  and  C_25
REMARK   10  A    between atoms: C_23  and  C_26
REMARK                            x       y       z     vdW  Elec       q    Type
REMARK                         _______ _______ _______ _____ _____    ______ ____
ROOT
ATOM      1  C   UNL     1       6.008   8.372  -0.075  0.00  0.00    -0.020 C 
ENDROOT
BRANCH   1   2
ATOM      2  C   UNL     1       6.761   9.678  -0.104  0.00  0.00    -0.059 A 
ATOM      3  C   UNL     1       6.894  10.372  -1.292  0.00  0.00    +0.002 A 
ATOM      4  C   UNL     1       7.581  11.572  -1.317  0.00  0.00    +0.004 A 
ATOM      5  C   UNL     1       8.142  12.072  -0.157  0.00  0.00    -0.042 A 
ATOM      6  C   UNL     1       8.014  11.374   1.029  0.00  0.00    +0.004 A 
ATOM      7  C   UNL     1       7.323  10.177   1.056  0.00  0.00    +0.002 A 
BRANCH   5   8
ATOM      8  C   UNL     1       8.895  13.377  -0.186  0.00  0.00    -0.013 C 
ATOM      9  C   UNL     1      10.338  13.144   0.263  0.00  0.00    +0.015 C 
ATOM     10  C   UNL     1       8.888  13.938  -1.610  0.00  0.00    +0.015 C 
ATOM     11  C   UNL     1       8.222  14.375   0.758  0.00  0.00    +0.015 C 
ENDBRANCH   5   8
ENDBRANCH   1   2
BRANCH   1  12
ATOM     12  N   UNL     1       6.326   7.597  -1.282  0.00  0.00    +0.385 N 
ATOM     13  C   UNL     1       7.780   7.307  -1.361  0.00  0.00    -0.078 C 
ATOM     14  C   UNL     1       7.849   6.100  -2.330  0.00  0.00    -0.020 C 
ATOM     15  C   UNL     1       6.597   5.278  -1.947  0.00  0.00    -0.020 C 
ATOM     16  C   UNL     1       5.653   6.280  -1.258  0.00  0.00    -0.078 C 
ATOM     17  H   UNL     1       5.984   8.209  -2.129  0.00  0.00    -0.081 HD
ENDBRANCH   1  12
BRANCH   1  18
ATOM     18  C   UNL     1       4.505   8.652  -0.029  0.00  0.00    +0.094 C 
BRANCH  18  21
ATOM     19  C   UNL     1       2.913   9.748   1.455  0.00  0.00    +0.280 C 
ATOM     20  O   UNL     1       2.059   9.597   0.602  0.00  0.00    -0.267 OA
ATOM     21  N   UNL     1       4.168   9.309   1.236  0.00  0.00    -0.310 N 
ATOM     22  H   UNL     1       4.941   9.445   2.007  0.00  0.00    +0.149 HD
BRANCH  19  32
ATOM     23  C   UNL     1       0.102  10.846   2.207  0.00  0.00    +0.048 C 
ATOM     24  C   UNL     1       1.349  10.887   3.053  0.00  0.00    +0.008 A 
ATOM     25  C   UNL     1       1.482  11.453   4.395  0.00  0.00    +0.024 A 
ATOM     26  C   UNL     1       0.602  12.087   5.276  0.00  0.00    +0.013 A 
ATOM     27  C   UNL     1       1.050  12.506   6.497  0.00  0.00    +0.016 A 
ATOM     28  C   UNL     1       2.377  12.316   6.862  0.00  0.00    +0.021 A 
ATOM     29  C   UNL     1       3.261  11.693   6.006  0.00  0.00    +0.062 A 
ATOM     30  C   UNL     1       2.826  11.253   4.762  0.00  0.00    +0.137 A 
ATOM     31  O   UNL     1       3.439  10.628   3.738  0.00  0.00    -0.450 OA
ATOM     32  C   UNL     1       2.576  10.407   2.724  0.00  0.00    +0.193 A 
ATOM     33 BR   UNL     1       2.976  12.911   8.554  0.00  0.00    -0.050 Br
ENDBRANCH  19  32
ENDBRANCH  18  21
ENDBRANCH   1  18
TORSDOF 6
