REMARK  Name = ZINC03331249
REMARK  5 active torsions:
REMARK  status: ('A' for Active; 'I' for Inactive)
REMARK    1  A    between atoms: C_4  and  C_7
REMARK    2  A    between atoms: C_16  and  C_18
REMARK    3  A    between atoms: C_24  and  C_26
REMARK    4  A    between atoms: C_26  and  S_27
REMARK    5  A    between atoms: S_27  and  C_28
REMARK                            x       y       z     vdW  Elec       q    Type
REMARK                         _______ _______ _______ _____ _____    ______ ____
ROOT
ATOM      1  C   UNL     1       3.692  -0.681  -0.038  0.00  0.00    +0.013 C 
ATOM      2  C   UNL     1       3.717  -2.022   0.056  0.00  0.00    -0.024 C 
ATOM      3  C   UNL     1       2.449  -2.858   0.064  0.00  0.00    +0.037 C 
ATOM      4  C   UNL     1       2.595  -3.945   1.134  0.00  0.00    +0.009 C 
ATOM      5  C   UNL     1       3.743  -4.892   0.772  0.00  0.00    +0.035 C 
ATOM      6  C   UNL     1       4.983  -4.089   0.485  0.00  0.00    -0.021 C 
ATOM      7  C   UNL     1       4.985  -2.784   0.153  0.00  0.00    +0.049 C 
ATOM      8  N   UNL     1       6.272  -2.321  -0.057  0.00  0.00    -0.261 N 
ATOM      9  N   UNL     1       7.200  -3.356   0.132  0.00  0.00    -0.210 N 
ATOM     10  C   UNL     1       6.415  -4.551   0.501  0.00  0.00    +0.155 C 
ATOM     11  C   UNL     1       8.540  -3.273   0.011  0.00  0.00    +0.243 C 
ATOM     12  O   UNL     1       9.228  -4.253   0.203  0.00  0.00    -0.273 OA
ATOM     13  H   UNL     1       6.500  -1.410  -0.301  0.00  0.00    +0.170 HD
ENDROOT
BRANCH   1  17
ATOM     14  C   UNL     1       0.031   1.324  -0.798  0.00  0.00    +0.000 A 
ATOM     15  C   UNL     1       1.002   1.934  -0.023  0.00  0.00    +0.001 A 
ATOM     16  C   UNL     1       2.194   1.288   0.228  0.00  0.00    +0.008 A 
ATOM     17  C   UNL     1       2.421   0.015  -0.302  0.00  0.00    -0.025 A 
ATOM     18  C   UNL     1       1.435  -0.594  -1.083  0.00  0.00    +0.008 A 
ATOM     19  C   UNL     1       0.248   0.064  -1.326  0.00  0.00    +0.001 A 
ENDBRANCH   1  17
BRANCH  10  20
ATOM     20  C   UNL     1       6.793  -5.042   1.876  0.00  0.00    -0.021 A 
ATOM     21  C   UNL     1       7.117  -4.135   2.868  0.00  0.00    +0.006 A 
ATOM     22  C   UNL     1       7.463  -4.585   4.128  0.00  0.00    +0.000 A 
ATOM     23  C   UNL     1       7.485  -5.941   4.397  0.00  0.00    +0.000 A 
ATOM     24  C   UNL     1       7.160  -6.847   3.405  0.00  0.00    +0.000 A 
ATOM     25  C   UNL     1       6.809  -6.397   2.146  0.00  0.00    +0.006 A 
ENDBRANCH  10  20
BRANCH  11  26
ATOM     26  C   UNL     1       9.183  -1.963  -0.364  0.00  0.00    +0.174 C 
BRANCH  26  27
ATOM     27  S   UNL     1      10.983  -2.174  -0.446  0.00  0.00    -0.083 S 
BRANCH  27  28
ATOM     28  C   UNL     1      11.580  -0.576  -0.888  0.00  0.00    +0.128 C 
ATOM     29  N   UNL     1      10.778   0.460  -1.080  0.00  0.00    -0.366 N 
ATOM     30  C   UNL     1      11.584   1.638  -1.436  0.00  0.00    +0.133 C 
ATOM     31  C   UNL     1      13.030   1.102  -1.419  0.00  0.00    +0.124 C 
ATOM     32  N   UNL     1      12.867  -0.313  -1.050  0.00  0.00    -0.324 N 
ATOM     33  H   UNL     1      13.589  -0.953  -0.945  0.00  0.00    +0.148 HD
ATOM     34  H   UNL     1       9.811   0.444  -1.000  0.00  0.00    +0.161 HD
ENDBRANCH  27  28
ENDBRANCH  26  27
ENDBRANCH  11  26
TORSDOF 5
