REMARK  Name = ZINC42858697
REMARK  8 active torsions:
REMARK  status: ('A' for Active; 'I' for Inactive)
REMARK    1  A    between atoms: C_1  and  C_2
REMARK    2  A    between atoms: C_8  and  C_10
REMARK    3  A    between atoms: C_10  and  N_11
REMARK    4  A    between atoms: N_11  and  C_12
REMARK    5  A    between atoms: C_12  and  C_14
REMARK    6  A    between atoms: C_12  and  C_15
REMARK    7  A    between atoms: C_18  and  S_21
REMARK    8  A    between atoms: S_21  and  N_24
REMARK                            x       y       z     vdW  Elec       q    Type
REMARK                         _______ _______ _______ _____ _____    ______ ____
ROOT
ATOM      1  C   UNL     1       0.114   0.072   4.896  0.00  0.00    -0.044 C 
ATOM      2  C   UNL     1      -1.227  -0.652   5.037  0.00  0.00    -0.009 C 
ENDROOT
BRANCH   1   3
ATOM      3  C   UNL     1       0.968  -0.214   6.104  0.00  0.00    -0.062 A 
ATOM      4  C   UNL     1       1.664  -1.405   6.192  0.00  0.00    +0.004 A 
ATOM      5  C   UNL     1       2.447  -1.667   7.301  0.00  0.00    +0.029 A 
ATOM      6  C   UNL     1       2.534  -0.738   8.321  0.00  0.00    +0.105 A 
ATOM      7  C   UNL     1       1.839   0.453   8.233  0.00  0.00    +0.029 A 
ATOM      8  C   UNL     1       1.059   0.717   7.122  0.00  0.00    +0.004 A 
BRANCH   6   9
ATOM      9  S   UNL     1       3.532  -1.073   9.734  0.00  0.00    +0.056 S 
ATOM     10  O   UNL     1       3.013  -0.281  10.794  0.00  0.00    -0.153 OA
ATOM     11  O   UNL     1       3.647  -2.486   9.825  0.00  0.00    -0.153 OA
BRANCH   9  12
ATOM     12  N   UNL     1       5.050  -0.495   9.411  0.00  0.00    -0.204 NA
ATOM     13  H   UNL     1       5.235  -0.068   8.559  0.00  0.00    +0.144 HD
ATOM     14  H   UNL     1       5.754  -0.584  10.072  0.00  0.00    +0.144 HD
ENDBRANCH   9  12
ENDBRANCH   6   9
ENDBRANCH   1   3
BRANCH   1  15
ATOM     15  N   UNL     1       0.801  -0.402   3.687  0.00  0.00    +0.384 N 
ATOM     16  H   UNL     1       0.888  -1.407   3.721  0.00  0.00    -0.085 HD
ATOM     17  H   UNL     1       1.720   0.013   3.638  0.00  0.00    -0.085 HD
BRANCH  15  18
ATOM     18  C   UNL     1       0.026  -0.018   2.500  0.00  0.00    -0.078 C 
BRANCH  18  25
ATOM     19  C   UNL     1      -0.019   1.526   0.010  0.00  0.00    +0.008 C 
ATOM     20  C   UNL     1       0.002  -0.004   0.002  0.00  0.00    -0.013 C 
ATOM     21  C   UNL     1       0.718  -0.497  -1.257  0.00  0.00    +0.003 C 
ATOM     22  C   UNL     1       0.739  -2.027  -1.265  0.00  0.00    +0.000 C 
ATOM     23  C   UNL     1       1.479  -2.534  -0.026  0.00  0.00    +0.000 C 
ATOM     24  C   UNL     1       0.763  -2.041   1.233  0.00  0.00    +0.002 C 
ATOM     25  C   UNL     1       0.742  -0.511   1.242  0.00  0.00    -0.025 C 
ENDBRANCH  18  25
ENDBRANCH  15  18
ENDBRANCH   1  15
TORSDOF 6
