REMARK  Name = ZINC01248540
REMARK  3 active torsions:
REMARK  status: ('A' for Active; 'I' for Inactive)
REMARK    1  A    between atoms: C_1  and  C_2
REMARK    2  A    between atoms: C_2  and  C_4
REMARK    3  A    between atoms: C_4  and  N_5
REMARK                            x       y       z     vdW  Elec       q    Type
REMARK                         _______ _______ _______ _____ _____    ______ ____
ROOT
ATOM      1  N   UNL     1       1.127   2.052   0.002  0.00  0.00    -0.284 N 
ATOM      2  C   UNL     1       2.322   1.429  -0.028  0.00  0.00    +0.259 A 
ATOM      3  O   UNL     1       3.354   2.078  -0.035  0.00  0.00    -0.267 OA
ATOM      4  C   UNL     1       2.369   0.020  -0.051  0.00  0.00    +0.047 A 
ATOM      5  C   UNL     1       1.198  -0.680  -0.013  0.00  0.00    +0.057 A 
ATOM      6  N   UNL     1       0.002  -0.004   0.002  0.00  0.00    -0.334 N 
ATOM      7  H   UNL     1      -0.946  -0.563   0.008  0.00  0.00    +0.168 HD
ATOM      8  C   UNL     1      -0.016   1.342   0.009  0.00  0.00    +0.161 A 
ATOM      9  S   UNL     1      -1.518   2.165   0.021  0.00  0.00    -0.013 S 
ATOM     10  C   UNL     1       1.240  -2.155  -0.003  0.00  0.00    +0.002 A 
ATOM     11  C   UNL     1       0.107  -2.904  -0.321  0.00  0.00    +0.010 A 
ATOM     12  C   UNL     1       0.178  -4.282  -0.321  0.00  0.00    +0.001 A 
ATOM     13  C   UNL     1       1.367  -4.917  -0.007  0.00  0.00    +0.000 A 
ATOM     14  C   UNL     1       2.491  -4.178   0.317  0.00  0.00    +0.004 A 
ATOM     15  C   UNL     1       2.433  -2.800   0.326  0.00  0.00    -0.037 A 
ATOM     16  C   UNL     1       3.646  -1.987   0.694  0.00  0.00    +0.047 C 
ATOM     17  C   UNL     1       3.690  -0.697  -0.123  0.00  0.00    +0.007 C 
ATOM     18  C   UNL     1       4.789   0.215   0.432  0.00  0.00    +0.012 C 
ATOM     19  C   UNL     1       6.135  -0.507   0.357  0.00  0.00    +0.001 C 
ATOM     20  C   UNL     1       6.450  -0.849  -1.101  0.00  0.00    +0.000 C 
ATOM     21  C   UNL     1       5.352  -1.755  -1.661  0.00  0.00    +0.001 C 
ATOM     22  C   UNL     1       4.005  -1.032  -1.583  0.00  0.00    +0.012 C 
ENDROOT
BRANCH   1  23
ATOM     23  C   UNL     1       1.072   3.515   0.027  0.00  0.00    +0.157 C 
BRANCH  23  25
ATOM     24  C   UNL     1      -0.215   4.077   2.227  0.00  0.00    +0.040 C 
ATOM     25  C   UNL     1       1.077   3.994   1.456  0.00  0.00    -0.060 C 
ATOM     26  C   UNL     1       2.204   4.339   2.028  0.00  0.00    +0.009 C 
ENDBRANCH  23  25
ENDBRANCH   1  23
TORSDOF 2
