REMARK  Name = ZINC40428920
REMARK  5 active torsions:
REMARK  status: ('A' for Active; 'I' for Inactive)
REMARK    1  A    between atoms: C_1  and  C_2
REMARK    2  A    between atoms: N_4  and  C_5
REMARK    3  A    between atoms: C_8  and  C_15
REMARK    4  A    between atoms: N_22  and  C_23
REMARK    5  A    between atoms: C_23  and  C_24
REMARK                            x       y       z     vdW  Elec       q    Type
REMARK                         _______ _______ _______ _____ _____    ______ ____
ROOT
ATOM      1  C   UNL     1      -4.476  -5.282   0.135  0.00  0.00    +0.043 C 
ATOM      2  C   UNL     1      -5.237  -6.433   0.169  0.00  0.00    +0.130 C 
ATOM      3  C   UNL     1      -6.702  -6.527   0.109  0.00  0.00    +0.269 C 
ATOM      4  O   UNL     1      -7.497  -5.608   0.019  0.00  0.00    -0.268 OA
ATOM      5  N   UNL     1      -6.983  -7.847   0.175  0.00  0.00    -0.253 N 
ATOM      6  C   UNL     1      -5.802  -8.536   0.269  0.00  0.00    +0.188 C 
ATOM      7  N   UNL     1      -4.782  -7.721   0.261  0.00  0.00    -0.213 NA
ATOM      8  N   UNL     1      -5.703  -9.908   0.355  0.00  0.00    -0.313 N 
ATOM      9  H   UNL     1      -7.869  -8.240   0.159  0.00  0.00    +0.158 HD
ATOM     10  H   UNL     1      -6.506 -10.453   0.351  0.00  0.00    +0.149 HD
ENDROOT
BRANCH   1  14
ATOM     11  C   UNL     1      -1.081  -2.091   0.092  0.00  0.00    +0.052 A 
ATOM     12  C   UNL     1      -2.239  -2.859   0.088  0.00  0.00    +0.037 A 
ATOM     13  C   UNL     1      -2.107  -4.242   0.172  0.00  0.00    +0.028 A 
ATOM     14  C   UNL     1      -3.063  -5.365   0.197  0.00  0.00    +0.004 A 
ATOM     15  C   UNL     1      -2.304  -6.513   0.293  0.00  0.00    +0.093 A 
ATOM     16  N   UNL     1      -0.989  -6.183   0.328  0.00  0.00    -0.345 N 
ATOM     17  H   UNL     1      -0.261  -6.822   0.395  0.00  0.00    +0.167 HD
ATOM     18  C   UNL     1      -0.827  -4.816   0.257  0.00  0.00    +0.139 A 
ATOM     19  N   UNL     1       0.247  -4.037   0.256  0.00  0.00    -0.236 NA
ATOM     20  C   UNL     1       0.154  -2.727   0.173  0.00  0.00    +0.136 A 
BRANCH  11  24
ATOM     21  C   UNL     1      -2.195   1.470   0.607  0.00  0.00    +0.109 C 
ATOM     22  C   UNL     1      -2.171  -0.037   0.605  0.00  0.00    +0.214 C 
ATOM     23  O   UNL     1      -3.065  -0.659   1.140  0.00  0.00    -0.276 OA
ATOM     24  N   UNL     1      -1.156  -0.694   0.009  0.00  0.00    -0.284 N 
ATOM     25  H   UNL     1      -0.477  -0.200  -0.476  0.00  0.00    +0.155 HD
ENDBRANCH  11  24
ENDBRANCH   1  14
BRANCH   8  26
ATOM     26  C   UNL     1      -4.387 -10.544   0.452  0.00  0.00    +0.139 C 
BRANCH  26  27
ATOM     27  C   UNL     1      -4.555 -12.039   0.533  0.00  0.00    -0.030 A 
ATOM     28  C   UNL     1      -4.692 -12.653   1.764  0.00  0.00    +0.005 A 
ATOM     29  C   UNL     1      -4.846 -14.025   1.839  0.00  0.00    +0.000 A 
ATOM     30  C   UNL     1      -4.865 -14.782   0.682  0.00  0.00    +0.000 A 
ATOM     31  C   UNL     1      -4.729 -14.168  -0.548  0.00  0.00    +0.000 A 
ATOM     32  C   UNL     1      -4.579 -12.796  -0.623  0.00  0.00    +0.005 A 
ENDBRANCH  26  27
ENDBRANCH   8  26
TORSDOF 4
