REMARK  Name = ZINC43758248
REMARK  13 active torsions:
REMARK  status: ('A' for Active; 'I' for Inactive)
REMARK    1  A    between atoms: C_1  and  C_2
REMARK    2  A    between atoms: C_2  and  C_4
REMARK    3  A    between atoms: C_2  and  C_10
REMARK    4  A    between atoms: C_4  and  C_5
REMARK    5  A    between atoms: C_5  and  C_6
REMARK    6  A    between atoms: C_6  and  C_7
REMARK    7  A    between atoms: C_7  and  C_8
REMARK    8  A    between atoms: C_7  and  C_9
REMARK    9  A    between atoms: C_16  and  C_37
REMARK   10  A    between atoms: C_24  and  O_36
REMARK   11  A    between atoms: C_26  and  O_35
REMARK   12  A    between atoms: C_27  and  C_34
REMARK   13  A    between atoms: C_30  and  O_33
REMARK                            x       y       z     vdW  Elec       q    Type
REMARK                         _______ _______ _______ _____ _____    ______ ____
ROOT
ATOM      1  C   UNL     1       0.754  -0.549  -1.187  0.00  0.00    -0.002 C 
ATOM      2  C   UNL     1      -0.024  -0.284  -2.491  0.00  0.00    +0.004 C 
ATOM      3  C   UNL     1      -0.108  -1.635  -3.234  0.00  0.00    +0.004 C 
ATOM      4  C   UNL     1       0.042  -2.693  -2.101  0.00  0.00    -0.001 C 
ATOM      5  C   UNL     1       1.111  -2.041  -1.205  0.00  0.00    -0.026 C 
ATOM      6  C   UNL     1       1.172  -2.642   0.181  0.00  0.00    +0.007 C 
ATOM      7  C   UNL     1      -0.204  -2.636   0.846  0.00  0.00    +0.005 C 
ATOM      8  C   UNL     1      -1.167  -3.451  -0.026  0.00  0.00    +0.001 C 
ATOM      9  C   UNL     1      -1.313  -2.768  -1.392  0.00  0.00    -0.001 C 
ATOM     10  C   UNL     1      -2.294  -3.545  -2.274  0.00  0.00    +0.038 C 
ATOM     11  C   UNL     1      -3.660  -3.611  -1.590  0.00  0.00    +0.147 C 
ATOM     12  C   UNL     1      -3.517  -4.322  -0.242  0.00  0.00    +0.100 C 
ATOM     13  C   UNL     1      -2.527  -3.527   0.672  0.00  0.00    +0.002 C 
ATOM     14  C   UNL     1      -3.063  -2.112   0.898  0.00  0.00    +0.012 C 
ATOM     15  C   UNL     1      -4.423  -2.187   1.596  0.00  0.00    +0.032 C 
ATOM     16  C   UNL     1      -5.403  -2.971   0.722  0.00  0.00    +0.117 C 
ATOM     17  C   UNL     1      -4.884  -4.396   0.441  0.00  0.00    +0.069 C 
ATOM     18  C   UNL     1      -2.370  -4.234   2.019  0.00  0.00    +0.014 C 
ATOM     19  C   UNL     1       2.482  -2.214  -1.861  0.00  0.00    +0.012 C 
ENDROOT
BRANCH   1  21
ATOM     20  C   UNL     1      -0.620   1.213  -0.068  0.00  0.00    +0.008 C 
ATOM     21  C   UNL     1      -0.125  -0.232   0.025  0.00  0.00    -0.010 C 
BRANCH  21  22
ATOM     22  C   UNL     1       0.691  -0.410   1.307  0.00  0.00    +0.003 C 
BRANCH  22  23
ATOM     23  C   UNL     1      -0.096   0.150   2.494  0.00  0.00    +0.001 C 
BRANCH  23  24
ATOM     24  C   UNL     1       0.658  -0.148   3.792  0.00  0.00    +0.003 C 
BRANCH  24  25
ATOM     25  C   UNL     1      -0.129   0.411   4.979  0.00  0.00    -0.017 C 
ATOM     26  C   UNL     1      -1.461  -0.332   5.104  0.00  0.00    +0.007 C 
ATOM     27  C   UNL     1       0.682   0.224   6.262  0.00  0.00    +0.007 C 
ENDBRANCH  24  25
ENDBRANCH  23  24
ENDBRANCH  22  23
ENDBRANCH  21  22
ENDBRANCH   1  21
BRANCH  16  28
ATOM     28  O   UNL     1      -6.673  -3.041   1.375  0.00  0.00    -0.392 OA
ATOM     29  H   UNL     1      -7.073  -2.179   1.550  0.00  0.00    +0.210 HD
ENDBRANCH  16  28
BRANCH  12  30
ATOM     30  O   UNL     1      -3.015  -5.644  -0.449  0.00  0.00    -0.385 OA
ATOM     31  H   UNL     1      -3.581  -6.197  -1.004  0.00  0.00    +0.210 HD
ENDBRANCH  12  30
BRANCH  11  32
ATOM     32  O   UNL     1      -4.154  -2.287  -1.382  0.00  0.00    -0.389 OA
ATOM     33  H   UNL     1      -4.267  -1.777  -2.196  0.00  0.00    +0.210 HD
ENDBRANCH  11  32
TORSDOF 8
