REMARK  Name = ZINC11691757
REMARK  7 active torsions:
REMARK  status: ('A' for Active; 'I' for Inactive)
REMARK    1  A    between atoms: C_1  and  C_2
REMARK    2  A    between atoms: C_2  and  O_3
REMARK    3  A    between atoms: O_3  and  C_4
REMARK    4  A    between atoms: C_4  and  C_6
REMARK    5  A    between atoms: C_8  and  C_20
REMARK    6  A    between atoms: C_14  and  C_15
REMARK    7  A    between atoms: C_14  and  O_19
REMARK                            x       y       z     vdW  Elec       q    Type
REMARK                         _______ _______ _______ _____ _____    ______ ____
ROOT
ATOM      1  C   UNL     1       4.033   2.560  -1.463  0.00  0.00    +0.181 C 
ATOM      2  C   UNL     1       3.719   1.060  -1.480  0.00  0.00    +0.121 C 
ATOM      3  N   UNL     1       2.551   0.805  -0.635  0.00  0.00    -0.319 N 
ATOM      4  C   UNL     1       2.268   1.585   0.418  0.00  0.00    +0.133 C 
ATOM      5  S   UNL     1       0.893   1.215   1.369  0.00  0.00    -0.019 S 
ATOM      6  N   UNL     1       3.018   2.643   0.756  0.00  0.00    -0.291 N 
ATOM      7  C   UNL     1       4.213   3.005  -0.008  0.00  0.00    +0.244 C 
ATOM      8  H   UNL     1       1.970   0.056  -0.842  0.00  0.00    +0.148 HD
ATOM      9  H   UNL     1       2.764   3.181   1.523  0.00  0.00    +0.151 HD
ENDROOT
BRANCH   2  10
ATOM     10  C   UNL     1       3.426   0.623  -2.892  0.00  0.00    -0.026 A 
ATOM     11  C   UNL     1       2.176   0.847  -3.439  0.00  0.00    +0.006 A 
ATOM     12  C   UNL     1       1.907   0.447  -4.734  0.00  0.00    +0.015 A 
ATOM     13  C   UNL     1       2.888  -0.179  -5.483  0.00  0.00    +0.018 A 
ATOM     14  C   UNL     1       4.138  -0.404  -4.934  0.00  0.00    +0.015 A 
ATOM     15  C   UNL     1       4.406  -0.003  -3.639  0.00  0.00    +0.006 A 
ATOM     16 BR   UNL     1       2.519  -0.728  -7.254  0.00  0.00    -0.050 Br
ENDBRANCH   2  10
BRANCH   7  17
ATOM     17  C   UNL     1       5.435   2.306   0.592  0.00  0.00    +0.436 C 
ATOM     18  F   UNL     1       6.575   2.647  -0.144  0.00  0.00    -0.166 F 
ATOM     19  F   UNL     1       5.599   2.713   1.921  0.00  0.00    -0.166 F 
ATOM     20  F   UNL     1       5.248   0.920   0.548  0.00  0.00    -0.166 F 
ENDBRANCH   7  17
BRANCH   1  21
ATOM     21  C   UNL     1       2.893   3.322  -2.088  0.00  0.00    +0.317 C 
ATOM     22  O   UNL     1       1.930   3.622  -1.422  0.00  0.00    -0.250 OA
BRANCH  21  23
ATOM     23  O   UNL     1       2.946   3.669  -3.383  0.00  0.00    -0.465 OA
BRANCH  23  25
ATOM     24  C   UNL     1       2.053   4.706  -5.397  0.00  0.00    +0.048 C 
ATOM     25  C   UNL     1       1.813   4.402  -3.917  0.00  0.00    +0.229 C 
ENDBRANCH  23  25
ENDBRANCH  21  23
ENDBRANCH   1  21
BRANCH   7  26
ATOM     26  O   UNL     1       4.400   4.421   0.039  0.00  0.00    -0.364 OA
ATOM     27  H   UNL     1       4.521   4.772   0.932  0.00  0.00    +0.212 HD
ENDBRANCH   7  26
TORSDOF 6
