REMARK  Name = ZINC13132085
REMARK  6 active torsions:
REMARK  status: ('A' for Active; 'I' for Inactive)
REMARK    1  A    between atoms: C_1  and  C_2
REMARK    2  A    between atoms: C_4  and  C_17
REMARK    3  A    between atoms: C_5  and  C_16
REMARK    4  A    between atoms: N_6  and  C_7
REMARK    5  A    between atoms: C_23  and  C_25
REMARK    6  A    between atoms: C_25  and  C_26
REMARK                            x       y       z     vdW  Elec       q    Type
REMARK                         _______ _______ _______ _____ _____    ______ ____
ROOT
ATOM      1  C   UNL     1       5.105  -1.069  -0.044  0.00  0.00    +0.064 C 
ATOM      2  C   UNL     1       4.215   0.148  -0.033  0.00  0.00    +0.022 A 
ATOM      3  C   UNL     1       2.869   0.138  -0.016  0.00  0.00    +0.033 A 
ATOM      4  C   UNL     1       2.435   1.488  -0.012  0.00  0.00    +0.022 A 
ATOM      5  C   UNL     1       3.549   2.268  -0.018  0.00  0.00    +0.030 A 
ATOM      6  N   UNL     1       4.640   1.446  -0.031  0.00  0.00    -0.317 N 
ATOM      7  C   UNL     1       3.576   3.774  -0.012  0.00  0.00    +0.064 C 
ENDROOT
BRANCH   6   8
ATOM      8  C   UNL     1       5.978   1.867  -0.040  0.00  0.00    +0.050 A 
ATOM      9  C   UNL     1       6.497   2.555   1.048  0.00  0.00    +0.030 A 
ATOM     10  C   UNL     1       7.814   2.970   1.041  0.00  0.00    +0.051 A 
ATOM     11  C   UNL     1       8.622   2.700  -0.052  0.00  0.00    +0.166 A 
ATOM     12  C   UNL     1       8.104   2.010  -1.146  0.00  0.00    +0.168 A 
ATOM     13  C   UNL     1       6.785   1.590  -1.135  0.00  0.00    +0.075 A 
ATOM     14  O   UNL     1       9.089   1.873  -2.081  0.00  0.00    -0.453 OA
ATOM     15  C   UNL     1      10.095   2.840  -1.726  0.00  0.00    +0.466 C 
ATOM     16  O   UNL     1       9.932   2.996  -0.304  0.00  0.00    -0.453 OA
ENDBRANCH   6   8
BRANCH   4  17
ATOM     17  C   UNL     1       1.028   1.962   0.003  0.00  0.00    +0.082 A 
ATOM     18  C   UNL     1      -0.013   1.076   0.008  0.00  0.00    +0.077 A 
ATOM     19  S   UNL     1      -1.404   2.197   0.019  0.00  0.00    -0.060 S 
ATOM     20  C   UNL     1      -0.503   3.681   0.025  0.00  0.00    +0.165 A 
ATOM     21  N   UNL     1       0.743   3.256   0.012  0.00  0.00    -0.225 NA
ATOM     22  N   UNL     1      -0.978   4.987   0.036  0.00  0.00    -0.264 N 
ATOM     23  C   UNL     1      -2.305   5.222   0.049  0.00  0.00    +0.223 C 
ATOM     24  O   UNL     1      -3.085   4.293   0.052  0.00  0.00    -0.275 OA
ATOM     25  H   UNL     1      -0.354   5.730   0.034  0.00  0.00    +0.157 HD
BRANCH  23  26
ATOM     26  C   UNL     1      -2.820   6.638   0.061  0.00  0.00    +0.131 C 
BRANCH  26  27
ATOM     27  C   UNL     1      -4.326   6.625   0.075  0.00  0.00    -0.032 A 
ATOM     28  C   UNL     1      -5.039   6.630  -1.110  0.00  0.00    +0.011 A 
ATOM     29  C   UNL     1      -6.393   6.612  -1.063  0.00  0.00    +0.045 A 
ATOM     30  S   UNL     1      -6.701   6.602   0.696  0.00  0.00    -0.105 S 
ATOM     31  C   UNL     1      -5.003   6.614   1.249  0.00  0.00    +0.049 A 
ENDBRANCH  26  27
ENDBRANCH  23  26
ENDBRANCH   4  17
TORSDOF 4
