REMARK  Name = ZINC19855618
REMARK  7 active torsions:
REMARK  status: ('A' for Active; 'I' for Inactive)
REMARK    1  A    between atoms: C_1  and  C_2
REMARK    2  A    between atoms: C_5  and  S_11
REMARK    3  A    between atoms: C_7  and  N_8
REMARK    4  A    between atoms: S_11  and  N_14
REMARK    5  A    between atoms: N_17  and  C_20
REMARK    6  A    between atoms: C_20  and  C_21
REMARK    7  A    between atoms: C_21  and  N_22
REMARK                            x       y       z     vdW  Elec       q    Type
REMARK                         _______ _______ _______ _____ _____    ______ ____
ROOT
ATOM      1  N   UNL     1      -0.922   1.503  -1.259  0.00  0.00    -0.174 NA
ATOM      2  C   UNL     1      -1.752   0.373  -1.701  0.00  0.00    +0.125 C 
ATOM      3  C   UNL     1      -3.195   0.875  -1.877  0.00  0.00    +0.101 C 
ATOM      4  N   UNL     1      -3.197   2.036  -2.777  0.00  0.00    -0.298 NA
ATOM      5  C   UNL     1      -2.444   3.158  -2.200  0.00  0.00    +0.101 C 
ATOM      6  C   UNL     1      -0.976   2.752  -2.034  0.00  0.00    +0.125 C 
ENDROOT
BRANCH   1   7
ATOM      7  S   UNL     1       0.054   1.371   0.073  0.00  0.00    +0.061 S 
ATOM      8  O   UNL     1       0.319  -0.014   0.246  0.00  0.00    -0.153 OA
ATOM      9  O   UNL     1       1.090   2.331  -0.086  0.00  0.00    -0.153 OA
BRANCH   7  14
ATOM     10  C   UNL     1      -3.197   3.114   4.847  0.00  0.00    +0.046 C 
ATOM     11  C   UNL     1      -2.385   2.679   3.655  0.00  0.00    -0.020 A 
ATOM     12  C   UNL     1      -1.642   3.606   2.949  0.00  0.00    +0.007 A 
ATOM     13  C   UNL     1      -0.893   3.206   1.858  0.00  0.00    +0.029 A 
ATOM     14  C   UNL     1      -0.895   1.880   1.467  0.00  0.00    +0.108 A 
ATOM     15  C   UNL     1      -1.638   0.953   2.173  0.00  0.00    +0.061 A 
ATOM     16  C   UNL     1      -2.383   1.352   3.268  0.00  0.00    +0.131 A 
BRANCH  16  17
ATOM     17  N   UNL     1      -3.178   0.359   4.024  0.00  0.00    +0.057 N 
ATOM     18  O   UNL     1      -3.271  -0.785   3.616  0.00  0.00    -0.126 OA
ATOM     19  O   UNL     1      -3.740   0.685   5.054  0.00  0.00    -0.126 OA
ENDBRANCH  16  17
ENDBRANCH   7  14
ENDBRANCH   1   7
BRANCH   4  20
ATOM     20  C   UNL     1      -4.569   2.440  -3.112  0.00  0.00    +0.104 C 
BRANCH  20  21
ATOM     21  C   UNL     1      -5.391   1.201  -3.472  0.00  0.00    +0.132 C 
BRANCH  21  22
ATOM     22  N   UNL     1      -6.760   1.603  -3.806  0.00  0.00    -0.233 N 
ATOM     23  C   UNL     1      -7.679   1.654  -2.824  0.00  0.00    +0.254 C 
ATOM     24  O   UNL     1      -7.363   1.368  -1.685  0.00  0.00    -0.270 OA
ATOM     25  C   UNL     1      -9.062   2.058  -3.119  0.00  0.00    +0.046 A 
ATOM     26  C   UNL     1     -10.039   2.128  -2.137  0.00  0.00    +0.014 A 
ATOM     27  C   UNL     1     -11.334   2.510  -2.467  0.00  0.00    +0.001 A 
ATOM     28  C   UNL     1     -11.682   2.825  -3.749  0.00  0.00    +0.008 A 
ATOM     29  C   UNL     1     -10.722   2.767  -4.774  0.00  0.00    -0.016 A 
ATOM     30  C   UNL     1      -9.404   2.380  -4.452  0.00  0.00    +0.006 A 
ATOM     31  C   UNL     1      -8.415   2.310  -5.460  0.00  0.00    +0.046 A 
ATOM     32  C   UNL     1      -8.761   2.628  -6.765  0.00  0.00    +0.014 A 
ATOM     33  C   UNL     1     -10.063   3.008  -7.070  0.00  0.00    +0.001 A 
ATOM     34  C   UNL     1     -11.031   3.080  -6.109  0.00  0.00    +0.008 A 
ATOM     35  C   UNL     1      -7.053   1.903  -5.086  0.00  0.00    +0.254 C 
ATOM     36  O   UNL     1      -6.187   1.836  -5.937  0.00  0.00    -0.270 OA
ENDBRANCH  21  22
ENDBRANCH  20  21
ENDBRANCH   4  20
TORSDOF 6
