REMARK  Name = ZINC39639832
REMARK  8 active torsions:
REMARK  status: ('A' for Active; 'I' for Inactive)
REMARK    1  A    between atoms: C_1  and  C_2
REMARK    2  A    between atoms: C_3  and  C_38
REMARK    3  A    between atoms: C_11  and  C_13
REMARK    4  A    between atoms: C_13  and  C_15
REMARK    5  A    between atoms: C_13  and  O_16
REMARK    6  A    between atoms: O_16  and  C_17
REMARK    7  A    between atoms: C_17  and  C_19
REMARK    8  A    between atoms: C_25  and  C_27
REMARK                            x       y       z     vdW  Elec       q    Type
REMARK                         _______ _______ _______ _____ _____    ______ ____
ROOT
ATOM      1  C   UNL     1      -0.410  -4.881   7.347  0.00  0.00    +0.312 C 
ATOM      2  O   UNL     1       0.133  -4.945   8.425  0.00  0.00    -0.250 OA
ENDROOT
BRANCH   1   3
ATOM      3  C   UNL     1      -1.842  -4.421   7.252  0.00  0.00    +0.110 C 
ATOM      4  C   UNL     1      -2.694  -5.529   6.630  0.00  0.00    +0.015 C 
ATOM      5  C   UNL     1      -4.147  -5.062   6.533  0.00  0.00    +0.001 C 
ATOM      6  C   UNL     1      -4.674  -4.740   7.933  0.00  0.00    +0.001 C 
ATOM      7  C   UNL     1      -3.822  -3.632   8.556  0.00  0.00    +0.013 C 
ATOM      8  C   UNL     1      -2.368  -4.099   8.652  0.00  0.00    +0.089 C 
BRANCH   8   9
ATOM      9  C   UNL     1      -1.530  -3.007   9.266  0.00  0.00    +0.224 C 
ATOM     10  O   UNL     1      -1.070  -2.130   8.566  0.00  0.00    -0.275 OA
ATOM     11  N   UNL     1      -1.290  -3.007  10.592  0.00  0.00    -0.271 N 
ATOM     12  C   UNL     1      -1.694  -4.067  11.519  0.00  0.00    +0.118 C 
ATOM     13  C   UNL     1      -1.196  -3.607  12.899  0.00  0.00    +0.056 C 
ATOM     14  C   UNL     1      -0.527  -2.276  12.639  0.00  0.00    -0.024 A 
ATOM     15  C   UNL     1      -0.614  -1.997  11.284  0.00  0.00    +0.039 A 
ATOM     16  C   UNL     1      -0.056  -0.813  10.799  0.00  0.00    +0.024 A 
ATOM     17  C   UNL     1       0.576   0.061  11.658  0.00  0.00    +0.002 A 
ATOM     18  C   UNL     1       0.661  -0.229  13.007  0.00  0.00    +0.000 A 
ATOM     19  C   UNL     1       0.103  -1.396  13.496  0.00  0.00    +0.005 A 
ENDBRANCH   8   9
ENDBRANCH   1   3
BRANCH   1  20
ATOM     20  O   UNL     1       0.261  -5.220   6.236  0.00  0.00    -0.454 OA
BRANCH  20  21
ATOM     21  C   UNL     1       1.615  -5.647   6.400  0.00  0.00    +0.239 C 
ATOM     22  C   UNL     1       1.650  -7.163   6.603  0.00  0.00    +0.060 C 
BRANCH  21  33
ATOM     23  C   UNL     1       5.116  -3.145   1.259  0.00  0.00    +0.045 C 
ATOM     24  C   UNL     1       4.606  -4.494   1.694  0.00  0.00    -0.026 A 
ATOM     25  C   UNL     1       4.848  -5.585   0.949  0.00  0.00    -0.008 A 
ATOM     26  S   UNL     1       4.060  -6.895   1.866  0.00  0.00    -0.073 S 
ATOM     27  C   UNL     1       3.429  -5.940   3.222  0.00  0.00    +0.116 A 
ATOM     28  C   UNL     1       3.854  -4.632   2.927  0.00  0.00    +0.075 A 
ATOM     29  C   UNL     1       3.479  -3.630   3.880  0.00  0.00    +0.260 A 
ATOM     30  O   UNL     1       3.796  -2.465   3.711  0.00  0.00    -0.267 OA
ATOM     31  N   UNL     1       2.771  -3.994   4.965  0.00  0.00    -0.307 N 
ATOM     32  H   UNL     1       2.514  -3.320   5.614  0.00  0.00    +0.170 HD
ATOM     33  C   UNL     1       2.408  -5.287   5.170  0.00  0.00    +0.152 A 
ATOM     34  N   UNL     1       2.726  -6.222   4.316  0.00  0.00    -0.223 NA
ATOM     35  C   UNL     1       5.604  -5.678  -0.351  0.00  0.00    +0.052 C 
ENDBRANCH  21  33
ENDBRANCH  20  21
ENDBRANCH   1  20
TORSDOF 5
