REMARK  Name = ZINC12553778
REMARK  7 active torsions:
REMARK  status: ('A' for Active; 'I' for Inactive)
REMARK    1  A    between atoms: C_1  and  C_2
REMARK    2  A    between atoms: C_7  and  C_8
REMARK    3  A    between atoms: C_8  and  C_10
REMARK    4  A    between atoms: C_8  and  N_11
REMARK    5  A    between atoms: C_12  and  C_14
REMARK    6  A    between atoms: N_17  and  C_20
REMARK    7  A    between atoms: C_25  and  N_26
REMARK                            x       y       z     vdW  Elec       q    Type
REMARK                         _______ _______ _______ _____ _____    ______ ____
ROOT
ATOM      1  C   UNL     1      -1.450   5.760   1.798  0.00  0.00    +0.078 C 
ATOM      2  C   UNL     1      -2.541   5.811   0.725  0.00  0.00    +0.031 C 
ATOM      3  C   UNL     1      -3.830   6.358   1.342  0.00  0.00    +0.106 C 
ATOM      4  N   UNL     1      -3.585   7.702   1.880  0.00  0.00    -0.328 N 
ATOM      5  C   UNL     1      -2.574   7.671   2.945  0.00  0.00    +0.106 C 
ATOM      6  C   UNL     1      -1.247   7.163   2.376  0.00  0.00    +0.031 C 
ENDROOT
BRANCH   4   7
ATOM      7  C   UNL     1      -4.771   8.284   2.333  0.00  0.00    +0.060 A 
ATOM      8  C   UNL     1      -5.463   7.718   3.397  0.00  0.00    +0.025 A 
ATOM      9  C   UNL     1      -6.632   8.300   3.846  0.00  0.00    +0.002 A 
ATOM     10  C   UNL     1      -7.121   9.437   3.230  0.00  0.00    +0.002 A 
ATOM     11  C   UNL     1      -6.439  10.000   2.167  0.00  0.00    +0.034 A 
ATOM     12  C   UNL     1      -5.265   9.427   1.717  0.00  0.00    +0.147 A 
BRANCH  12  13
ATOM     13  N   UNL     1      -4.535  10.029   0.579  0.00  0.00    +0.058 N 
ATOM     14  O   UNL     1      -4.969  11.031   0.039  0.00  0.00    -0.126 OA
ATOM     15  O   UNL     1      -3.501   9.523   0.182  0.00  0.00    -0.126 OA
ENDBRANCH  12  13
ENDBRANCH   4   7
BRANCH   1  17
ATOM     16  N   UNL     1      -0.102   4.060   0.609  0.00  0.00    -0.309 N 
ATOM     17  C   UNL     1      -0.161   5.279   1.182  0.00  0.00    +0.217 C 
ATOM     18  O   UNL     1       0.823   5.987   1.203  0.00  0.00    -0.275 OA
ATOM     19  H   UNL     1      -0.889   3.494   0.592  0.00  0.00    +0.149 HD
BRANCH  16  20
ATOM     20  C   UNL     1       1.151   3.592   0.010  0.00  0.00    +0.100 C 
ATOM     21  C   UNL     1       1.256   4.112  -1.425  0.00  0.00    +0.033 C 
BRANCH  20  28
ATOM     22  C   UNL     1       3.672   2.182  -0.022  0.00  0.00    +0.044 C 
ATOM     23  C   UNL     1       2.377   1.411  -0.014  0.00  0.00    -0.046 A 
ATOM     24  C   UNL     1       2.396   0.028  -0.021  0.00  0.00    +0.004 A 
ATOM     25  C   UNL     1       1.209  -0.679  -0.014  0.00  0.00    +0.000 A 
ATOM     26  C   UNL     1       0.002  -0.004   0.002  0.00  0.00    +0.000 A 
ATOM     27  C   UNL     1      -0.017   1.378   0.010  0.00  0.00    +0.006 A 
ATOM     28  C   UNL     1       1.171   2.085   0.002  0.00  0.00    -0.025 A 
ENDBRANCH  20  28
ENDBRANCH  16  20
ENDBRANCH   1  17
TORSDOF 5
