REMARK  Name = ZINC40036160
REMARK  11 active torsions:
REMARK  status: ('A' for Active; 'I' for Inactive)
REMARK    1  A    between atoms: C_1  and  C_2
REMARK    2  A    between atoms: C_2  and  C_3
REMARK    3  A    between atoms: C_3  and  C_4
REMARK    4  A    between atoms: C_4  and  C_38
REMARK    5  A    between atoms: N_16  and  C_31
REMARK    6  A    between atoms: N_19  and  N_20
REMARK    7  A    between atoms: C_21  and  C_22
REMARK    8  A    between atoms: C_25  and  N_28
REMARK    9  A    between atoms: N_28  and  C_29
REMARK   10  A    between atoms: N_28  and  C_30
REMARK   11  A    between atoms: C_34  and  C_37
REMARK                            x       y       z     vdW  Elec       q    Type
REMARK                         _______ _______ _______ _____ _____    ______ ____
ROOT
ATOM      1  C   UNL     1       0.079  -1.267   1.324  0.00  0.00    +0.004 C 
ATOM      2  C   UNL     1       1.206  -1.308   2.353  0.00  0.00    +0.047 C 
ATOM      3  C   UNL     1       0.651  -1.523   3.735  0.00  0.00    -0.037 A 
ATOM      4  C   UNL     1       1.239  -0.916   4.826  0.00  0.00    +0.004 A 
ATOM      5  C   UNL     1       0.725  -1.122   6.094  0.00  0.00    +0.000 A 
ATOM      6  C   UNL     1      -0.379  -1.936   6.279  0.00  0.00    +0.001 A 
ATOM      7  C   UNL     1      -0.976  -2.549   5.196  0.00  0.00    +0.010 A 
ATOM      8  C   UNL     1      -0.464  -2.342   3.918  0.00  0.00    +0.004 A 
ATOM      9  C   UNL     1      -1.089  -2.977   2.736  0.00  0.00    +0.084 A 
ATOM     10  C   UNL     1      -0.823  -2.459   1.477  0.00  0.00    +0.050 A 
ATOM     11  C   UNL     1      -1.409  -3.065   0.359  0.00  0.00    +0.264 A 
ATOM     12  O   UNL     1      -1.195  -2.639  -0.764  0.00  0.00    -0.267 OA
ATOM     13  N   UNL     1      -2.214  -4.133   0.550  0.00  0.00    -0.248 N 
ATOM     14  C   UNL     1      -2.448  -4.599   1.811  0.00  0.00    +0.223 A 
ATOM     15  N   UNL     1      -1.899  -4.033   2.866  0.00  0.00    -0.214 NA
ATOM     16  N   UNL     1      -3.273  -5.680   1.983  0.00  0.00    -0.206 N 
ATOM     17  C   UNL     1       0.681  -1.268  -0.083  0.00  0.00    +0.017 C 
ATOM     18  H   UNL     1      -3.662  -6.121   1.211  0.00  0.00    +0.177 HD
ENDROOT
BRANCH  13  19
ATOM     19  C   UNL     1      -2.811  -4.762  -0.549  0.00  0.00    +0.053 A 
ATOM     20  C   UNL     1      -4.054  -4.340  -1.002  0.00  0.00    +0.026 A 
ATOM     21  C   UNL     1      -4.640  -4.963  -2.086  0.00  0.00    +0.005 A 
ATOM     22  C   UNL     1      -3.990  -6.005  -2.721  0.00  0.00    -0.050 A 
ATOM     23  C   UNL     1      -2.752  -6.427  -2.273  0.00  0.00    +0.005 A 
ATOM     24  C   UNL     1      -2.159  -5.806  -1.192  0.00  0.00    +0.026 A 
ATOM     25  C   UNL     1      -4.633  -6.682  -3.905  0.00  0.00    +0.044 C 
ENDBRANCH  13  19
BRANCH  16  26
ATOM     26  N   UNL     1      -3.554  -6.148   3.273  0.00  0.00    -0.188 NA
ATOM     27  C   UNL     1      -4.336  -7.172   3.436  0.00  0.00    +0.138 C 
BRANCH  27  28
ATOM     28  C   UNL     1      -4.632  -7.665   4.793  0.00  0.00    -0.005 A 
ATOM     29  C   UNL     1      -4.077  -7.027   5.906  0.00  0.00    +0.011 A 
ATOM     30  C   UNL     1      -4.355  -7.490   7.173  0.00  0.00    +0.024 A 
ATOM     31  C   UNL     1      -5.188  -8.591   7.345  0.00  0.00    +0.029 A 
ATOM     32  C   UNL     1      -5.742  -9.228   6.240  0.00  0.00    +0.024 A 
ATOM     33  C   UNL     1      -5.473  -8.767   4.970  0.00  0.00    +0.011 A 
BRANCH  31  34
ATOM     34  N   UNL     1      -5.467  -9.058   8.630  0.00  0.00    -0.336 N 
ATOM     35  C   UNL     1      -4.885  -8.389   9.796  0.00  0.00    +0.129 C 
ATOM     36  C   UNL     1      -6.344 -10.217   8.813  0.00  0.00    +0.129 C 
ENDBRANCH  31  34
ENDBRANCH  27  28
ENDBRANCH  16  26
BRANCH   1  37
ATOM     37  C   UNL     1      -0.737   0.012   1.521  0.00  0.00    +0.011 C 
BRANCH  37  39
ATOM     38  C   UNL     1      -2.667   1.352   0.671  0.00  0.00    +0.004 C 
ATOM     39  C   UNL     1      -1.851   0.073   0.474  0.00  0.00    -0.003 C 
ENDBRANCH  37  39
ENDBRANCH   1  37
TORSDOF 6
