REMARK  Name = ZINC12526651
REMARK  12 active torsions:
REMARK  status: ('A' for Active; 'I' for Inactive)
REMARK    1  A    between atoms: C_1  and  C_2
REMARK    2  A    between atoms: C_4  and  C_14
REMARK    3  A    between atoms: C_5  and  C_13
REMARK    4  A    between atoms: N_6  and  C_7
REMARK    5  A    between atoms: C_14  and  O_16
REMARK    6  A    between atoms: O_16  and  C_17
REMARK    7  A    between atoms: C_17  and  C_18
REMARK    8  A    between atoms: N_20  and  C_21
REMARK    9  A    between atoms: N_20  and  C_22
REMARK   10  A    between atoms: C_23  and  N_38
REMARK   11  A    between atoms: N_24  and  C_31
REMARK   12  A    between atoms: C_31  and  C_32
REMARK                            x       y       z     vdW  Elec       q    Type
REMARK                         _______ _______ _______ _____ _____    ______ ____
ROOT
ATOM      1  C   UNL     1      -0.035  -4.143  -5.083  0.00  0.00    +0.257 C 
ATOM      2  O   UNL     1      -0.057  -3.008  -5.514  0.00  0.00    -0.272 OA
ATOM      3  N   UNL     1       0.003  -5.188  -5.936  0.00  0.00    -0.265 N 
ATOM      4  C   UNL     1       0.130  -6.552  -5.418  0.00  0.00    +0.138 C 
ENDROOT
BRANCH   3   5
ATOM      5  C   UNL     1      -0.081  -4.966  -7.327  0.00  0.00    +0.139 A 
ATOM      6  C   UNL     1       0.931  -4.307  -7.995  0.00  0.00    +0.128 A 
ATOM      7  N   UNL     1       0.821  -4.107  -9.351  0.00  0.00    -0.276 N 
ATOM      8  C   UNL     1      -0.260  -4.548 -10.019  0.00  0.00    +0.331 A 
ATOM      9  O   UNL     1      -0.338  -4.361 -11.218  0.00  0.00    -0.246 OA
ATOM     10  N   UNL     1      -1.256  -5.193  -9.385  0.00  0.00    -0.273 N 
ATOM     11  H   UNL     1      -2.024  -5.501  -9.890  0.00  0.00    +0.173 HD
ATOM     12  C   UNL     1      -1.195  -5.419  -8.059  0.00  0.00    +0.277 A 
ATOM     13  O   UNL     1      -2.101  -6.008  -7.494  0.00  0.00    -0.266 OA
BRANCH   6  14
ATOM     14  N   UNL     1       2.035  -3.856  -7.313  0.00  0.00    -0.343 N 
ATOM     15  H   UNL     1       2.078  -3.943  -6.348  0.00  0.00    +0.144 HD
ATOM     16  H   UNL     1       2.772  -3.450  -7.796  0.00  0.00    +0.144 HD
ENDBRANCH   6  14
BRANCH   7  17
ATOM     17  C   UNL     1       1.888  -3.408 -10.073  0.00  0.00    +0.163 C 
BRANCH  17  18
ATOM     18  C   UNL     1       2.906  -4.408 -10.556  0.00  0.00    -0.028 A 
ATOM     19  C   UNL     1       3.979  -4.745  -9.753  0.00  0.00    +0.005 A 
ATOM     20  C   UNL     1       4.913  -5.663 -10.196  0.00  0.00    +0.000 A 
ATOM     21  C   UNL     1       4.774  -6.244 -11.443  0.00  0.00    +0.000 A 
ATOM     22  C   UNL     1       3.700  -5.908 -12.246  0.00  0.00    +0.000 A 
ATOM     23  C   UNL     1       2.764  -4.993 -11.801  0.00  0.00    +0.005 A 
ENDBRANCH  17  18
ENDBRANCH   7  17
ENDBRANCH   3   5
BRANCH   1  24
ATOM     24  C   UNL     1      -0.051  -4.384  -3.596  0.00  0.00    +0.328 C 
BRANCH  24  25
ATOM     25  O   UNL     1      -0.091  -3.131  -2.910  0.00  0.00    -0.452 OA
BRANCH  25  26
ATOM     26  C   UNL     1      -0.110  -3.171  -1.563  0.00  0.00    +0.341 C 
ATOM     27  O   UNL     1      -0.092  -4.241  -0.986  0.00  0.00    -0.245 OA
BRANCH  26  31
ATOM     28  C   UNL     1      -0.250   1.775  -0.322  0.00  0.00    +0.064 C 
ATOM     29  C   UNL     1      -0.214   0.270  -0.262  0.00  0.00    +0.022 A 
ATOM     30  C   UNL     1      -0.178  -0.553  -1.324  0.00  0.00    +0.038 A 
ATOM     31  C   UNL     1      -0.152  -1.920  -0.791  0.00  0.00    +0.080 A 
ATOM     32  C   UNL     1      -0.175  -1.793   0.582  0.00  0.00    +0.035 A 
ATOM     33  N   UNL     1      -0.206  -0.478   0.882  0.00  0.00    -0.317 N 
ATOM     34  C   UNL     1      -0.162  -2.926   1.575  0.00  0.00    +0.065 C 
BRANCH  33  35
ATOM     35  C   UNL     1      -0.230   0.046   2.182  0.00  0.00    +0.047 A 
ATOM     36  C   UNL     1       0.859  -0.133   3.025  0.00  0.00    +0.026 A 
ATOM     37  C   UNL     1       0.832   0.385   4.305  0.00  0.00    +0.002 A 
ATOM     38  C   UNL     1      -0.278   1.081   4.748  0.00  0.00    +0.000 A 
ATOM     39  C   UNL     1      -1.364   1.260   3.911  0.00  0.00    +0.002 A 
ATOM     40  C   UNL     1      -1.341   0.750   2.627  0.00  0.00    +0.026 A 
ENDBRANCH  33  35
ENDBRANCH  26  31
ENDBRANCH  25  26
ENDBRANCH  24  25
ENDBRANCH   1  24
TORSDOF 9
