REMARK  Name = ZINC12706860
REMARK  8 active torsions:
REMARK  status: ('A' for Active; 'I' for Inactive)
REMARK    1  A    between atoms: C_1  and  C_2
REMARK    2  A    between atoms: C_2  and  C_3
REMARK    3  A    between atoms: C_10  and  C_15
REMARK    4  A    between atoms: C_15  and  N_16
REMARK    5  A    between atoms: N_16  and  C_17
REMARK    6  A    between atoms: C_17  and  C_18
REMARK    7  A    between atoms: C_21  and  C_24
REMARK    8  A    between atoms: N_27  and  C_28
REMARK                            x       y       z     vdW  Elec       q    Type
REMARK                         _______ _______ _______ _____ _____    ______ ____
ROOT
ATOM      1  N   UNL     1       1.173   2.078   0.198  0.00  0.00    -0.277 N 
ATOM      2  C   UNL     1       1.769   2.534  -0.922  0.00  0.00    +0.307 C 
ATOM      3  O   UNL     1       1.149   2.574  -1.968  0.00  0.00    -0.252 OA
ATOM      4  N   UNL     1       3.052   2.944  -0.884  0.00  0.00    -0.269 N 
ATOM      5  H   UNL     1       3.523   2.985  -0.037  0.00  0.00    +0.156 HD
ENDROOT
BRANCH   4   6
ATOM      6  C   UNL     1       3.705   3.313  -2.066  0.00  0.00    +0.035 A 
ATOM      7  C   UNL     1       4.659   4.322  -2.049  0.00  0.00    +0.025 A 
ATOM      8  C   UNL     1       5.305   4.680  -3.215  0.00  0.00    +0.022 A 
ATOM      9  C   UNL     1       4.996   4.041  -4.403  0.00  0.00    +0.041 A 
ATOM     10  C   UNL     1       4.042   3.039  -4.424  0.00  0.00    +0.022 A 
ATOM     11  C   UNL     1       3.397   2.673  -3.259  0.00  0.00    +0.025 A 
ATOM     12 CL   UNL     1       5.806   4.497  -5.869  0.00  0.00    -0.084 Cl
ENDBRANCH   4   6
BRANCH   1  13
ATOM     13  C   UNL     1      -0.221   1.631   0.155  0.00  0.00    +0.150 C 
BRANCH  13  21
ATOM     14  C   UNL     1      -3.899   6.335  -1.466  0.00  0.00    -0.047 A 
ATOM     15  C   UNL     1      -4.190   6.758  -0.176  0.00  0.00    +0.005 A 
ATOM     16  C   UNL     1      -3.656   6.106   0.914  0.00  0.00    +0.026 A 
ATOM     17  C   UNL     1      -2.817   5.013   0.723  0.00  0.00    +0.049 A 
ATOM     18  C   UNL     1      -2.525   4.588  -0.587  0.00  0.00    -0.001 A 
ATOM     19  C   UNL     1      -3.078   5.265  -1.679  0.00  0.00    +0.013 A 
ATOM     20  C   UNL     1      -1.641   3.437  -0.778  0.00  0.00    +0.020 A 
ATOM     21  C   UNL     1      -1.134   2.819   0.318  0.00  0.00    +0.035 A 
ATOM     22  C   UNL     1      -1.464   3.282   1.610  0.00  0.00    +0.254 A 
ATOM     23  O   UNL     1      -1.001   2.710   2.581  0.00  0.00    -0.268 OA
ATOM     24  N   UNL     1      -2.270   4.342   1.795  0.00  0.00    -0.322 N 
ATOM     25  H   UNL     1      -2.473   4.636   2.697  0.00  0.00    +0.169 HD
BRANCH  14  27
ATOM     26  C   UNL     1      -5.837   6.430  -3.010  0.00  0.00    +0.009 C 
ATOM     27  C   UNL     1      -4.495   7.065  -2.643  0.00  0.00    +0.032 C 
ENDBRANCH  14  27
ENDBRANCH  13  21
ENDBRANCH   1  13
BRANCH   1  28
ATOM     28  C   UNL     1       1.921   2.030   1.457  0.00  0.00    +0.144 C 
BRANCH  28  29
ATOM     29  C   UNL     1       2.664   0.722   1.550  0.00  0.00    -0.030 A 
ATOM     30  C   UNL     1       2.022  -0.407   2.022  0.00  0.00    +0.005 A 
ATOM     31  C   UNL     1       2.703  -1.607   2.103  0.00  0.00    +0.003 A 
ATOM     32  C   UNL     1       4.029  -1.676   1.721  0.00  0.00    -0.050 A 
ATOM     33  C   UNL     1       4.673  -0.546   1.253  0.00  0.00    +0.003 A 
ATOM     34  C   UNL     1       3.991   0.653   1.168  0.00  0.00    +0.005 A 
ATOM     35  C   UNL     1       4.773  -2.983   1.814  0.00  0.00    +0.044 C 
ENDBRANCH  28  29
ENDBRANCH   1  28
TORSDOF 6
