REMARK  Name = ZINC38140496
REMARK  10 active torsions:
REMARK  status: ('A' for Active; 'I' for Inactive)
REMARK    1  A    between atoms: C_1  and  C_2
REMARK    2  A    between atoms: N_7  and  C_9
REMARK    3  A    between atoms: C_9  and  C_10
REMARK    4  A    between atoms: C_10  and  C_11
REMARK    5  A    between atoms: C_11  and  N_12
REMARK    6  A    between atoms: C_13  and  C_15
REMARK    7  A    between atoms: C_15  and  N_16
REMARK    8  A    between atoms: C_19  and  S_27
REMARK    9  A    between atoms: S_27  and  N_30
REMARK   10  A    between atoms: C_33  and  C_36
REMARK                            x       y       z     vdW  Elec       q    Type
REMARK                         _______ _______ _______ _____ _____    ______ ____
ROOT
ATOM      1  N   UNL     1       4.186  -8.587   5.470  0.00  0.00    -0.261 N 
ATOM      2  C   UNL     1       5.567  -8.663   5.311  0.00  0.00    +0.052 A 
ATOM      3  C   UNL     1       6.185  -7.898   4.328  0.00  0.00    +0.053 A 
ATOM      4  C   UNL     1       7.553  -7.965   4.153  0.00  0.00    +0.107 A 
ATOM      5  C   UNL     1       8.323  -8.790   4.952  0.00  0.00    +0.030 A 
ATOM      6  C   UNL     1       7.722  -9.555   5.936  0.00  0.00    +0.018 A 
ATOM      7  C   UNL     1       6.350  -9.490   6.117  0.00  0.00    +0.030 A 
ATOM      8  S   UNL     1       5.571 -10.452   7.375  0.00  0.00    -0.114 S 
ATOM      9  C   UNL     1       4.138  -9.428   7.824  0.00  0.00    +0.170 C 
ATOM     10  C   UNL     1       3.501  -8.904   6.566  0.00  0.00    +0.230 C 
ATOM     11  O   UNL     1       2.295  -8.768   6.547  0.00  0.00    -0.274 OA
ENDROOT
BRANCH   4  12
ATOM     12  S   UNL     1       8.324  -6.991   2.903  0.00  0.00    +0.061 S 
ATOM     13  O   UNL     1       9.546  -7.640   2.578  0.00  0.00    -0.153 OA
ATOM     14  O   UNL     1       7.326  -6.715   1.931  0.00  0.00    -0.153 OA
BRANCH  12  15
ATOM     15  N   UNL     1       8.728  -5.540   3.592  0.00  0.00    -0.177 NA
ATOM     16  C   UNL     1       7.781  -4.416   3.580  0.00  0.00    +0.110 C 
ATOM     17  C   UNL     1       8.477  -3.192   2.978  0.00  0.00    +0.020 C 
ATOM     18  C   UNL     1       9.771  -2.915   3.748  0.00  0.00    -0.012 C 
ATOM     19  C   UNL     1      10.710  -4.117   3.618  0.00  0.00    +0.020 C 
ATOM     20  C   UNL     1      10.037  -5.354   4.232  0.00  0.00    +0.110 C 
ATOM     21  C   UNL     1      10.451  -1.672   3.171  0.00  0.00    +0.007 C 
ENDBRANCH  12  15
ENDBRANCH   4  12
BRANCH   1  22
ATOM     22  C   UNL     1       3.413  -8.107   4.322  0.00  0.00    +0.209 C 
BRANCH  22  24
ATOM     23  N   UNL     1       2.604  -5.942   3.440  0.00  0.00    -0.314 N 
ATOM     24  C   UNL     1       3.280  -6.608   4.397  0.00  0.00    +0.231 C 
ATOM     25  O   UNL     1       3.782  -6.000   5.319  0.00  0.00    -0.274 OA
ATOM     26  H   UNL     1       2.203  -6.428   2.703  0.00  0.00    +0.149 HD
BRANCH  23  27
ATOM     27  C   UNL     1       2.475  -4.485   3.513  0.00  0.00    +0.102 C 
BRANCH  27  28
ATOM     28  C   UNL     1       1.668  -3.983   2.314  0.00  0.00    +0.000 C 
BRANCH  28  29
ATOM     29  C   UNL     1       1.534  -2.461   2.390  0.00  0.00    -0.077 C 
BRANCH  29  35
ATOM     30  C   UNL     1      -0.019   1.526   0.010  0.00  0.00    +0.005 C 
ATOM     31  C   UNL     1       0.002  -0.004   0.002  0.00  0.00    -0.031 C 
ATOM     32  C   UNL     1      -1.434  -0.535   0.015  0.00  0.00    -0.001 C 
ATOM     33  C   UNL     1      -1.402  -2.064   0.086  0.00  0.00    -0.018 C 
ATOM     34  C   UNL     1      -0.613  -2.496   1.324  0.00  0.00    -0.079 C 
ATOM     35  N   UNL     1       0.758  -1.980   1.239  0.00  0.00    +0.380 N 
ATOM     36  C   UNL     1       0.740  -0.512   1.242  0.00  0.00    -0.076 C 
ATOM     37  H   UNL     1       1.188  -2.307   0.386  0.00  0.00    -0.082 HD
ENDBRANCH  29  35
ENDBRANCH  28  29
ENDBRANCH  27  28
ENDBRANCH  23  27
ENDBRANCH  22  24
ENDBRANCH   1  22
TORSDOF 8
