REMARK  Name = ZINC04349935
REMARK  7 active torsions:
REMARK  status: ('A' for Active; 'I' for Inactive)
REMARK    1  A    between atoms: C_1  and  C_2
REMARK    2  A    between atoms: C_5  and  C_8
REMARK    3  A    between atoms: C_8  and  S_9
REMARK    4  A    between atoms: S_9  and  C_10
REMARK    5  A    between atoms: N_12  and  N_13
REMARK    6  A    between atoms: N_21  and  C_24
REMARK    7  A    between atoms: C_24  and  C_25
REMARK                            x       y       z     vdW  Elec       q    Type
REMARK                         _______ _______ _______ _____ _____    ______ ____
ROOT
ATOM      1  N   UNL     1       2.651  -8.797  -0.060  0.00  0.00    -0.175 NA
ATOM      2  C   UNL     1       3.725  -9.543  -0.170  0.00  0.00    +0.153 C 
ATOM      3  C   UNL     1       5.137  -9.096  -0.186  0.00  0.00    +0.028 A 
ATOM      4  C   UNL     1       5.741  -7.847  -0.099  0.00  0.00    +0.012 A 
ATOM      5  C   UNL     1       7.117  -7.747  -0.145  0.00  0.00    +0.001 A 
ATOM      6  C   UNL     1       7.892  -8.888  -0.277  0.00  0.00    +0.002 A 
ATOM      7  C   UNL     1       7.301 -10.132  -0.364  0.00  0.00    +0.024 A 
ATOM      8  C   UNL     1       5.917 -10.252  -0.319  0.00  0.00    +0.046 A 
ATOM      9  N   UNL     1       5.083 -11.363  -0.384  0.00  0.00    -0.261 N 
ATOM     10  C   UNL     1       3.789 -11.012  -0.296  0.00  0.00    +0.272 C 
ATOM     11  O   UNL     1       2.837 -11.771  -0.319  0.00  0.00    -0.268 OA
ENDROOT
BRANCH   1  14
ATOM     12  C   UNL     1       1.649  -6.612   0.097  0.00  0.00    +0.145 C 
ATOM     13  N   UNL     1       0.502  -7.164   0.377  0.00  0.00    -0.380 N 
ATOM     14  N   UNL     1       2.758  -7.402  -0.131  0.00  0.00    -0.217 N 
ATOM     15  H   UNL     1       0.428  -8.130   0.426  0.00  0.00    +0.158 HD
ATOM     16  H   UNL     1       3.612  -6.991  -0.340  0.00  0.00    +0.176 HD
ATOM     17  H   UNL     1      -0.277  -6.609   0.537  0.00  0.00    +0.158 HD
BRANCH  12  18
ATOM     18  S   UNL     1       1.783  -4.857   0.008  0.00  0.00    -0.087 S 
BRANCH  18  19
ATOM     19  C   UNL     1       0.106  -4.269   0.372  0.00  0.00    +0.112 C 
BRANCH  19  24
ATOM     20  C   UNL     1       0.006   1.506   0.204  0.00  0.00    +0.044 C 
ATOM     21  C   UNL     1       0.033  -0.000   0.248  0.00  0.00    -0.050 A 
ATOM     22  C   UNL     1      -0.221  -0.729  -0.899  0.00  0.00    +0.003 A 
ATOM     23  C   UNL     1      -0.197  -2.111  -0.859  0.00  0.00    +0.005 A 
ATOM     24  C   UNL     1       0.081  -2.763   0.328  0.00  0.00    -0.037 A 
ATOM     25  C   UNL     1       0.336  -2.034   1.474  0.00  0.00    +0.005 A 
ATOM     26  C   UNL     1       0.316  -0.652   1.433  0.00  0.00    +0.003 A 
ENDBRANCH  19  24
ENDBRANCH  18  19
ENDBRANCH  12  18
ENDBRANCH   1  14
BRANCH   9  27
ATOM     27  C   UNL     1       5.556 -12.742  -0.526  0.00  0.00    +0.149 C 
BRANCH  27  28
ATOM     28  C   UNL     1       5.775 -13.341   0.840  0.00  0.00    -0.030 A 
ATOM     29  C   UNL     1       7.005 -13.221   1.458  0.00  0.00    +0.005 A 
ATOM     30  C   UNL     1       7.206 -13.771   2.710  0.00  0.00    +0.000 A 
ATOM     31  C   UNL     1       6.176 -14.439   3.345  0.00  0.00    +0.000 A 
ATOM     32  C   UNL     1       4.945 -14.557   2.728  0.00  0.00    +0.000 A 
ATOM     33  C   UNL     1       4.743 -14.005   1.477  0.00  0.00    +0.005 A 
ENDBRANCH  27  28
ENDBRANCH   9  27
TORSDOF 6
