REMARK  Name = ZINC20436850
REMARK  2 active torsions:
REMARK  status: ('A' for Active; 'I' for Inactive)
REMARK    1  A    between atoms: C_3  and  C_8
REMARK    2  A    between atoms: C_21  and  N_24
REMARK                            x       y       z     vdW  Elec       q    Type
REMARK                         _______ _______ _______ _____ _____    ______ ____
ROOT
ATOM      1  C   UNL     1       2.441  -0.038   0.008  0.00  0.00    +0.105 C 
ATOM      2  C   UNL     1       2.270   1.217  -0.822  0.00  0.00    +0.029 C 
ATOM      3  C   UNL     1       3.433   2.215  -0.867  0.00  0.00    +0.033 C 
ATOM      4  C   UNL     1       2.692   3.537  -1.080  0.00  0.00    -0.030 C 
ATOM      5  C   UNL     1       1.457   3.447  -0.597  0.00  0.00    -0.023 C 
ATOM      6  C   UNL     1       1.282   2.101   0.001  0.00  0.00    +0.049 C 
ATOM      7  C   UNL     1      -0.017   1.393   0.010  0.00  0.00    -0.017 A 
ATOM      8  C   UNL     1      -1.215   2.076   0.033  0.00  0.00    +0.006 A 
ATOM      9  C   UNL     1      -2.413   1.389   0.059  0.00  0.00    +0.003 A 
ATOM     10  C   UNL     1      -2.409   0.005   0.064  0.00  0.00    +0.034 A 
ATOM     11  C   UNL     1      -1.217  -0.684   0.036  0.00  0.00    +0.147 A 
ATOM     12  C   UNL     1       0.002  -0.004   0.002  0.00  0.00    +0.062 A 
ATOM     13  N   UNL     1       1.165  -0.769  -0.045  0.00  0.00    -0.335 N 
ATOM     14  H   UNL     1       1.163  -1.867  -0.117  0.00  0.00    +0.147 HD
ENDROOT
BRANCH   1  17
ATOM     15  C   UNL     1       4.320  -2.438  -2.220  0.00  0.00    +0.001 A 
ATOM     16  C   UNL     1       3.307  -1.662  -1.689  0.00  0.00    +0.005 A 
ATOM     17  C   UNL     1       3.545  -0.888  -0.568  0.00  0.00    -0.026 A 
ATOM     18  C   UNL     1       4.792  -0.898   0.028  0.00  0.00    +0.020 A 
ATOM     19  C   UNL     1       5.804  -1.679  -0.500  0.00  0.00    +0.018 A 
ATOM     20  C   UNL     1       5.568  -2.449  -1.625  0.00  0.00    +0.015 A 
ATOM     21 BR   UNL     1       7.510  -1.694   0.315  0.00  0.00    -0.050 Br
ENDBRANCH   1  17
BRANCH  11  22
ATOM     22  N   UNL     1      -1.229  -2.164   0.040  0.00  0.00    +0.058 N 
ATOM     23  O   UNL     1      -2.288  -2.765   0.070  0.00  0.00    -0.126 OA
ATOM     24  O   UNL     1      -0.179  -2.781   0.015  0.00  0.00    -0.126 OA
ENDBRANCH  11  22
TORSDOF 2
