REMARK  Name = ZINC15002726
REMARK  9 active torsions:
REMARK  status: ('A' for Active; 'I' for Inactive)
REMARK    1  A    between atoms: C_4  and  C_7
REMARK    2  A    between atoms: C_10  and  C_12
REMARK    3  A    between atoms: C_12  and  C_13
REMARK    4  A    between atoms: C_13  and  N_14
REMARK    5  A    between atoms: C_15  and  C_21
REMARK    6  A    between atoms: C_21  and  C_22
REMARK    7  A    between atoms: C_22  and  N_58
REMARK    8  A    between atoms: C_23  and  C_24
REMARK    9  A    between atoms: C_23  and  N_58
REMARK                            x       y       z     vdW  Elec       q    Type
REMARK                         _______ _______ _______ _____ _____    ______ ____
ROOT
ATOM      1  N   UNL     1      -5.026   4.803  -2.473  0.00  0.00    -0.298 N 
ATOM      2  C   UNL     1      -5.232   3.351  -2.518  0.00  0.00    +0.075 C 
ATOM      3  C   UNL     1      -5.962   3.079  -3.852  0.00  0.00    +0.031 C 
ATOM      4  C   UNL     1      -6.663   4.432  -4.109  0.00  0.00    +0.098 C 
ATOM      5  C   UNL     1      -5.822   5.436  -3.353  0.00  0.00    +0.216 C 
ATOM      6  O   UNL     1      -5.859   6.637  -3.516  0.00  0.00    -0.276 OA
ENDROOT
BRANCH   1   7
ATOM      7  C   UNL     1      -4.076   5.476  -1.584  0.00  0.00    +0.115 C 
BRANCH   7   8
ATOM      8  C   UNL     1      -4.728   5.705  -0.219  0.00  0.00    +0.082 C 
BRANCH   8  12
ATOM      9  C   UNL     1      -2.873   8.351   1.661  0.00  0.00    +0.078 A 
ATOM     10  C   UNL     1      -1.980   7.527   2.291  0.00  0.00    +0.075 A 
ATOM     11  S   UNL     1      -2.499   5.937   1.662  0.00  0.00    -0.080 S 
ATOM     12  C   UNL     1      -3.796   6.503   0.656  0.00  0.00    +0.080 A 
ATOM     13  N   UNL     1      -3.764   7.798   0.853  0.00  0.00    -0.244 NA
BRANCH   9  17
ATOM     14  C   UNL     1      -2.792  12.557   2.283  0.00  0.00    +0.000 A 
ATOM     15  C   UNL     1      -1.764  11.769   2.768  0.00  0.00    +0.001 A 
ATOM     16  C   UNL     1      -1.785  10.403   2.569  0.00  0.00    +0.010 A 
ATOM     17  C   UNL     1      -2.845   9.819   1.879  0.00  0.00    +0.001 A 
ATOM     18  C   UNL     1      -3.876  10.618   1.389  0.00  0.00    +0.010 A 
ATOM     19  C   UNL     1      -3.847  11.982   1.597  0.00  0.00    +0.001 A 
ENDBRANCH   9  17
ENDBRANCH   8  12
ENDBRANCH   7   8
ENDBRANCH   1   7
BRANCH   2  20
ATOM     20  C   UNL     1      -3.885   2.624  -2.494  0.00  0.00    +0.003 C 
BRANCH  20  21
ATOM     21  C   UNL     1      -4.121   1.113  -2.510  0.00  0.00    -0.080 C 
BRANCH  21  22
ATOM     22  N   UNL     1      -2.820   0.422  -2.591  0.00  0.00    +0.382 N 
ATOM     23  H   UNL     1      -2.284   0.608  -1.735  0.00  0.00    -0.085 HD
ATOM     24  H   UNL     1      -2.300   0.773  -3.404  0.00  0.00    -0.085 HD
BRANCH  22  25
ATOM     25  C   UNL     1      -3.021  -1.033  -2.733  0.00  0.00    -0.045 C 
BRANCH  25  26
ATOM     26  C   UNL     1      -1.681  -1.722  -2.705  0.00  0.00    -0.042 A 
ATOM     27  C   UNL     1      -1.265  -2.376  -1.559  0.00  0.00    +0.052 A 
ATOM     28  C   UNL     1      -0.031  -3.004  -1.529  0.00  0.00    +0.167 A 
ATOM     29  C   UNL     1       0.789  -2.976  -2.655  0.00  0.00    +0.168 A 
ATOM     30  C   UNL     1       0.367  -2.320  -3.799  0.00  0.00    +0.069 A 
ATOM     31  C   UNL     1      -0.867  -1.693  -3.822  0.00  0.00    +0.046 A 
ATOM     32 CL   UNL     1      -1.395  -0.872  -5.258  0.00  0.00    -0.083 Cl
ATOM     33  O   UNL     1       1.938  -3.658  -2.375  0.00  0.00    -0.453 OA
ATOM     34  C   UNL     1       1.640  -4.450  -1.210  0.00  0.00    +0.466 C 
ATOM     35  O   UNL     1       0.604  -3.704  -0.544  0.00  0.00    -0.453 OA
ENDBRANCH  25  26
ENDBRANCH  22  25
ENDBRANCH  21  22
ENDBRANCH  20  21
ENDBRANCH   2  20
TORSDOF 9
