REMARK  Name = ZINC04738574
REMARK  7 active torsions:
REMARK  status: ('A' for Active; 'I' for Inactive)
REMARK    1  A    between atoms: C_1  and  C_2
REMARK    2  A    between atoms: C_2  and  C_3
REMARK    3  A    between atoms: C_6  and  N_9
REMARK    4  A    between atoms: C_12  and  C_19
REMARK    5  A    between atoms: N_20  and  C_21
REMARK    6  A    between atoms: C_23  and  C_28
REMARK    7  A    between atoms: C_26  and  C_27
REMARK                            x       y       z     vdW  Elec       q    Type
REMARK                         _______ _______ _______ _____ _____    ______ ____
ROOT
ATOM      1  N   UNL     1      -6.927   2.250  -0.646  0.00  0.00    -0.221 N 
ATOM      2  C   UNL     1      -6.115   1.182  -0.795  0.00  0.00    +0.243 C 
ATOM      3  O   UNL     1      -6.104   0.538  -1.823  0.00  0.00    -0.274 OA
ATOM      4  C   UNL     1      -5.215   0.817   0.371  0.00  0.00    +0.203 C 
ATOM      5  C   UNL     1      -5.322   1.700   1.601  0.00  0.00    +0.236 C 
ATOM      6  O   UNL     1      -4.645   1.490   2.585  0.00  0.00    -0.274 OA
ATOM      7  N   UNL     1      -6.197   2.727   1.558  0.00  0.00    -0.266 N 
ATOM      8  C   UNL     1      -6.951   2.970   0.480  0.00  0.00    +0.150 C 
ATOM      9  S   UNL     1      -8.024   4.302   0.548  0.00  0.00    -0.018 S 
ATOM     10  H   UNL     1      -6.282   3.304   2.333  0.00  0.00    +0.157 HD
ENDROOT
BRANCH   1  14
ATOM     11  C   UNL     1      -9.437   3.333  -3.793  0.00  0.00    -0.048 A 
ATOM     12  C   UNL     1      -8.157   3.852  -3.722  0.00  0.00    +0.005 A 
ATOM     13  C   UNL     1      -7.323   3.494  -2.680  0.00  0.00    +0.024 A 
ATOM     14  C   UNL     1      -7.771   2.614  -1.704  0.00  0.00    +0.043 A 
ATOM     15  C   UNL     1      -9.055   2.091  -1.782  0.00  0.00    +0.024 A 
ATOM     16  C   UNL     1      -9.886   2.456  -2.823  0.00  0.00    +0.005 A 
BRANCH  11  18
ATOM     17  C   UNL     1     -10.157   2.745  -6.092  0.00  0.00    +0.009 C 
ATOM     18  C   UNL     1     -10.344   3.724  -4.931  0.00  0.00    +0.032 C 
ENDBRANCH  11  18
ENDBRANCH   1  14
BRANCH   4  19
ATOM     19  C   UNL     1      -3.788   0.852  -0.109  0.00  0.00    +0.106 C 
ATOM     20  N   UNL     1      -3.061  -0.213  -0.050  0.00  0.00    -0.258 NA
BRANCH  20  21
ATOM     21  C   UNL     1      -1.734  -0.159  -0.400  0.00  0.00    +0.067 A 
ATOM     22  C   UNL     1      -1.348   0.460  -1.589  0.00  0.00    +0.031 A 
ATOM     23  C   UNL     1      -0.014   0.506  -1.938  0.00  0.00    -0.048 A 
ATOM     24  C   UNL     1       0.941  -0.056  -1.109  0.00  0.00    +0.004 A 
ATOM     25  C   UNL     1       0.565  -0.666   0.074  0.00  0.00    +0.006 A 
ATOM     26  C   UNL     1      -0.766  -0.719   0.434  0.00  0.00    -0.025 A 
ATOM     27  C   UNL     1      -1.174  -1.385   1.723  0.00  0.00    +0.046 C 
ATOM     28  C   UNL     1       0.405   1.169  -3.225  0.00  0.00    +0.044 C 
ENDBRANCH  20  21
ENDBRANCH   4  19
TORSDOF 4
