REMARK  Name = ZINC36571078
REMARK  13 active torsions:
REMARK  status: ('A' for Active; 'I' for Inactive)
REMARK    1  A    between atoms: C_1  and  C_2
REMARK    2  A    between atoms: C_2  and  C_3
REMARK    3  A    between atoms: C_3  and  N_4
REMARK    4  A    between atoms: N_4  and  C_5
REMARK    5  A    between atoms: C_5  and  C_7
REMARK    6  A    between atoms: C_5  and  C_12
REMARK    7  A    between atoms: N_14  and  C_15
REMARK    8  A    between atoms: C_15  and  S_16
REMARK    9  A    between atoms: S_16  and  C_19
REMARK   10  A    between atoms: C_22  and  C_25
REMARK   11  A    between atoms: C_26  and  C_28
REMARK   12  A    between atoms: C_29  and  O_35
REMARK   13  A    between atoms: C_33  and  O_34
REMARK                            x       y       z     vdW  Elec       q    Type
REMARK                         _______ _______ _______ _____ _____    ______ ____
ROOT
ATOM      1  C   UNL     1      -1.318  -2.526   1.260  0.00  0.00    +0.228 C 
ENDROOT
BRANCH   1   2
ATOM      2  C   UNL     1      -0.154  -1.938   2.015  0.00  0.00    +0.134 A 
ATOM      3  C   UNL     1       0.651  -2.603   2.862  0.00  0.00    +0.047 A 
ATOM      4  C   UNL     1       1.601  -1.671   3.341  0.00  0.00    +0.041 A 
ATOM      5  C   UNL     1       1.319  -0.492   2.757  0.00  0.00    +0.195 A 
ATOM      6  O   UNL     1       0.259  -0.661   1.950  0.00  0.00    -0.465 OA
ENDBRANCH   1   2
BRANCH   1   7
ATOM      7  C   UNL     1      -2.597  -2.230   1.999  0.00  0.00    +0.242 C 
ATOM      8  O   UNL     1      -3.475  -1.589   1.460  0.00  0.00    -0.273 OA
ATOM      9  N   UNL     1      -2.767  -2.677   3.259  0.00  0.00    -0.294 N 
ATOM     10  H   UNL     1      -2.065  -3.189   3.691  0.00  0.00    +0.150 HD
BRANCH   9  11
ATOM     11  C   UNL     1      -4.011  -2.389   3.978  0.00  0.00    +0.278 C 
BRANCH  11  12
ATOM     12  S   UNL     1      -5.154  -3.785   3.790  0.00  0.00    +0.013 S 
ATOM     13  O   UNL     1      -6.342  -3.548   4.534  0.00  0.00    -0.168 OA
ATOM     14  O   UNL     1      -5.220  -4.184   2.428  0.00  0.00    -0.168 OA
BRANCH  12  15
ATOM     15  C   UNL     1      -4.368  -5.128   4.615  0.00  0.00    +0.090 A 
ATOM     16  C   UNL     1      -3.511  -5.960   3.919  0.00  0.00    +0.027 A 
ATOM     17  C   UNL     1      -2.894  -7.015   4.566  0.00  0.00    +0.005 A 
ATOM     18  C   UNL     1      -3.133  -7.237   5.910  0.00  0.00    -0.050 A 
ATOM     19  C   UNL     1      -3.989  -6.404   6.606  0.00  0.00    +0.005 A 
ATOM     20  C   UNL     1      -4.603  -5.347   5.960  0.00  0.00    +0.027 A 
ATOM     21  C   UNL     1      -2.461  -8.386   6.615  0.00  0.00    +0.044 C 
ENDBRANCH  12  15
ENDBRANCH  11  12
ENDBRANCH   9  11
ENDBRANCH   1   7
BRANCH   1  22
ATOM     22  N   UNL     1      -1.380  -1.937  -0.080  0.00  0.00    -0.279 N 
ATOM     23  C   UNL     1      -1.601  -0.615  -0.225  0.00  0.00    +0.255 C 
ATOM     24  O   UNL     1      -1.749   0.088   0.757  0.00  0.00    -0.270 OA
BRANCH  23  25
ATOM     25  C   UNL     1      -1.663  -0.022  -1.571  0.00  0.00    +0.119 A 
ATOM     26  C   UNL     1      -2.888   0.064  -2.249  0.00  0.00    +0.133 A 
ATOM     27  C   UNL     1      -2.935   0.624  -3.515  0.00  0.00    +0.046 A 
ATOM     28  C   UNL     1      -1.781   1.097  -4.111  0.00  0.00    +0.007 A 
ATOM     29  C   UNL     1      -0.568   1.016  -3.452  0.00  0.00    +0.046 A 
ATOM     30  C   UNL     1      -0.499   0.465  -2.183  0.00  0.00    +0.133 A 
BRANCH  30  31
ATOM     31  O   UNL     1       0.691   0.393  -1.536  0.00  0.00    -0.506 OA
ATOM     32  H   UNL     1       1.182  -0.423  -1.705  0.00  0.00    +0.292 HD
ENDBRANCH  30  31
BRANCH  26  33
ATOM     33  O   UNL     1      -4.022  -0.400  -1.667  0.00  0.00    -0.506 OA
ATOM     34  H   UNL     1      -4.493   0.261  -1.140  0.00  0.00    +0.292 HD
ENDBRANCH  26  33
ENDBRANCH  23  25
BRANCH  22  35
ATOM     35  C   UNL     1      -1.202  -2.784  -1.262  0.00  0.00    +0.109 C 
BRANCH  35  37
ATOM     36  C   UNL     1      -2.377  -4.227  -2.928  0.00  0.00    +0.005 C 
ATOM     37  C   UNL     1      -2.539  -3.428  -1.634  0.00  0.00    +0.016 C 
ENDBRANCH  35  37
ENDBRANCH  22  35
ENDBRANCH   1  22
TORSDOF 11
