REMARK  Name = ZINC62580852
REMARK  9 active torsions:
REMARK  status: ('A' for Active; 'I' for Inactive)
REMARK    1  A    between atoms: C_1  and  C_2
REMARK    2  A    between atoms: C_2  and  C_3
REMARK    3  A    between atoms: C_2  and  C_4
REMARK    4  A    between atoms: C_4  and  C_6
REMARK    5  A    between atoms: C_4  and  N_16
REMARK    6  A    between atoms: C_17  and  C_19
REMARK    7  A    between atoms: C_19  and  N_20
REMARK    8  A    between atoms: C_23  and  C_28
REMARK    9  A    between atoms: C_28  and  C_29
REMARK                            x       y       z     vdW  Elec       q    Type
REMARK                         _______ _______ _______ _____ _____    ______ ____
ROOT
ATOM      1  C   UNL     1      -1.271  -4.184   1.155  0.00  0.00    +0.213 C 
ENDROOT
BRANCH   1   2
ATOM      2  N   UNL     1      -1.131  -4.678   2.527  0.00  0.00    -0.216 N 
ATOM      3  C   UNL     1       0.051  -4.913   3.130  0.00  0.00    +0.244 C 
ATOM      4  O   UNL     1       1.157  -4.761   2.657  0.00  0.00    -0.273 OA
ATOM      5  C   UNL     1      -0.290  -5.405   4.522  0.00  0.00    +0.165 C 
ATOM      6  N   UNL     1      -1.763  -5.390   4.544  0.00  0.00    -0.287 N 
ATOM      7  C   UNL     1      -2.161  -4.947   3.338  0.00  0.00    +0.310 C 
ATOM      8  O   UNL     1      -3.325  -4.809   3.019  0.00  0.00    -0.252 OA
ATOM      9  H   UNL     1      -2.334  -5.646   5.284  0.00  0.00    +0.151 HD
BRANCH   5  10
ATOM     10  C   UNL     1       0.240  -6.825   4.736  0.00  0.00    +0.069 C 
BRANCH  10  11
ATOM     11  C   UNL     1      -0.004  -7.243   6.163  0.00  0.00    -0.020 A 
ATOM     12  C   UNL     1       0.863  -7.143   7.183  0.00  0.00    +0.087 A 
ATOM     13  N   UNL     1       0.291  -7.622   8.330  0.00  0.00    -0.360 N 
ATOM     14  H   UNL     1       0.723  -7.654   9.197  0.00  0.00    +0.165 HD
ATOM     15  C   UNL     1      -0.991  -8.054   8.069  0.00  0.00    +0.047 A 
ATOM     16  C   UNL     1      -1.233  -7.830   6.701  0.00  0.00    +0.003 A 
ATOM     17  C   UNL     1      -2.469  -8.170   6.148  0.00  0.00    +0.010 A 
ATOM     18  C   UNL     1      -3.439  -8.717   6.940  0.00  0.00    +0.001 A 
ATOM     19  C   UNL     1      -3.206  -8.937   8.290  0.00  0.00    +0.002 A 
ATOM     20  C   UNL     1      -1.990  -8.617   8.855  0.00  0.00    +0.026 A 
ENDBRANCH  10  11
ENDBRANCH   5  10
ENDBRANCH   1   2
BRANCH   1  22
ATOM     21  N   UNL     1      -1.413  -1.998   0.005  0.00  0.00    -0.307 N 
ATOM     22  C   UNL     1      -1.292  -2.677   1.163  0.00  0.00    +0.231 C 
ATOM     23  O   UNL     1      -1.198  -2.075   2.212  0.00  0.00    -0.274 OA
ATOM     24  H   UNL     1      -1.488  -2.480  -0.834  0.00  0.00    +0.149 HD
BRANCH  21  25
ATOM     25  C   UNL     1      -1.433  -0.534   0.013  0.00  0.00    +0.106 C 
BRANCH  25  26
ATOM     26  C   UNL     1      -2.162  -0.034  -1.208  0.00  0.00    -0.023 A 
ATOM     27  C   UNL     1      -1.981  -0.664  -2.425  0.00  0.00    +0.009 A 
ATOM     28  C   UNL     1      -2.647  -0.208  -3.547  0.00  0.00    +0.050 A 
ATOM     29  C   UNL     1      -3.499   0.882  -3.455  0.00  0.00    +0.162 A 
ATOM     30  C   UNL     1      -3.683   1.513  -2.231  0.00  0.00    +0.162 A 
ATOM     31  C   UNL     1      -3.015   1.048  -1.108  0.00  0.00    +0.055 A 
ATOM     32  O   UNL     1      -4.521   2.580  -2.116  0.00  0.00    -0.485 OA
ATOM     33  C   UNL     1      -4.887   3.244  -3.331  0.00  0.00    +0.270 C 
ATOM     34  C   UNL     1      -5.274   2.177  -4.364  0.00  0.00    +0.270 C 
ATOM     35  O   UNL     1      -4.144   1.322  -4.570  0.00  0.00    -0.485 OA
ENDBRANCH  25  26
BRANCH  25  37
ATOM     36  C   UNL     1      -0.019   1.526   0.010  0.00  0.00    +0.009 C 
ATOM     37  C   UNL     1       0.002  -0.004   0.002  0.00  0.00    +0.008 C 
ATOM     38  C   UNL     1       0.742  -0.511   1.242  0.00  0.00    +0.009 C 
ENDBRANCH  25  37
ENDBRANCH  21  25
ENDBRANCH   1  22
TORSDOF 7
