REMARK  Name = ZINC38565182
REMARK  6 active torsions:
REMARK  status: ('A' for Active; 'I' for Inactive)
REMARK    1  A    between atoms: C_9  and  C_12
REMARK    2  A    between atoms: N_14  and  C_15
REMARK    3  A    between atoms: C_15  and  C_16
REMARK    4  A    between atoms: C_16  and  C_18
REMARK    5  A    between atoms: C_16  and  S_23
REMARK    6  A    between atoms: S_23  and  C_26
REMARK                            x       y       z     vdW  Elec       q    Type
REMARK                         _______ _______ _______ _____ _____    ______ ____
ROOT
ATOM      1  C   UNL     1       6.433  -6.000   0.347  0.00  0.00    +0.189 C 
ENDROOT
BRANCH   1   2
ATOM      2  C   UNL     1       7.737  -6.642  -0.052  0.00  0.00    +0.016 A 
ATOM      3  C   UNL     1       8.693  -7.193   0.735  0.00  0.00    +0.013 A 
ATOM      4  C   UNL     1       9.820  -7.731   0.143  0.00  0.00    +0.008 A 
ATOM      5  C   UNL     1       9.937  -7.691  -1.207  0.00  0.00    +0.045 A 
ATOM      6  S   UNL     1       8.419  -6.882  -1.684  0.00  0.00    -0.100 S 
ENDBRANCH   1   2
BRANCH   1   7
ATOM      7  S   UNL     1       5.056  -6.910  -0.406  0.00  0.00    +0.006 S 
ATOM      8  O   UNL     1       3.818  -6.431   0.101  0.00  0.00    -0.169 OA
ATOM      9  O   UNL     1       5.263  -7.043  -1.805  0.00  0.00    -0.169 OA
BRANCH   7  10
ATOM     10  C   UNL     1       5.196  -8.549   0.227  0.00  0.00    +0.089 A 
ATOM     11  C   UNL     1       5.957  -9.486  -0.446  0.00  0.00    +0.030 A 
ATOM     12  C   UNL     1       6.068 -10.771   0.050  0.00  0.00    +0.040 A 
ATOM     13  C   UNL     1       5.417 -11.120   1.221  0.00  0.00    +0.124 A 
ATOM     14  C   UNL     1       4.655 -10.180   1.894  0.00  0.00    +0.040 A 
ATOM     15  C   UNL     1       4.550  -8.894   1.400  0.00  0.00    +0.030 A 
ATOM     16  F   UNL     1       5.525 -12.376   1.706  0.00  0.00    -0.205 F 
ENDBRANCH   7  10
ENDBRANCH   1   7
BRANCH   1  17
ATOM     17  C   UNL     1       6.410  -4.549  -0.137  0.00  0.00    +0.136 C 
BRANCH  17  20
ATOM     18  C   UNL     1       4.898  -2.639  -0.071  0.00  0.00    +0.257 C 
ATOM     19  O   UNL     1       5.727  -1.999  -0.682  0.00  0.00    -0.272 OA
ATOM     20  N   UNL     1       5.143  -3.925   0.251  0.00  0.00    -0.310 N 
ATOM     21  H   UNL     1       4.479  -4.437   0.740  0.00  0.00    +0.149 HD
BRANCH  18  30
ATOM     22  C   UNL     1      -0.017   1.378   0.010  0.00  0.00    +0.004 A 
ATOM     23  C   UNL     1       1.170   2.088   0.002  0.00  0.00    +0.004 A 
ATOM     24  C   UNL     1       2.378   1.418  -0.014  0.00  0.00    +0.049 A 
ATOM     25  C   UNL     1       2.404   0.031  -0.023  0.00  0.00    +0.163 A 
ATOM     26  C   UNL     1       1.212  -0.683  -0.013  0.00  0.00    +0.162 A 
ATOM     27  C   UNL     1       0.002  -0.004   0.002  0.00  0.00    +0.049 A 
ATOM     28  O   UNL     1       1.214  -2.044  -0.013  0.00  0.00    -0.484 OA
ATOM     29  C   UNL     1       2.434  -2.685  -0.404  0.00  0.00    +0.283 C 
ATOM     30  C   UNL     1       3.594  -1.997   0.328  0.00  0.00    +0.296 C 
ATOM     31  O   UNL     1       3.602  -0.615  -0.043  0.00  0.00    -0.473 OA
ENDBRANCH  18  30
ENDBRANCH  17  20
ENDBRANCH   1  17
TORSDOF 6
