REMARK  Name = ZINC34089338
REMARK  4 active torsions:
REMARK  status: ('A' for Active; 'I' for Inactive)
REMARK    1  A    between atoms: C_6  and  O_7
REMARK    2  A    between atoms: O_7  and  C_8
REMARK    3  A    between atoms: C_9  and  C_15
REMARK    4  A    between atoms: C_11  and  N_14
REMARK                            x       y       z     vdW  Elec       q    Type
REMARK                         _______ _______ _______ _____ _____    ______ ____
ROOT
ATOM      1  C   UNL     1      -1.102  -2.050  -0.102  0.00  0.00    +0.238 A 
ATOM      2  C   UNL     1      -2.286  -2.795  -0.210  0.00  0.00    +0.115 A 
ATOM      3  C   UNL     1      -2.200  -4.187  -0.326  0.00  0.00    +0.048 A 
ATOM      4  C   UNL     1      -0.939  -4.771  -0.328  0.00  0.00    +0.044 A 
ATOM      5  C   UNL     1       0.185  -3.962  -0.217  0.00  0.00    +0.137 A 
ATOM      6  N   UNL     1       0.074  -2.652  -0.115  0.00  0.00    -0.218 NA
ENDROOT
BRANCH   4   7
ATOM      7  N   UNL     1      -0.802  -6.160  -0.441  0.00  0.00    -0.357 N 
ATOM      8  H   UNL     1      -1.591  -6.720  -0.518  0.00  0.00    +0.142 HD
ATOM      9  H   UNL     1       0.080  -6.562  -0.442  0.00  0.00    +0.142 HD
ENDBRANCH   4   7
BRANCH   2  10
ATOM     10  C   UNL     1      -3.561  -2.143  -0.202  0.00  0.00    +0.105 C 
ATOM     11  N   UNL     1      -4.572  -1.625  -0.195  0.00  0.00    -0.191 NA
ENDBRANCH   2  10
BRANCH   1  12
ATOM     12  O   UNL     1      -1.165  -0.700   0.010  0.00  0.00    -0.437 OA
BRANCH  12  18
ATOM     13  C   UNL     1       0.678   0.208  -1.189  0.00  0.00    +0.048 A 
ATOM     14  C   UNL     1       1.864   0.916  -1.194  0.00  0.00    +0.025 A 
ATOM     15  C   UNL     1       2.379   1.414  -0.010  0.00  0.00    +0.059 A 
ATOM     16  C   UNL     1       1.706   1.203   1.182  0.00  0.00    +0.063 A 
ATOM     17  C   UNL     1       0.519   0.494   1.191  0.00  0.00    +0.067 A 
ATOM     18  C   UNL     1       0.002  -0.004   0.004  0.00  0.00    +0.132 A 
ATOM     19 CL   UNL     1       2.354   1.828   2.667  0.00  0.00    -0.082 Cl
ATOM     20 CL   UNL     1       3.870   2.304  -0.019  0.00  0.00    -0.082 Cl
ENDBRANCH  12  18
ENDBRANCH   1  12
TORSDOF 4
