REMARK  Name = ZINC13945448
REMARK  7 active torsions:
REMARK  status: ('A' for Active; 'I' for Inactive)
REMARK    1  A    between atoms: C_4  and  C_7
REMARK    2  A    between atoms: C_7  and  C_9
REMARK    3  A    between atoms: C_7  and  S_22
REMARK    4  A    between atoms: N_11  and  C_12
REMARK    5  A    between atoms: C_15  and  S_18
REMARK    6  A    between atoms: S_18  and  N_21
REMARK    7  A    between atoms: S_22  and  C_23
REMARK                            x       y       z     vdW  Elec       q    Type
REMARK                         _______ _______ _______ _____ _____    ______ ____
ROOT
ATOM      1  C   UNL     1       6.288   7.178   0.133  0.00  0.00    +0.170 C 
ENDROOT
BRANCH   1   5
ATOM      2  C   UNL     1       7.253   4.670   3.453  0.00  0.00    +0.000 A 
ATOM      3  C   UNL     1       7.170   4.133   2.182  0.00  0.00    +0.000 A 
ATOM      4  C   UNL     1       6.857   4.945   1.108  0.00  0.00    +0.005 A 
ATOM      5  C   UNL     1       6.628   6.293   1.304  0.00  0.00    -0.025 A 
ATOM      6  C   UNL     1       6.716   6.832   2.575  0.00  0.00    +0.005 A 
ATOM      7  C   UNL     1       7.024   6.019   3.650  0.00  0.00    +0.000 A 
ENDBRANCH   1   5
BRANCH   1   8
ATOM      8  C   UNL     1       7.327   8.262   0.004  0.00  0.00    +0.235 C 
ATOM      9  O   UNL     1       7.137   9.348   0.508  0.00  0.00    -0.274 OA
ATOM     10  N   UNL     1       8.468   8.024  -0.673  0.00  0.00    -0.284 N 
ATOM     11  H   UNL     1       8.655   7.134  -1.011  0.00  0.00    +0.155 HD
BRANCH  10  12
ATOM     12  C   UNL     1       9.383   9.060  -0.889  0.00  0.00    +0.034 A 
ATOM     13  C   UNL     1       8.931  10.361  -1.071  0.00  0.00    +0.025 A 
ATOM     14  C   UNL     1       9.837  11.383  -1.276  0.00  0.00    +0.030 A 
ATOM     15  C   UNL     1      11.192  11.110  -1.314  0.00  0.00    +0.105 A 
ATOM     16  C   UNL     1      11.645   9.815  -1.139  0.00  0.00    +0.030 A 
ATOM     17  C   UNL     1      10.745   8.790  -0.926  0.00  0.00    +0.025 A 
BRANCH  15  18
ATOM     18  S   UNL     1      12.345  12.415  -1.584  0.00  0.00    +0.056 S 
ATOM     19  O   UNL     1      11.703  13.615  -1.175  0.00  0.00    -0.153 OA
ATOM     20  O   UNL     1      13.581  11.986  -1.031  0.00  0.00    -0.153 OA
BRANCH  18  21
ATOM     21  N   UNL     1      12.574  12.535  -3.220  0.00  0.00    -0.204 NA
ATOM     22  H   UNL     1      12.102  11.938  -3.821  0.00  0.00    +0.144 HD
ATOM     23  H   UNL     1      13.180  13.203  -3.577  0.00  0.00    +0.144 HD
ENDBRANCH  18  21
ENDBRANCH  15  18
ENDBRANCH  10  12
ENDBRANCH   1   8
BRANCH   1  24
ATOM     24  S   UNL     1       4.662   7.930   0.397  0.00  0.00    -0.067 S 
BRANCH  24  25
ATOM     25  C   UNL     1       3.649   6.489   0.361  0.00  0.00    +0.212 A 
ATOM     26  N   UNL     1       2.338   6.611   0.521  0.00  0.00    -0.201 NA
ATOM     27  C   UNL     1       1.575   5.523   0.494  0.00  0.00    +0.162 A 
ATOM     28  C   UNL     1       2.199   4.274   0.292  0.00  0.00    +0.137 A 
ATOM     29  C   UNL     1       1.123   3.267   0.308  0.00  0.00    +0.029 A 
ATOM     30  C   UNL     1       1.103   1.882   0.165  0.00  0.00    +0.012 A 
ATOM     31  C   UNL     1      -0.095   1.204   0.230  0.00  0.00    +0.001 A 
ATOM     32  C   UNL     1      -1.279   1.897   0.432  0.00  0.00    +0.002 A 
ATOM     33  C   UNL     1      -1.272   3.267   0.581  0.00  0.00    +0.026 A 
ATOM     34  C   UNL     1      -0.073   3.969   0.518  0.00  0.00    +0.050 A 
ATOM     35  N   UNL     1       0.224   5.318   0.626  0.00  0.00    -0.338 N 
ATOM     36  H   UNL     1      -0.430   6.019   0.774  0.00  0.00    +0.167 HD
ATOM     37  N   UNL     1       3.513   4.219   0.137  0.00  0.00    -0.143 NA
ATOM     38  N   UNL     1       4.213   5.300   0.172  0.00  0.00    -0.122 NA
ENDBRANCH  24  25
ENDBRANCH   1  24
TORSDOF 7
