REMARK  Name = ZINC09116940
REMARK  5 active torsions:
REMARK  status: ('A' for Active; 'I' for Inactive)
REMARK    1  A    between atoms: C_1  and  C_2
REMARK    2  A    between atoms: C_4  and  C_31
REMARK    3  A    between atoms: C_6  and  N_8
REMARK    4  A    between atoms: C_18  and  S_21
REMARK    5  A    between atoms: S_21  and  C_24
REMARK                            x       y       z     vdW  Elec       q    Type
REMARK                         _______ _______ _______ _____ _____    ______ ____
ROOT
ATOM      1  N   UNL     1       1.696   6.791   0.074  0.00  0.00    -0.298 N 
ATOM      2  C   UNL     1       1.696   5.420  -0.120  0.00  0.00    +0.141 A 
ATOM      3  C   UNL     1       0.493   4.743  -0.339  0.00  0.00    +0.078 A 
ATOM      4  C   UNL     1       0.453   3.359  -0.539  0.00  0.00    +0.087 A 
ATOM      5  C   UNL     1      -0.814   2.811  -0.747  0.00  0.00    +0.036 A 
ATOM      6  C   UNL     1      -1.907   3.607  -0.753  0.00  0.00    +0.048 A 
ATOM      7  S   UNL     1      -1.212   5.223  -0.447  0.00  0.00    -0.092 S 
ATOM      8  N   UNL     1       1.692   2.713  -0.502  0.00  0.00    -0.192 N 
ATOM      9  C   UNL     1       2.843   3.417  -0.285  0.00  0.00    +0.204 A 
ATOM     10  N   UNL     1       2.835   4.748  -0.097  0.00  0.00    -0.208 NA
ATOM     11  C   UNL     1       3.869   2.486  -0.311  0.00  0.00    +0.249 A 
ATOM     12  N   UNL     1       3.342   1.288  -0.535  0.00  0.00    -0.108 NA
ATOM     13  N   UNL     1       2.063   1.373  -0.654  0.00  0.00    -0.057 NA
ATOM     14  H   UNL     1       0.856   7.271   0.143  0.00  0.00    +0.154 HD
ENDROOT
BRANCH   1  20
ATOM     15  C   UNL     1       6.406   7.283  -1.243  0.00  0.00    +0.044 C 
ATOM     16  C   UNL     1       5.206   7.744  -0.456  0.00  0.00    -0.048 A 
ATOM     17  C   UNL     1       5.303   8.854   0.363  0.00  0.00    +0.006 A 
ATOM     18  C   UNL     1       4.204   9.280   1.087  0.00  0.00    -0.048 A 
ATOM     19  C   UNL     1       3.007   8.598   0.993  0.00  0.00    +0.026 A 
ATOM     20  C   UNL     1       2.906   7.483   0.171  0.00  0.00    +0.033 A 
ATOM     21  C   UNL     1       4.013   7.055  -0.551  0.00  0.00    +0.026 A 
ATOM     22  C   UNL     1       4.314  10.490   1.978  0.00  0.00    +0.044 C 
ENDBRANCH   1  20
BRANCH  11  23
ATOM     23  S   UNL     1       5.581   2.833  -0.086  0.00  0.00    +0.047 S 
ATOM     24  O   UNL     1       6.293   1.716  -0.601  0.00  0.00    -0.163 OA
ATOM     25  O   UNL     1       5.794   4.155  -0.559  0.00  0.00    -0.163 OA
BRANCH  23  26
ATOM     26  C   UNL     1       5.882   2.865   1.650  0.00  0.00    +0.096 A 
ATOM     27  C   UNL     1       5.765   4.051   2.350  0.00  0.00    +0.028 A 
ATOM     28  C   UNL     1       5.996   4.076   3.712  0.00  0.00    +0.017 A 
ATOM     29  C   UNL     1       6.355   2.915   4.374  0.00  0.00    +0.018 A 
ATOM     30  C   UNL     1       6.476   1.729   3.673  0.00  0.00    +0.017 A 
ATOM     31  C   UNL     1       6.240   1.704   2.311  0.00  0.00    +0.028 A 
ATOM     32 BR   UNL     1       6.677   2.950   6.237  0.00  0.00    -0.050 Br
ENDBRANCH  23  26
ENDBRANCH  11  23
TORSDOF 3
