REMARK  Name = ZINC20285970
REMARK  8 active torsions:
REMARK  status: ('A' for Active; 'I' for Inactive)
REMARK    1  A    between atoms: C_1  and  C_2
REMARK    2  A    between atoms: C_2  and  N_16
REMARK    3  A    between atoms: C_3  and  N_4
REMARK    4  A    between atoms: N_16  and  C_17
REMARK    5  A    between atoms: C_19  and  C_25
REMARK    6  A    between atoms: C_19  and  C_26
REMARK    7  A    between atoms: C_21  and  C_23
REMARK    8  A    between atoms: C_21  and  C_24
REMARK                            x       y       z     vdW  Elec       q    Type
REMARK                         _______ _______ _______ _____ _____    ______ ____
ROOT
ATOM      1  C   UNL     1      -0.459   1.688   0.054  0.00  0.00    +0.062 C 
ATOM      2  C   UNL     1      -0.332   0.187   0.035  0.00  0.00    +0.019 C 
ATOM      3  C   UNL     1      -0.276  -0.495   1.188  0.00  0.00    +0.131 C 
ENDROOT
BRANCH   3   4
ATOM      4  N   UNL     1      -0.332   0.168   2.373  0.00  0.00    -0.228 NA
ATOM      5  C   UNL     1      -0.277  -0.498   3.500  0.00  0.00    +0.198 C 
ATOM      6  N   UNL     1      -0.303  -0.269   4.880  0.00  0.00    -0.200 NA
ATOM      7  C   UNL     1      -0.206  -1.373   5.670  0.00  0.00    +0.167 C 
ATOM      8  S   UNL     1      -0.136  -2.173   4.083  0.00  0.00    -0.015 S 
ATOM      9  N   UNL     1      -0.182  -1.700   6.998  0.00  0.00    -0.309 N 
ATOM     10  C   UNL     1      -0.286  -0.639   7.974  0.00  0.00    +0.107 C 
ATOM     11  C   UNL     1       1.127  -0.108   8.319  0.00  0.00    +0.019 C 
ATOM     12  C   UNL     1       1.867  -1.101   9.113  0.00  0.00    +0.002 C 
ATOM     13  C   UNL     1       2.124  -2.419   8.389  0.00  0.00    +0.002 C 
ATOM     14  C   UNL     1       0.925  -3.321   8.550  0.00  0.00    +0.019 C 
ATOM     15  C   UNL     1      -0.055  -3.122   7.375  0.00  0.00    +0.107 C 
ENDBRANCH   3   4
BRANCH   2  16
ATOM     16  N   UNL     1      -0.275  -0.490  -1.175  0.00  0.00    -0.343 N 
ATOM     17  H   UNL     1      -0.193  -1.457  -1.187  0.00  0.00    +0.146 HD
BRANCH  16  18
ATOM     18  C   UNL     1      -0.337   0.257  -2.438  0.00  0.00    +0.068 C 
ATOM     19  C   UNL     1      -1.802   0.461  -2.829  0.00  0.00    +0.009 C 
ATOM     20  C   UNL     1      -1.883   1.227  -4.149  0.00  0.00    -0.072 C 
ATOM     21  N   UNL     1      -1.109   0.588  -5.202  0.00  0.00    +0.386 N 
ATOM     22  C   UNL     1       0.243   0.160  -4.881  0.00  0.00    -0.072 C 
ATOM     23  C   UNL     1       0.344  -0.556  -3.539  0.00  0.00    +0.009 C 
ATOM     24  C   UNL     1       1.233   1.327  -4.927  0.00  0.00    -0.010 C 
ATOM     25  C   UNL     1       0.682  -0.847  -5.972  0.00  0.00    -0.010 C 
ATOM     26  C   UNL     1      -1.478   2.686  -3.940  0.00  0.00    -0.010 C 
ATOM     27  C   UNL     1      -3.365   1.222  -4.591  0.00  0.00    -0.010 C 
ATOM     28  H   UNL     1      -1.633  -0.224  -5.538  0.00  0.00    -0.084 HD
ATOM     29  H   UNL     1      -1.064   1.227  -6.000  0.00  0.00    -0.084 HD
ENDBRANCH  16  18
ENDBRANCH   2  16
TORSDOF 3
