REMARK  Name = ZINC37035286
REMARK  7 active torsions:
REMARK  status: ('A' for Active; 'I' for Inactive)
REMARK    1  A    between atoms: C_1  and  C_2
REMARK    2  A    between atoms: C_7  and  N_12
REMARK    3  A    between atoms: C_9  and  C_11
REMARK    4  A    between atoms: C_13  and  C_15
REMARK    5  A    between atoms: C_15  and  S_16
REMARK    6  A    between atoms: S_16  and  C_17
REMARK    7  A    between atoms: C_22  and  N_23
REMARK                            x       y       z     vdW  Elec       q    Type
REMARK                         _______ _______ _______ _____ _____    ______ ____
ROOT
ATOM      1  N   UNL     1      -0.612  -2.548   1.244  0.00  0.00    -0.312 N 
ATOM      2  C   UNL     1      -0.873  -3.776   1.733  0.00  0.00    +0.223 C 
ATOM      3  O   UNL     1       0.030  -4.462   2.164  0.00  0.00    -0.275 OA
ATOM      4  H   UNL     1      -1.333  -2.000   0.898  0.00  0.00    +0.149 HD
ENDROOT
BRANCH   1  10
ATOM      5  C   UNL     1      -0.019   1.526   0.010  0.00  0.00    +0.008 C 
ATOM      6  C   UNL     1       0.002  -0.004   0.002  0.00  0.00    -0.009 C 
ATOM      7  C   UNL     1       0.718  -0.497  -1.257  0.00  0.00    +0.003 C 
ATOM      8  C   UNL     1       0.739  -2.027  -1.265  0.00  0.00    +0.002 C 
ATOM      9  C   UNL     1       1.479  -2.534  -0.026  0.00  0.00    +0.022 C 
ATOM     10  C   UNL     1       0.763  -2.041   1.233  0.00  0.00    +0.076 C 
ATOM     11  C   UNL     1       0.742  -0.511   1.242  0.00  0.00    +0.009 C 
ATOM     12  C   UNL     1       0.026  -0.018   2.500  0.00  0.00    +0.009 C 
ENDBRANCH   1  10
BRANCH   2  13
ATOM     13  C   UNL     1      -2.287  -4.298   1.743  0.00  0.00    +0.170 C 
BRANCH  13  14
ATOM     14  S   UNL     1      -2.311  -5.965   2.458  0.00  0.00    -0.114 S 
BRANCH  14  15
ATOM     15  C   UNL     1      -4.010  -6.429   2.400  0.00  0.00    +0.029 A 
ATOM     16  C   UNL     1      -4.952  -5.556   1.876  0.00  0.00    +0.016 A 
ATOM     17  C   UNL     1      -6.284  -5.923   1.831  0.00  0.00    +0.001 A 
ATOM     18  C   UNL     1      -6.682  -7.158   2.309  0.00  0.00    +0.002 A 
ATOM     19  C   UNL     1      -5.750  -8.034   2.834  0.00  0.00    +0.024 A 
ATOM     20  C   UNL     1      -4.411  -7.678   2.877  0.00  0.00    +0.038 A 
BRANCH  20  21
ATOM     21  N   UNL     1      -3.464  -8.565   3.402  0.00  0.00    -0.357 N 
ATOM     22  H   UNL     1      -2.528  -8.313   3.435  0.00  0.00    +0.142 HD
ATOM     23  H   UNL     1      -3.744  -9.433   3.733  0.00  0.00    +0.142 HD
ENDBRANCH  20  21
ENDBRANCH  14  15
ENDBRANCH  13  14
ENDBRANCH   2  13
TORSDOF 5
