REMARK  Name = ZINC39498363
REMARK  10 active torsions:
REMARK  status: ('A' for Active; 'I' for Inactive)
REMARK    1  A    between atoms: C_4  and  O_7
REMARK    2  A    between atoms: O_7  and  S_8
REMARK    3  A    between atoms: S_8  and  C_11
REMARK    4  A    between atoms: C_12  and  O_34
REMARK    5  A    between atoms: C_15  and  C_26
REMARK    6  A    between atoms: C_16  and  S_17
REMARK    7  A    between atoms: S_17  and  C_20
REMARK    8  A    between atoms: C_26  and  C_28
REMARK    9  A    between atoms: C_26  and  N_31
REMARK   10  A    between atoms: C_28  and  C_29
REMARK                            x       y       z     vdW  Elec       q    Type
REMARK                         _______ _______ _______ _____ _____    ______ ____
ROOT
ATOM      1  C   UNL     1       2.258  -2.401   1.813  0.00  0.00    +0.195 A 
ATOM      2  C   UNL     1       1.404  -2.342   2.905  0.00  0.00    +0.147 A 
ATOM      3  C   UNL     1       1.257  -3.448   3.728  0.00  0.00    +0.048 A 
ATOM      4  C   UNL     1       1.962  -4.606   3.460  0.00  0.00    +0.011 A 
ATOM      5  C   UNL     1       2.813  -4.662   2.372  0.00  0.00    +0.001 A 
ATOM      6  C   UNL     1       2.956  -3.562   1.546  0.00  0.00    +0.130 A 
ENDROOT
BRANCH   1   7
ATOM      7  S   UNL     1       2.447  -0.997   0.764  0.00  0.00    +0.156 S 
ATOM      8  O   UNL     1       3.844  -0.786   0.617  0.00  0.00    -0.131 OA
ATOM      9  O   UNL     1       1.574   0.005   1.266  0.00  0.00    -0.131 OA
BRANCH   7  10
ATOM     10  O   UNL     1       1.918  -1.387  -0.609  0.00  0.00    -0.342 OA
BRANCH  10  14
ATOM     11  C   UNL     1      -2.197  -1.551  -0.838  0.00  0.00    +0.000 A 
ATOM     12  C   UNL     1      -1.537  -0.368  -1.116  0.00  0.00    +0.004 A 
ATOM     13  C   UNL     1      -0.159  -0.311  -1.040  0.00  0.00    +0.048 A 
ATOM     14  C   UNL     1       0.562  -1.441  -0.684  0.00  0.00    +0.157 A 
ATOM     15  C   UNL     1      -0.102  -2.626  -0.405  0.00  0.00    +0.048 A 
ATOM     16  C   UNL     1      -1.481  -2.679  -0.483  0.00  0.00    +0.004 A 
ENDBRANCH  10  14
ENDBRANCH   7  10
ENDBRANCH   1   7
BRANCH   6  17
ATOM     17  S   UNL     1       4.036  -3.640   0.156  0.00  0.00    +0.027 S 
ATOM     18  O   UNL     1       3.853  -4.922  -0.429  0.00  0.00    -0.164 OA
ATOM     19  O   UNL     1       3.846  -2.436  -0.574  0.00  0.00    -0.164 OA
BRANCH  17  20
ATOM     20  C   UNL     1       5.685  -3.600   0.774  0.00  0.00    +0.094 A 
ATOM     21  C   UNL     1       6.367  -2.399   0.847  0.00  0.00    +0.027 A 
ATOM     22  C   UNL     1       7.661  -2.368   1.332  0.00  0.00    +0.002 A 
ATOM     23  C   UNL     1       8.273  -3.536   1.745  0.00  0.00    +0.000 A 
ATOM     24  C   UNL     1       7.591  -4.737   1.673  0.00  0.00    +0.002 A 
ATOM     25  C   UNL     1       6.296  -4.768   1.192  0.00  0.00    +0.027 A 
ENDBRANCH  17  20
ENDBRANCH   6  17
BRANCH   2  26
ATOM     26  O   UNL     1       0.712  -1.202   3.167  0.00  0.00    -0.505 OA
ATOM     27  H   UNL     1      -0.154  -1.159   2.737  0.00  0.00    +0.292 HD
ENDBRANCH   2  26
BRANCH   5  28
ATOM     28  C   UNL     1       3.580  -5.926   2.082  0.00  0.00    +0.112 C 
BRANCH  28  29
ATOM     29  N   UNL     1       2.668  -7.071   2.119  0.00  0.00    -0.311 N 
ATOM     30  C   UNL     1       2.963  -8.191   1.429  0.00  0.00    +0.326 C 
ATOM     31  O   UNL     1       3.984  -8.250   0.777  0.00  0.00    -0.280 OA
ATOM     32  H   UNL     1       1.851  -7.024   2.640  0.00  0.00    +0.149 HD
ENDBRANCH  28  29
BRANCH  28  33
ATOM     33  C   UNL     1       4.674  -6.111   3.135  0.00  0.00    +0.097 C 
BRANCH  33  34
ATOM     34  C   UNL     1       5.460  -7.360   2.829  0.00  0.00    +0.225 C 
ATOM     35  O   UNL     1       6.660  -7.303   2.707  0.00  0.00    -0.301 OA
ENDBRANCH  33  34
ENDBRANCH  28  33
ENDBRANCH   5  28
TORSDOF 10
