REMARK  Name = ZINC40365761
REMARK  5 active torsions:
REMARK  status: ('A' for Active; 'I' for Inactive)
REMARK    1  A    between atoms: C_2  and  S_9
REMARK    2  A    between atoms: S_9  and  N_12
REMARK    3  A    between atoms: N_12  and  C_13
REMARK    4  A    between atoms: C_13  and  C_15
REMARK    5  A    between atoms: C_13  and  C_17
REMARK                            x       y       z     vdW  Elec       q    Type
REMARK                         _______ _______ _______ _____ _____    ______ ____
ROOT
ATOM      1  S   UNL     1       1.146   3.849   0.011  0.00  0.00    +0.060 S 
ATOM      2  O   UNL     1       2.380   4.275  -0.549  0.00  0.00    -0.153 OA
ATOM      3  O   UNL     1      -0.110   4.240  -0.526  0.00  0.00    -0.153 OA
ENDROOT
BRANCH   1   5
ATOM      4  C   UNL     1      -0.017   1.379   0.010  0.00  0.00    +0.048 A 
ATOM      5  C   UNL     1       1.171   2.087   0.002  0.00  0.00    +0.108 A 
ATOM      6  C   UNL     1       2.377   1.413  -0.013  0.00  0.00    +0.048 A 
ATOM      7  C   UNL     1       2.397   0.030  -0.021  0.00  0.00    +0.044 A 
ATOM      8  C   UNL     1       1.209  -0.679  -0.013  0.00  0.00    +0.040 A 
ATOM      9  C   UNL     1       0.002  -0.004   0.002  0.00  0.00    +0.044 A 
ATOM     10 CL   UNL     1      -1.489  -0.893   0.012  0.00  0.00    -0.083 Cl
ATOM     11 CL   UNL     1       3.913  -0.817  -0.040  0.00  0.00    -0.083 Cl
ENDBRANCH   1   5
BRANCH   1  12
ATOM     12  N   UNL     1       1.154   4.330   1.596  0.00  0.00    -0.173 NA
ATOM     13  H   UNL     1       0.389   4.800   1.964  0.00  0.00    +0.149 HD
BRANCH  12  14
ATOM     14  C   UNL     1       2.316   4.047   2.442  0.00  0.00    +0.181 C 
BRANCH  14  15
ATOM     15  C   UNL     1       1.848   3.754   3.869  0.00  0.00    +0.022 C 
ATOM     16  C   UNL     1       1.101   4.971   4.420  0.00  0.00    +0.006 C 
ATOM     17  C   UNL     1       0.633   4.678   5.847  0.00  0.00    +0.000 C 
ATOM     18  C   UNL     1       1.847   4.382   6.731  0.00  0.00    +0.000 C 
ATOM     19  C   UNL     1       2.594   3.166   6.180  0.00  0.00    +0.000 C 
ATOM     20  C   UNL     1       3.062   3.458   4.752  0.00  0.00    +0.006 C 
ENDBRANCH  14  15
BRANCH  14  21
ATOM     21  C   UNL     1       3.214   5.213   2.449  0.00  0.00    +0.083 C 
ATOM     22  N   UNL     1       3.907   6.112   2.454  0.00  0.00    -0.195 NA
ENDBRANCH  14  21
ENDBRANCH  12  14
ENDBRANCH   1  12
TORSDOF 5
