REMARK  Name = ZINC12499611
REMARK  12 active torsions:
REMARK  status: ('A' for Active; 'I' for Inactive)
REMARK    1  A    between atoms: C_1  and  C_2
REMARK    2  A    between atoms: C_5  and  C_32
REMARK    3  A    between atoms: C_6  and  O_8
REMARK    4  A    between atoms: O_8  and  C_9
REMARK    5  A    between atoms: C_9  and  C_10
REMARK    6  A    between atoms: N_12  and  C_13
REMARK    7  A    between atoms: C_13  and  N_15
REMARK    8  A    between atoms: N_15  and  C_16
REMARK    9  A    between atoms: C_17  and  C_29
REMARK   10  A    between atoms: C_18  and  C_28
REMARK   11  A    between atoms: C_19  and  C_21
REMARK   12  A    between atoms: C_21  and  C_22
REMARK                            x       y       z     vdW  Elec       q    Type
REMARK                         _______ _______ _______ _____ _____    ______ ____
ROOT
ATOM      1  N   UNL     1      -0.308   2.587   4.833  0.00  0.00    -0.291 N 
ATOM      2  H   UNL     1       0.633   2.506   5.057  0.00  0.00    +0.154 HD
ENDROOT
BRANCH   1   3
ATOM      3  C   UNL     1      -0.745   2.272   3.557  0.00  0.00    +0.084 A 
ATOM      4  C   UNL     1       0.003   1.826   2.473  0.00  0.00    +0.068 A 
ATOM      5  C   UNL     1      -0.718   1.572   1.248  0.00  0.00    -0.026 A 
ATOM      6  C   UNL     1      -2.045   1.792   1.259  0.00  0.00    -0.000 A 
ATOM      7  S   UNL     1      -2.356   2.338   2.925  0.00  0.00    -0.077 S 
ATOM      8  C   UNL     1      -0.013   1.086   0.008  0.00  0.00    +0.045 C 
BRANCH   4   9
ATOM      9  C   UNL     1       1.451   1.624   2.569  0.00  0.00    +0.244 C 
ATOM     10  O   UNL     1       2.212   2.538   2.308  0.00  0.00    -0.270 OA
ATOM     11  N   UNL     1       1.941   0.426   2.946  0.00  0.00    -0.325 N 
ATOM     12  H   UNL     1       1.335  -0.302   3.154  0.00  0.00    +0.145 HD
ATOM     13  H   UNL     1       2.900   0.293   3.010  0.00  0.00    +0.145 HD
ENDBRANCH   4   9
BRANCH   6  14
ATOM     14  C   UNL     1      -3.031   1.618   0.133  0.00  0.00    +0.077 C 
BRANCH  14  15
ATOM     15  C   UNL     1      -3.580   0.215   0.158  0.00  0.00    -0.043 A 
ATOM     16  C   UNL     1      -2.949  -0.787  -0.555  0.00  0.00    +0.004 A 
ATOM     17  C   UNL     1      -3.449  -2.076  -0.527  0.00  0.00    +0.000 A 
ATOM     18  C   UNL     1      -4.587  -2.360   0.205  0.00  0.00    +0.000 A 
ATOM     19  C   UNL     1      -5.221  -1.356   0.913  0.00  0.00    +0.000 A 
ATOM     20  C   UNL     1      -4.718  -0.069   0.890  0.00  0.00    +0.004 A 
ENDBRANCH  14  15
ENDBRANCH   6  14
ENDBRANCH   1   3
BRANCH   1  21
ATOM     21  C   UNL     1      -1.188   3.008   5.763  0.00  0.00    +0.141 C 
ATOM     22  S   UNL     1      -2.848   3.152   5.367  0.00  0.00    -0.018 S 
BRANCH  21  25
ATOM     23  C   UNL     1      -1.643   3.735   7.934  0.00  0.00    +0.256 C 
ATOM     24  O   UNL     1      -2.818   3.837   7.654  0.00  0.00    -0.272 OA
ATOM     25  N   UNL     1      -0.762   3.314   7.004  0.00  0.00    -0.265 N 
ATOM     26  H   UNL     1       0.178   3.233   7.229  0.00  0.00    +0.157 HD
BRANCH  23  27
ATOM     27  C   UNL     1      -1.167   4.078   9.322  0.00  0.00    +0.325 C 
BRANCH  27  28
ATOM     28  O   UNL     1      -2.279   4.494  10.117  0.00  0.00    -0.482 OA
BRANCH  28  34
ATOM     29  C   UNL     1       0.947   5.072  13.735  0.00  0.00    +0.044 C 
ATOM     30  C   UNL     1      -0.462   5.136  13.204  0.00  0.00    -0.047 A 
ATOM     31  C   UNL     1      -1.493   5.549  14.028  0.00  0.00    +0.004 A 
ATOM     32  C   UNL     1      -2.787   5.608  13.543  0.00  0.00    +0.007 A 
ATOM     33  C   UNL     1      -3.051   5.261  12.233  0.00  0.00    -0.009 A 
ATOM     34  C   UNL     1      -2.020   4.841  11.406  0.00  0.00    +0.124 A 
ATOM     35  C   UNL     1      -0.722   4.783  11.894  0.00  0.00    +0.049 A 
ATOM     36  C   UNL     1      -4.461   5.332  11.704  0.00  0.00    +0.047 C 
ENDBRANCH  28  34
ENDBRANCH  27  28
ENDBRANCH  23  27
ENDBRANCH  21  25
ENDBRANCH   1  21
TORSDOF 9
