REMARK  Name = ZINC67209735
REMARK  8 active torsions:
REMARK  status: ('A' for Active; 'I' for Inactive)
REMARK    1  A    between atoms: C_4  and  C_7
REMARK    2  A    between atoms: C_10  and  C_12
REMARK    3  A    between atoms: C_12  and  N_13
REMARK    4  A    between atoms: C_14  and  C_16
REMARK    5  A    between atoms: C_16  and  C_17
REMARK    6  A    between atoms: C_17  and  C_18
REMARK    7  A    between atoms: C_18  and  C_19
REMARK    8  A    between atoms: C_19  and  C_20
REMARK                            x       y       z     vdW  Elec       q    Type
REMARK                         _______ _______ _______ _____ _____    ______ ____
ROOT
ATOM      1  N   UNL     1       7.817  -0.758  -1.453  0.00  0.00    -0.308 N 
ATOM      2  C   UNL     1       9.124  -0.554  -1.707  0.00  0.00    +0.213 C 
ATOM      3  O   UNL     1       9.911  -0.443  -0.791  0.00  0.00    -0.276 OA
ATOM      4  H   UNL     1       7.188  -0.846  -2.186  0.00  0.00    +0.149 HD
ENDROOT
BRANCH   1   5
ATOM      5  C   UNL     1       7.345  -0.845  -0.069  0.00  0.00    +0.178 C 
BRANCH   5   9
ATOM      6  C   UNL     1       3.695  -0.684  -0.038  0.00  0.00    +0.135 A 
ATOM      7  C   UNL     1       3.857  -2.034  -0.052  0.00  0.00    +0.050 A 
ATOM      8  C   UNL     1       5.246  -2.276  -0.066  0.00  0.00    +0.047 A 
ATOM      9  C   UNL     1       5.856  -1.075  -0.059  0.00  0.00    +0.123 A 
ATOM     10  O   UNL     1       4.916  -0.115  -0.048  0.00  0.00    -0.458 OA
BRANCH   6  14
ATOM     11  C   UNL     1      -0.017   1.379   0.010  0.00  0.00    +0.000 A 
ATOM     12  C   UNL     1       1.168   2.094   0.002  0.00  0.00    +0.001 A 
ATOM     13  C   UNL     1       2.377   1.429  -0.013  0.00  0.00    +0.011 A 
ATOM     14  C   UNL     1       2.404   0.034  -0.021  0.00  0.00    +0.017 A 
ATOM     15  C   UNL     1       1.204  -0.681  -0.013  0.00  0.00    +0.011 A 
ATOM     16  C   UNL     1       0.002  -0.004   0.002  0.00  0.00    +0.001 A 
ENDBRANCH   6  14
ENDBRANCH   5   9
ENDBRANCH   1   5
BRANCH   2  17
ATOM     17  C   UNL     1       9.610  -0.464  -3.131  0.00  0.00    +0.096 C 
BRANCH  17  18
ATOM     18  C   UNL     1      11.122  -0.231  -3.141  0.00  0.00    +0.009 C 
BRANCH  18  19
ATOM     19  C   UNL     1      11.614  -0.139  -4.587  0.00  0.00    +0.002 C 
BRANCH  19  20
ATOM     20  C   UNL     1      13.127   0.093  -4.596  0.00  0.00    +0.016 C 
BRANCH  20  21
ATOM     21  C   UNL     1      13.619   0.185  -6.042  0.00  0.00    +0.069 C 
ATOM     22  C   UNL     1      15.150   0.377  -6.095  0.00  0.00    +0.108 C 
ATOM     23  C   UNL     1      15.609   1.367  -7.170  0.00  0.00    +0.105 C 
ATOM     24  C   UNL     1      14.450   1.983  -7.981  0.00  0.00    +0.093 C 
ATOM     25  S   UNL     1      13.028   1.737  -6.846  0.00  0.00    -0.154 S 
ATOM     26  N   UNL     1      16.276   2.436  -6.410  0.00  0.00    -0.294 N 
ATOM     27  C   UNL     1      16.225   2.140  -5.104  0.00  0.00    +0.300 C 
ATOM     28  O   UNL     1      16.701   2.855  -4.243  0.00  0.00    -0.253 OA
ATOM     29  N   UNL     1      15.601   0.994  -4.837  0.00  0.00    -0.294 N 
ATOM     30  H   UNL     1      16.686   3.228  -6.793  0.00  0.00    +0.151 HD
ATOM     31  H   UNL     1      15.469   0.626  -3.950  0.00  0.00    +0.151 HD
ENDBRANCH  20  21
ENDBRANCH  19  20
ENDBRANCH  18  19
ENDBRANCH  17  18
ENDBRANCH   2  17
TORSDOF 8
