REMARK  Name = ZINC14478491
REMARK  7 active torsions:
REMARK  status: ('A' for Active; 'I' for Inactive)
REMARK    1  A    between atoms: C_1  and  C_2
REMARK    2  A    between atoms: C_7  and  C_8
REMARK    3  A    between atoms: C_19  and  S_24
REMARK    4  A    between atoms: S_24  and  N_27
REMARK    5  A    between atoms: N_27  and  C_28
REMARK    6  A    between atoms: C_28  and  C_29
REMARK    7  A    between atoms: C_29  and  C_30
REMARK                            x       y       z     vdW  Elec       q    Type
REMARK                         _______ _______ _______ _____ _____    ______ ____
ROOT
ATOM      1  C   UNL     1      -0.144  -4.992  -4.762  0.00  0.00    +0.105 C 
ATOM      2  C   UNL     1      -0.843  -4.019  -5.694  0.00  0.00    +0.029 C 
ATOM      3  C   UNL     1      -2.063  -4.540  -6.465  0.00  0.00    +0.033 C 
ATOM      4  C   UNL     1      -2.886  -3.263  -6.640  0.00  0.00    -0.030 C 
ATOM      5  C   UNL     1      -2.595  -2.400  -5.674  0.00  0.00    -0.023 C 
ATOM      6  C   UNL     1      -1.574  -3.005  -4.765  0.00  0.00    +0.049 C 
ATOM      7  C   UNL     1      -0.545  -2.207  -4.063  0.00  0.00    -0.018 A 
ATOM      8  C   UNL     1      -0.726  -0.878  -3.748  0.00  0.00    +0.034 A 
ATOM      9  C   UNL     1       0.253  -0.184  -3.061  0.00  0.00    +0.106 A 
ATOM     10  C   UNL     1       1.423  -0.823  -2.692  0.00  0.00    +0.030 A 
ATOM     11  C   UNL     1       1.614  -2.153  -3.005  0.00  0.00    +0.025 A 
ATOM     12  C   UNL     1       0.640  -2.858  -3.701  0.00  0.00    +0.031 A 
ATOM     13  N   UNL     1       0.873  -4.195  -4.042  0.00  0.00    -0.336 N 
ATOM     14  H   UNL     1       1.718  -4.607  -3.802  0.00  0.00    +0.147 HD
ENDROOT
BRANCH   1  21
ATOM     15  C   UNL     1      -1.609  -7.385  -5.450  0.00  0.00    +0.044 C 
ATOM     16  C   UNL     1      -1.833  -6.723  -4.115  0.00  0.00    -0.045 A 
ATOM     17  C   UNL     1      -2.736  -7.263  -3.218  0.00  0.00    +0.004 A 
ATOM     18  C   UNL     1      -2.945  -6.652  -1.996  0.00  0.00    +0.000 A 
ATOM     19  C   UNL     1      -2.248  -5.503  -1.669  0.00  0.00    +0.000 A 
ATOM     20  C   UNL     1      -1.342  -4.967  -2.564  0.00  0.00    +0.006 A 
ATOM     21  C   UNL     1      -1.132  -5.578  -3.786  0.00  0.00    -0.024 A 
ENDBRANCH   1  21
BRANCH   9  22
ATOM     22  S   UNL     1       0.013   1.515  -2.662  0.00  0.00    +0.058 S 
ATOM     23  O   UNL     1      -0.926   2.024  -3.599  0.00  0.00    -0.153 OA
ATOM     24  O   UNL     1       1.306   2.080  -2.496  0.00  0.00    -0.153 OA
BRANCH  22  25
ATOM     25  N   UNL     1      -0.721   1.571  -1.179  0.00  0.00    -0.190 NA
ATOM     26  H   UNL     1      -1.621   1.925  -1.096  0.00  0.00    +0.148 HD
BRANCH  25  27
ATOM     27  C   UNL     1      -0.013   1.086   0.008  0.00  0.00    +0.110 C 
BRANCH  27  28
ATOM     28  C   UNL     1      -0.729   1.579   1.267  0.00  0.00    +0.052 C 
BRANCH  28  29
ATOM     29  C   UNL     1       0.000   1.080   2.488  0.00  0.00    -0.046 A 
ATOM     30  C   UNL     1      -0.347  -0.133   3.052  0.00  0.00    +0.003 A 
ATOM     31  C   UNL     1       0.324  -0.593   4.170  0.00  0.00    +0.000 A 
ATOM     32  C   UNL     1       1.337   0.165   4.728  0.00  0.00    +0.000 A 
ATOM     33  C   UNL     1       1.681   1.380   4.166  0.00  0.00    +0.000 A 
ATOM     34  C   UNL     1       1.012   1.838   3.046  0.00  0.00    +0.003 A 
ENDBRANCH  28  29
ENDBRANCH  27  28
ENDBRANCH  25  27
ENDBRANCH  22  25
ENDBRANCH   9  22
TORSDOF 6
