REMARK  Name = ZINC09215999
REMARK  7 active torsions:
REMARK  status: ('A' for Active; 'I' for Inactive)
REMARK    1  A    between atoms: C_1  and  C_2
REMARK    2  A    between atoms: C_2  and  C_3
REMARK    3  A    between atoms: C_2  and  C_4
REMARK    4  A    between atoms: C_4  and  C_5
REMARK    5  A    between atoms: N_13  and  C_16
REMARK    6  A    between atoms: C_16  and  C_17
REMARK    7  A    between atoms: C_17  and  C_18
REMARK                            x       y       z     vdW  Elec       q    Type
REMARK                         _______ _______ _______ _____ _____    ______ ____
ROOT
ATOM      1  C   UNL     1      -0.042  -0.124   2.497  0.00  0.00    -0.057 C 
ATOM      2  C   UNL     1       0.668  -0.658   3.759  0.00  0.00    +0.073 C 
ATOM      3  C   UNL     1      -0.033  -2.010   4.069  0.00  0.00    +0.088 C 
ATOM      4  C   UNL     1      -0.703  -1.757   5.401  0.00  0.00    +0.225 C 
ATOM      5  O   UNL     1      -1.361  -2.566   6.019  0.00  0.00    -0.275 OA
ATOM      6  N   UNL     1      -0.457  -0.501   5.791  0.00  0.00    -0.241 N 
ATOM      7  C   UNL     1       0.313   0.215   4.940  0.00  0.00    +0.224 C 
ATOM      8  O   UNL     1       0.663   1.366   5.091  0.00  0.00    -0.275 OA
ATOM      9  C   UNL     1      -1.087  -2.160   2.965  0.00  0.00    +0.050 C 
ATOM     10  N   UNL     1      -1.375  -0.782   2.498  0.00  0.00    +0.394 N 
ATOM     11  C   UNL     1      -2.333  -2.825   3.478  0.00  0.00    -0.026 A 
ATOM     12  C   UNL     1      -3.234  -2.514   4.471  0.00  0.00    +0.004 A 
ATOM     13  C   UNL     1      -4.312  -3.345   4.715  0.00  0.00    +0.002 A 
ATOM     14  C   UNL     1      -4.484  -4.490   3.957  0.00  0.00    +0.022 A 
ATOM     15  C   UNL     1      -3.584  -4.806   2.959  0.00  0.00    +0.062 A 
ATOM     16  C   UNL     1      -2.495  -3.973   2.708  0.00  0.00    +0.054 A 
ATOM     17  N   UNL     1      -1.465  -4.074   1.769  0.00  0.00    -0.285 N 
ATOM     18  C   UNL     1      -0.597  -3.049   1.855  0.00  0.00    +0.211 C 
ATOM     19  O   UNL     1       0.389  -2.875   1.169  0.00  0.00    -0.277 OA
ATOM     20 CL   UNL     1      -3.809  -6.245   2.015  0.00  0.00    -0.082 Cl
ATOM     21  H   UNL     1      -2.002  -0.308   3.131  0.00  0.00    -0.083 HD
ATOM     22  H   UNL     1      -1.385  -4.800   1.129  0.00  0.00    +0.155 HD
ATOM     23  H   UNL     1      -1.760  -0.801   1.566  0.00  0.00    -0.083 HD
ENDROOT
BRANCH   1  24
ATOM     24  C   UNL     1       0.742  -0.511   1.242  0.00  0.00    -0.012 C 
BRANCH  24  26
ATOM     25  C   UNL     1      -0.782   0.800  -0.242  0.00  0.00    +0.007 C 
ATOM     26  C   UNL     1      -0.213  -0.590   0.049  0.00  0.00    -0.019 C 
ATOM     27  C   UNL     1       0.546  -1.098  -1.179  0.00  0.00    +0.007 C 
ENDBRANCH  24  26
ENDBRANCH   1  24
BRANCH   6  28
ATOM     28  C   UNL     1      -0.975   0.055   7.043  0.00  0.00    +0.121 C 
BRANCH  28  29
ATOM     29  C   UNL     1       0.031  -0.198   8.168  0.00  0.00    +0.054 C 
BRANCH  29  30
ATOM     30  C   UNL     1      -0.502   0.375   9.456  0.00  0.00    -0.046 A 
ATOM     31  C   UNL     1      -0.217   1.683   9.802  0.00  0.00    +0.004 A 
ATOM     32  C   UNL     1      -0.706   2.207  10.983  0.00  0.00    +0.000 A 
ATOM     33  C   UNL     1      -1.479   1.424  11.820  0.00  0.00    +0.000 A 
ATOM     34  C   UNL     1      -1.765   0.117  11.474  0.00  0.00    +0.000 A 
ATOM     35  C   UNL     1      -1.280  -0.407  10.290  0.00  0.00    +0.004 A 
ENDBRANCH  29  30
ENDBRANCH  28  29
ENDBRANCH   6  28
TORSDOF 5
