REMARK  Name = ZINC07185902
REMARK  7 active torsions:
REMARK  status: ('A' for Active; 'I' for Inactive)
REMARK    1  A    between atoms: C_1  and  C_2
REMARK    2  A    between atoms: C_2  and  C_3
REMARK    3  A    between atoms: C_3  and  C_4
REMARK    4  A    between atoms: C_3  and  C_5
REMARK    5  A    between atoms: C_3  and  N_6
REMARK    6  A    between atoms: C_7  and  C_9
REMARK    7  A    between atoms: C_9  and  N_10
REMARK                            x       y       z     vdW  Elec       q    Type
REMARK                         _______ _______ _______ _____ _____    ______ ____
ROOT
ATOM      1  N   UNL     1       1.276   1.887   0.000  0.00  0.00    -0.215 N 
ATOM      2  C   UNL     1      -0.018   1.508   0.010  0.00  0.00    +0.251 C 
ATOM      3  O   UNL     1      -0.994   2.228   0.019  0.00  0.00    -0.272 OA
ATOM      4  C   UNL     1       0.002  -0.004   0.002  0.00  0.00    +0.138 C 
ATOM      5  C   UNL     1      -0.681  -0.535  -1.252  0.00  0.00    +0.040 C 
ATOM      6  C   UNL     1      -2.194  -0.329  -1.106  0.00  0.00    +0.008 C 
ATOM      7  C   UNL     1      -2.706  -1.269  -0.017  0.00  0.00    +0.035 C 
ATOM      8  C   UNL     1      -1.894  -1.118   1.242  0.00  0.00    -0.042 A 
ATOM      9  C   UNL     1      -0.643  -0.538   1.249  0.00  0.00    -0.012 A 
ATOM     10  C   UNL     1       0.059  -0.435   2.443  0.00  0.00    +0.006 A 
ATOM     11  C   UNL     1      -0.486  -0.905   3.620  0.00  0.00    +0.000 A 
ATOM     12  C   UNL     1      -1.741  -1.484   3.613  0.00  0.00    +0.000 A 
ATOM     13  C   UNL     1      -2.441  -1.589   2.428  0.00  0.00    +0.004 A 
ATOM     14  N   UNL     1       1.433  -0.339  -0.014  0.00  0.00    -0.281 N 
ATOM     15  C   UNL     1       2.099   0.831  -0.014  0.00  0.00    +0.310 C 
ATOM     16  O   UNL     1       3.311   0.919  -0.026  0.00  0.00    -0.252 OA
ATOM     17  H   UNL     1       1.821  -1.228  -0.022  0.00  0.00    +0.152 HD
ENDROOT
BRANCH   1  18
ATOM     18  C   UNL     1       1.726   3.281   0.003  0.00  0.00    +0.213 C 
BRANCH  18  20
ATOM     19  N   UNL     1       2.302   5.012   1.673  0.00  0.00    -0.309 N 
ATOM     20  C   UNL     1       1.893   3.752   1.424  0.00  0.00    +0.231 C 
ATOM     21  O   UNL     1       1.660   2.998   2.345  0.00  0.00    -0.274 OA
ATOM     22  H   UNL     1       2.489   5.616   0.937  0.00  0.00    +0.149 HD
BRANCH  19  23
ATOM     23  C   UNL     1       2.465   5.470   3.055  0.00  0.00    +0.029 C 
ATOM     24  C   UNL     1       1.127   5.365   3.788  0.00  0.00    +0.031 C 
ATOM     25  C   UNL     1       3.504   4.598   3.762  0.00  0.00    +0.031 C 
BRANCH  23  27
ATOM     26  C   UNL     1       3.105   7.405   4.501  0.00  0.00    +0.006 C 
ATOM     27  C   UNL     1       2.935   6.926   3.057  0.00  0.00    +0.022 C 
ENDBRANCH  23  27
ENDBRANCH  19  23
ENDBRANCH  18  20
ENDBRANCH   1  18
TORSDOF 4
