REMARK  Name = ZINC52006317
REMARK  5 active torsions:
REMARK  status: ('A' for Active; 'I' for Inactive)
REMARK    1  A    between atoms: C_4  and  S_17
REMARK    2  A    between atoms: C_5  and  N_7
REMARK    3  A    between atoms: N_7  and  C_8
REMARK    4  A    between atoms: C_14  and  O_16
REMARK    5  A    between atoms: S_17  and  C_20
REMARK                            x       y       z     vdW  Elec       q    Type
REMARK                         _______ _______ _______ _____ _____    ______ ____
ROOT
ATOM      1  C   UNL     1       0.037   1.394  -0.205  0.00  0.00    +0.002 A 
ATOM      2  C   UNL     1       1.218   2.112  -0.189  0.00  0.00    +0.002 A 
ATOM      3  C   UNL     1       2.433   1.451  -0.161  0.00  0.00    +0.029 A 
ATOM      4  C   UNL     1       2.469   0.070  -0.147  0.00  0.00    +0.118 A 
ATOM      5  C   UNL     1       1.284  -0.654  -0.163  0.00  0.00    +0.053 A 
ATOM      6  C   UNL     1       0.066   0.013  -0.193  0.00  0.00    +0.025 A 
ENDROOT
BRANCH   4   7
ATOM      7  S   UNL     1       4.016  -0.771  -0.112  0.00  0.00    +0.093 S 
ATOM      8  O   UNL     1       3.898  -1.790  -1.095  0.00  0.00    -0.161 OA
ATOM      9  O   UNL     1       4.990   0.255  -0.245  0.00  0.00    -0.161 OA
BRANCH   7  10
ATOM     10  C   UNL     1       4.108  -1.508   1.544  0.00  0.00    +0.526 C 
ATOM     11  F   UNL     1       2.983  -2.311   1.759  0.00  0.00    -0.150 F 
ATOM     12  F   UNL     1       5.265  -2.288   1.643  0.00  0.00    -0.150 F 
ATOM     13  F   UNL     1       4.147  -0.492   2.505  0.00  0.00    -0.150 F 
ENDBRANCH   7  10
ENDBRANCH   4   7
BRANCH   5  14
ATOM     14  N   UNL     1       1.317  -2.050  -0.150  0.00  0.00    -0.337 N 
ATOM     15  H   UNL     1       2.160  -2.514  -0.030  0.00  0.00    +0.146 HD
BRANCH  14  16
ATOM     16  C   UNL     1       0.078  -2.814  -0.318  0.00  0.00    +0.099 C 
ATOM     17  C   UNL     1      -0.665  -2.880   1.018  0.00  0.00    +0.025 C 
ATOM     18  C   UNL     1       0.220  -3.566   2.061  0.00  0.00    +0.002 C 
ATOM     19  C   UNL     1       0.554  -4.984   1.592  0.00  0.00    +0.003 C 
ATOM     20  C   UNL     1       1.297  -4.918   0.256  0.00  0.00    +0.033 C 
ATOM     21  C   UNL     1       0.412  -4.231  -0.786  0.00  0.00    +0.135 C 
BRANCH  21  22
ATOM     22  O   UNL     1       1.105  -4.170  -2.034  0.00  0.00    -0.390 OA
ATOM     23  H   UNL     1       1.349  -5.034  -2.392  0.00  0.00    +0.210 HD
ENDBRANCH  21  22
ENDBRANCH  14  16
ENDBRANCH   5  14
TORSDOF 5
