REMARK  Name = ZINC12340813
REMARK  6 active torsions:
REMARK  status: ('A' for Active; 'I' for Inactive)
REMARK    1  A    between atoms: C_4  and  C_7
REMARK    2  A    between atoms: N_9  and  C_10
REMARK    3  A    between atoms: C_10  and  C_19
REMARK    4  A    between atoms: C_11  and  C_12
REMARK    5  A    between atoms: N_21  and  N_22
REMARK    6  A    between atoms: C_23  and  C_24
REMARK                            x       y       z     vdW  Elec       q    Type
REMARK                         _______ _______ _______ _____ _____    ______ ____
ROOT
ATOM      1  C   UNL     1       0.935   3.503   1.192  0.00  0.00    +0.098 C 
ATOM      2  C   UNL     1      -0.242   3.965   1.675  0.00  0.00    +0.038 C 
ENDROOT
BRANCH   2   3
ATOM      3  C   UNL     1      -0.416   5.401   1.940  0.00  0.00    -0.005 A 
ATOM      4  C   UNL     1       0.252   6.346   1.154  0.00  0.00    +0.009 A 
ATOM      5  C   UNL     1       0.080   7.691   1.405  0.00  0.00    +0.001 A 
ATOM      6  C   UNL     1      -0.743   8.107   2.438  0.00  0.00    +0.001 A 
ATOM      7  C   UNL     1      -1.404   7.179   3.223  0.00  0.00    +0.020 A 
ATOM      8  C   UNL     1      -1.247   5.829   2.982  0.00  0.00    +0.048 A 
ATOM      9 CL   UNL     1      -2.077   4.666   3.968  0.00  0.00    -0.083 Cl
ENDBRANCH   2   3
BRANCH   1  12
ATOM     10  C   UNL     1       2.637   4.518  -0.121  0.00  0.00    +0.248 C 
ATOM     11  O   UNL     1       2.179   3.982  -1.111  0.00  0.00    -0.270 OA
ATOM     12  N   UNL     1       2.028   4.366   1.071  0.00  0.00    -0.277 N 
ATOM     13  H   UNL     1       2.347   4.856   1.845  0.00  0.00    +0.155 HD
BRANCH  10  17
ATOM     14  C   UNL     1       6.162   6.870  -0.420  0.00  0.00    +0.000 A 
ATOM     15  C   UNL     1       5.581   6.351  -1.563  0.00  0.00    +0.001 A 
ATOM     16  C   UNL     1       4.436   5.586  -1.474  0.00  0.00    +0.013 A 
ATOM     17  C   UNL     1       3.864   5.337  -0.225  0.00  0.00    +0.037 A 
ATOM     18  C   UNL     1       4.451   5.868   0.924  0.00  0.00    +0.013 A 
ATOM     19  C   UNL     1       5.599   6.627   0.821  0.00  0.00    +0.001 A 
ENDBRANCH  10  17
ENDBRANCH   1  12
BRANCH   1  20
ATOM     20  C   UNL     1       1.065   2.094   0.796  0.00  0.00    +0.277 C 
ATOM     21  O   UNL     1       2.123   1.679   0.361  0.00  0.00    -0.267 OA
ATOM     22  N   UNL     1       0.011   1.262   0.913  0.00  0.00    -0.202 N 
ATOM     23  H   UNL     1      -0.834   1.593   1.255  0.00  0.00    +0.178 HD
BRANCH  22  24
ATOM     24  N   UNL     1       0.135  -0.082   0.534  0.00  0.00    -0.187 NA
ATOM     25  C   UNL     1      -0.911  -0.851   0.522  0.00  0.00    +0.138 C 
BRANCH  25  26
ATOM     26  C   UNL     1      -2.259  -0.262   0.431  0.00  0.00    -0.005 A 
ATOM     27  C   UNL     1      -3.386  -1.046   0.690  0.00  0.00    +0.011 A 
ATOM     28  C   UNL     1      -4.644  -0.487   0.608  0.00  0.00    +0.020 A 
ATOM     29  C   UNL     1      -4.792   0.845   0.260  0.00  0.00    +0.041 A 
ATOM     30  C   UNL     1      -3.679   1.627  -0.002  0.00  0.00    +0.020 A 
ATOM     31  C   UNL     1      -2.415   1.082   0.082  0.00  0.00    +0.011 A 
ATOM     32 CL   UNL     1      -6.380   1.539   0.152  0.00  0.00    -0.084 Cl
ENDBRANCH  25  26
ENDBRANCH  22  24
ENDBRANCH   1  20
TORSDOF 6
