REMARK  Name = ZINC22748049
REMARK  9 active torsions:
REMARK  status: ('A' for Active; 'I' for Inactive)
REMARK    1  A    between atoms: C_1  and  C_2
REMARK    2  A    between atoms: C_2  and  O_3
REMARK    3  A    between atoms: O_3  and  C_4
REMARK    4  A    between atoms: C_4  and  C_6
REMARK    5  A    between atoms: C_10  and  N_11
REMARK    6  A    between atoms: C_12  and  C_14
REMARK    7  A    between atoms: C_14  and  N_15
REMARK    8  A    between atoms: N_26  and  C_29
REMARK    9  A    between atoms: C_29  and  C_30
REMARK                            x       y       z     vdW  Elec       q    Type
REMARK                         _______ _______ _______ _____ _____    ______ ____
ROOT
ATOM      1  C   UNL     1       3.660   6.287  -5.104  0.00  0.00    +0.091 A 
ATOM      2  C   UNL     1       3.391   6.185  -3.681  0.00  0.00    -0.019 A 
ATOM      3  C   UNL     1       2.083   6.162  -3.341  0.00  0.00    +0.010 A 
ATOM      4  S   UNL     1       1.214   6.275  -4.878  0.00  0.00    -0.076 S 
ATOM      5  C   UNL     1       2.567   6.351  -5.959  0.00  0.00    +0.086 A 
ATOM      6  C   UNL     1       1.527   6.060  -1.955  0.00  0.00    +0.127 C 
ATOM      7  N   UNL     1       2.612   5.629  -1.054  0.00  0.00    -0.293 NA
ATOM      8  C   UNL     1       3.814   6.449  -1.258  0.00  0.00    +0.090 C 
ATOM      9  C   UNL     1       4.464   6.106  -2.601  0.00  0.00    +0.052 C 
ENDROOT
BRANCH   5  10
ATOM     10  N   UNL     1       2.560   6.451  -7.341  0.00  0.00    -0.281 N 
ATOM     11  C   UNL     1       1.389   6.502  -8.007  0.00  0.00    +0.201 C 
ATOM     12  O   UNL     1       0.342   6.459  -7.397  0.00  0.00    -0.278 OA
ATOM     13  H   UNL     1       3.510   6.490  -7.895  0.00  0.00    +0.155 HD
BRANCH  11  14
ATOM     14  C   UNL     1       1.381   6.611  -9.510  0.00  0.00    +0.019 C 
BRANCH  14  15
ATOM     15  N   UNL     1       0.002   6.498 -10.002  0.00  0.00    +0.388 N 
ATOM     16  C   UNL     1      -0.539   5.152  -9.753  0.00  0.00    -0.073 C 
ATOM     17  C   UNL     1      -2.056   5.197  -9.938  0.00  0.00    +0.017 C 
ATOM     18  C   UNL     1      -2.395   5.848 -11.254  0.00  0.00    -0.048 A 
ATOM     19  C   UNL     1      -3.671   5.674 -11.769  0.00  0.00    +0.004 A 
ATOM     20  C   UNL     1      -4.025   6.257 -12.969  0.00  0.00    +0.000 A 
ATOM     21  C   UNL     1      -3.102   7.018 -13.662  0.00  0.00    +0.000 A 
ATOM     22  C   UNL     1      -1.831   7.191 -13.151  0.00  0.00    +0.002 A 
ATOM     23  C   UNL     1      -1.474   6.605 -11.945  0.00  0.00    -0.061 A 
ATOM     24  C   UNL     1      -0.074   6.819 -11.431  0.00  0.00    -0.042 C 
ATOM     25  H   UNL     1      -0.609   7.229  -9.451  0.00  0.00    -0.081 HD
ENDBRANCH  14  15
ENDBRANCH  11  14
ENDBRANCH   5  10
BRANCH   1  26
ATOM     26  C   UNL     1       5.031   6.322  -5.618  0.00  0.00    +0.342 C 
ATOM     27  O   UNL     1       5.599   5.286  -5.907  0.00  0.00    -0.245 OA
BRANCH  26  28
ATOM     28  O   UNL     1       5.664   7.503  -5.770  0.00  0.00    -0.461 OA
BRANCH  28  30
ATOM     29  C   UNL     1       7.571   8.887  -6.388  0.00  0.00    +0.048 C 
ATOM     30  C   UNL     1       7.021   7.462  -6.285  0.00  0.00    +0.229 C 
ENDBRANCH  28  30
ENDBRANCH  26  28
ENDBRANCH   1  26
BRANCH   7  31
ATOM     31  C   UNL     1       2.178   5.670   0.349  0.00  0.00    +0.120 C 
BRANCH  31  32
ATOM     32  C   UNL     1       0.821   5.028   0.474  0.00  0.00    -0.033 A 
ATOM     33  C   UNL     1       0.718   3.672   0.723  0.00  0.00    +0.005 A 
ATOM     34  C   UNL     1      -0.527   3.083   0.838  0.00  0.00    +0.000 A 
ATOM     35  C   UNL     1      -1.670   3.849   0.699  0.00  0.00    +0.000 A 
ATOM     36  C   UNL     1      -1.567   5.205   0.455  0.00  0.00    +0.000 A 
ATOM     37  C   UNL     1      -0.322   5.795   0.341  0.00  0.00    +0.005 A 
ENDBRANCH  31  32
ENDBRANCH   7  31
TORSDOF 8
