REMARK  Name = ZINC15729244
REMARK  6 active torsions:
REMARK  status: ('A' for Active; 'I' for Inactive)
REMARK    1  A    between atoms: C_1  and  C_2
REMARK    2  A    between atoms: C_5  and  N_8
REMARK    3  A    between atoms: N_10  and  C_11
REMARK    4  A    between atoms: C_18  and  N_25
REMARK    5  A    between atoms: C_20  and  C_23
REMARK    6  A    between atoms: C_20  and  C_24
REMARK                            x       y       z     vdW  Elec       q    Type
REMARK                         _______ _______ _______ _____ _____    ______ ____
ROOT
ATOM      1  N   UNL     1       0.082  -4.151   0.007  0.00  0.00    -0.226 N 
ATOM      2  C   UNL     1      -0.246  -4.822  -1.141  0.00  0.00    +0.127 C 
ATOM      3  N   UNL     1      -0.151  -4.348  -2.348  0.00  0.00    -0.235 NA
ATOM      4  C   UNL     1      -0.736  -6.205  -0.773  0.00  0.00    +0.136 C 
ATOM      5  C   UNL     1      -0.641  -6.232   0.765  0.00  0.00    +0.064 C 
ATOM      6  C   UNL     1      -0.103  -4.865   1.123  0.00  0.00    +0.233 C 
ATOM      7  O   UNL     1       0.125  -4.476   2.249  0.00  0.00    -0.274 OA
ATOM      8  C   UNL     1      -2.024  -6.447   1.383  0.00  0.00    +0.022 C 
ATOM      9  C   UNL     1       0.325  -7.325   1.224  0.00  0.00    +0.022 C 
ENDROOT
BRANCH   1  14
ATOM     10  C   UNL     1       2.064   1.167   0.023  0.00  0.00    +0.044 C 
ATOM     11  C   UNL     1       1.538  -0.245   0.019  0.00  0.00    -0.050 A 
ATOM     12  C   UNL     1       2.291  -1.261  -0.542  0.00  0.00    +0.005 A 
ATOM     13  C   UNL     1       1.813  -2.557  -0.543  0.00  0.00    +0.024 A 
ATOM     14  C   UNL     1       0.572  -2.838   0.011  0.00  0.00    +0.042 A 
ATOM     15  C   UNL     1      -0.184  -1.815   0.569  0.00  0.00    +0.024 A 
ATOM     16  C   UNL     1       0.301  -0.522   0.572  0.00  0.00    +0.005 A 
ENDBRANCH   1  14
BRANCH   3  17
ATOM     17  C   UNL     1      -0.329  -5.178  -3.426  0.00  0.00    +0.066 A 
ATOM     18  C   UNL     1       0.380  -6.377  -3.512  0.00  0.00    +0.029 A 
ATOM     19  C   UNL     1       0.193  -7.209  -4.596  0.00  0.00    +0.022 A 
ATOM     20  C   UNL     1      -0.688  -6.852  -5.603  0.00  0.00    +0.041 A 
ATOM     21  C   UNL     1      -1.390  -5.661  -5.526  0.00  0.00    +0.022 A 
ATOM     22  C   UNL     1      -1.215  -4.823  -4.444  0.00  0.00    +0.029 A 
ATOM     23 CL   UNL     1      -0.913  -7.901  -6.968  0.00  0.00    -0.084 Cl
ENDBRANCH   3  17
BRANCH   4  24
ATOM     24  N   UNL     1      -2.127  -6.393  -1.208  0.00  0.00    -0.291 NA
ATOM     25  C   UNL     1      -2.186  -7.094  -2.492  0.00  0.00    +0.096 C 
ATOM     26  C   UNL     1      -3.587  -7.679  -2.702  0.00  0.00    +0.084 C 
ATOM     27  S   UNL     1      -4.781  -6.306  -2.732  0.00  0.00    -0.158 S 
ATOM     28  C   UNL     1      -4.358  -5.372  -1.228  0.00  0.00    +0.084 C 
ATOM     29  C   UNL     1      -2.846  -5.117  -1.229  0.00  0.00    +0.096 C 
ENDBRANCH   4  24
TORSDOF 3
