REMARK  Name = ZINC66220309
REMARK  6 active torsions:
REMARK  status: ('A' for Active; 'I' for Inactive)
REMARK    1  A    between atoms: C_1  and  C_2
REMARK    2  A    between atoms: C_2  and  C_3
REMARK    3  A    between atoms: C_2  and  C_4
REMARK    4  A    between atoms: C_2  and  C_5
REMARK    5  A    between atoms: N_15  and  C_16
REMARK    6  A    between atoms: C_16  and  C_20
REMARK                            x       y       z     vdW  Elec       q    Type
REMARK                         _______ _______ _______ _____ _____    ______ ____
ROOT
ATOM      1  C   UNL     1       0.732  -0.495  -1.233  0.00  0.00    +0.221 C 
ATOM      2  O   UNL     1       1.292   0.297  -1.961  0.00  0.00    -0.275 OA
ATOM      3  N   UNL     1       0.774  -1.813  -1.512  0.00  0.00    -0.298 N 
ATOM      4  C   UNL     1       0.194  -2.793  -0.583  0.00  0.00    +0.127 C 
ATOM      5  C   UNL     1      -0.825  -3.649  -1.346  0.00  0.00    +0.128 C 
ATOM      6  N   UNL     1      -0.199  -4.131  -2.585  0.00  0.00    -0.283 N 
ATOM      7  C   UNL     1       0.381  -3.151  -3.514  0.00  0.00    +0.128 C 
ATOM      8  C   UNL     1       1.395  -2.296  -2.753  0.00  0.00    +0.127 C 
ATOM      9  C   UNL     1      -0.156  -5.449  -2.864  0.00  0.00    +0.303 C 
ATOM     10  O   UNL     1      -0.721  -6.243  -2.136  0.00  0.00    -0.253 OA
ATOM     11  N   UNL     1       0.512  -5.887  -3.949  0.00  0.00    -0.290 N 
ATOM     12  H   UNL     1       1.024  -5.264  -4.488  0.00  0.00    +0.151 HD
ENDROOT
BRANCH   1  14
ATOM     13  C   UNL     1       0.046   1.522   0.035  0.00  0.00    +0.020 C 
ATOM     14  C   UNL     1      -0.011  -0.006  -0.017  0.00  0.00    +0.039 C 
ATOM     15  C   UNL     1       0.637  -0.584   1.243  0.00  0.00    +0.020 C 
ATOM     16  C   UNL     1      -1.470  -0.460  -0.093  0.00  0.00    +0.020 C 
ENDBRANCH   1  14
BRANCH  11  17
ATOM     17  C   UNL     1       0.465  -7.305  -4.315  0.00  0.00    +0.061 C 
ATOM     18  C   UNL     1       0.892  -7.581  -5.767  0.00  0.00    +0.031 C 
ATOM     19  C   UNL     1      -0.582  -7.377  -6.156  0.00  0.00    +0.005 C 
ATOM     20  C   UNL     1      -0.937  -7.791  -4.718  0.00  0.00    +0.031 C 
BRANCH  17  21
ATOM     21  C   UNL     1       1.145  -8.193  -3.305  0.00  0.00    -0.024 A 
ATOM     22  C   UNL     1       0.928  -9.558  -3.329  0.00  0.00    +0.006 A 
ATOM     23  C   UNL     1       1.552 -10.373  -2.402  0.00  0.00    +0.000 A 
ATOM     24  C   UNL     1       2.392  -9.823  -1.453  0.00  0.00    +0.000 A 
ATOM     25  C   UNL     1       2.610  -8.458  -1.430  0.00  0.00    +0.000 A 
ATOM     26  C   UNL     1       1.990  -7.644  -2.359  0.00  0.00    +0.006 A 
ENDBRANCH  17  21
ENDBRANCH  11  17
TORSDOF 3
