REMARK  Name = ZINC20722473
REMARK  7 active torsions:
REMARK  status: ('A' for Active; 'I' for Inactive)
REMARK    1  A    between atoms: C_1  and  O_2
REMARK    2  A    between atoms: O_2  and  C_3
REMARK    3  A    between atoms: C_3  and  C_5
REMARK    4  A    between atoms: C_5  and  C_7
REMARK    5  A    between atoms: C_5  and  N_14
REMARK    6  A    between atoms: C_7  and  C_8
REMARK    7  A    between atoms: C_26  and  C_28
REMARK                            x       y       z     vdW  Elec       q    Type
REMARK                         _______ _______ _______ _____ _____    ______ ____
ROOT
ATOM      1  N   UNL     1       2.938  -2.342   1.556  0.00  0.00    -0.286 N 
ATOM      2  C   UNL     1       2.521  -2.836   2.739  0.00  0.00    +0.304 C 
ATOM      3  O   UNL     1       1.334  -2.866   3.001  0.00  0.00    -0.253 OA
ATOM      4  N   UNL     1       3.421  -3.296   3.631  0.00  0.00    -0.273 N 
ATOM      5  C   UNL     1       2.983  -3.941   4.878  0.00  0.00    +0.116 C 
ATOM      6  C   UNL     1       3.435  -5.407   4.872  0.00  0.00    +0.076 C 
ATOM      7  C   UNL     1       4.871  -5.472   4.414  0.00  0.00    +0.066 A 
ATOM      8  C   UNL     1       5.505  -4.482   3.750  0.00  0.00    +0.064 A 
ATOM      9  N   UNL     1       6.774  -4.908   3.506  0.00  0.00    -0.346 N 
ATOM     10  H   UNL     1       7.469  -4.415   3.043  0.00  0.00    +0.167 HD
ATOM     11  C   UNL     1       6.881  -6.150   4.033  0.00  0.00    +0.197 A 
ATOM     12  N   UNL     1       5.737  -6.478   4.574  0.00  0.00    -0.240 NA
ATOM     13  C   UNL     1       4.868  -3.171   3.379  0.00  0.00    +0.158 C 
ATOM     14  H   UNL     1       3.886  -2.250   1.376  0.00  0.00    +0.151 HD
ENDROOT
BRANCH  13  15
ATOM     15  C   UNL     1       5.443  -2.067   4.229  0.00  0.00    -0.003 A 
ATOM     16  C   UNL     1       4.723  -1.573   5.301  0.00  0.00    +0.007 A 
ATOM     17  C   UNL     1       5.250  -0.560   6.080  0.00  0.00    +0.000 A 
ATOM     18  C   UNL     1       6.498  -0.042   5.789  0.00  0.00    +0.001 A 
ATOM     19  C   UNL     1       7.219  -0.535   4.718  0.00  0.00    +0.020 A 
ATOM     20  C   UNL     1       6.694  -1.552   3.941  0.00  0.00    +0.046 A 
ATOM     21 CL   UNL     1       7.602  -2.177   2.599  0.00  0.00    -0.083 Cl
ENDBRANCH  13  15
BRANCH   1  22
ATOM     22  C   UNL     1       1.957  -1.946   0.542  0.00  0.00    +0.187 C 
BRANCH  22  23
ATOM     23  C   UNL     1       1.555  -3.152  -0.267  0.00  0.00    +0.328 C 
ATOM     24  O   UNL     1       2.038  -4.232  -0.021  0.00  0.00    -0.249 OA
BRANCH  23  26
ATOM     25  C   UNL     1       0.326  -4.212  -1.985  0.00  0.00    +0.280 C 
ATOM     26  O   UNL     1       0.661  -3.027  -1.260  0.00  0.00    -0.467 OA
ENDBRANCH  23  26
ENDBRANCH  22  23
BRANCH  22  27
ATOM     27  C   UNL     1       2.576  -0.896  -0.383  0.00  0.00    +0.069 C 
BRANCH  27  28
ATOM     28  C   UNL     1       2.866   0.357   0.403  0.00  0.00    -0.045 A 
ATOM     29  C   UNL     1       1.904   1.345   0.509  0.00  0.00    +0.004 A 
ATOM     30  C   UNL     1       2.169   2.494   1.230  0.00  0.00    +0.000 A 
ATOM     31  C   UNL     1       3.396   2.656   1.845  0.00  0.00    +0.000 A 
ATOM     32  C   UNL     1       4.358   1.668   1.740  0.00  0.00    +0.000 A 
ATOM     33  C   UNL     1       4.091   0.517   1.023  0.00  0.00    +0.004 A 
ENDBRANCH  27  28
ENDBRANCH  22  27
ENDBRANCH   1  22
TORSDOF 6
