REMARK  Name = ZINC64981668
REMARK  6 active torsions:
REMARK  status: ('A' for Active; 'I' for Inactive)
REMARK    1  A    between atoms: C_1  and  C_2
REMARK    2  A    between atoms: C_5  and  C_8
REMARK    3  A    between atoms: C_8  and  O_9
REMARK    4  A    between atoms: O_9  and  C_10
REMARK    5  A    between atoms: C_15  and  C_16
REMARK    6  A    between atoms: N_17  and  N_18
REMARK                            x       y       z     vdW  Elec       q    Type
REMARK                         _______ _______ _______ _____ _____    ______ ____
ROOT
ATOM      1  C   UNL     1       4.067  -5.676  -0.271  0.00  0.00    +0.142 C 
ATOM      2  N   UNL     1       3.894  -4.405  -0.074  0.00  0.00    -0.187 NA
ENDROOT
BRANCH   2   3
ATOM      3  N   UNL     1       4.980  -3.526  -0.181  0.00  0.00    -0.204 N 
ATOM      4  C   UNL     1       4.820  -2.187   0.133  0.00  0.00    +0.256 A 
ATOM      5  N   UNL     1       5.824  -1.345  -0.074  0.00  0.00    -0.192 NA
ATOM      6  C   UNL     1       5.669  -0.060   0.228  0.00  0.00    +0.163 A 
ATOM      7  C   UNL     1       4.432   0.358   0.761  0.00  0.00    +0.137 A 
ATOM      8  C   UNL     1       4.550   1.807   0.995  0.00  0.00    +0.029 A 
ATOM      9  C   UNL     1       3.682   2.773   1.498  0.00  0.00    +0.012 A 
ATOM     10  C   UNL     1       4.098   4.083   1.597  0.00  0.00    +0.001 A 
ATOM     11  C   UNL     1       5.377   4.442   1.198  0.00  0.00    +0.002 A 
ATOM     12  C   UNL     1       6.246   3.496   0.698  0.00  0.00    +0.026 A 
ATOM     13  C   UNL     1       5.845   2.168   0.591  0.00  0.00    +0.050 A 
ATOM     14  N   UNL     1       6.494   1.033   0.135  0.00  0.00    -0.338 N 
ATOM     15  H   UNL     1       7.404   1.013  -0.201  0.00  0.00    +0.167 HD
ATOM     16  N   UNL     1       3.467  -0.533   0.943  0.00  0.00    -0.142 NA
ATOM     17  N   UNL     1       3.661  -1.768   0.632  0.00  0.00    -0.111 NA
ATOM     18  H   UNL     1       5.843  -3.855  -0.475  0.00  0.00    +0.177 HD
ENDBRANCH   2   3
BRANCH   1  24
ATOM     19  C   UNL     1       1.608  -6.072  -0.160  0.00  0.00    +0.130 A 
ATOM     20  C   UNL     1       0.525  -6.936  -0.165  0.00  0.00    +0.046 A 
ATOM     21  C   UNL     1       0.726  -8.299  -0.270  0.00  0.00    +0.004 A 
ATOM     22  C   UNL     1       2.008  -8.812  -0.372  0.00  0.00    +0.001 A 
ATOM     23  C   UNL     1       3.098  -7.966  -0.369  0.00  0.00    +0.013 A 
ATOM     24  C   UNL     1       2.907  -6.586  -0.269  0.00  0.00    +0.036 A 
BRANCH  19  25
ATOM     25  O   UNL     1       1.411  -4.732  -0.057  0.00  0.00    -0.487 OA
BRANCH  25  26
ATOM     26  C   UNL     1       0.058  -4.272  -0.067  0.00  0.00    +0.264 C 
BRANCH  26  31
ATOM     27  C   UNL     1      -0.016   1.506  -0.066  0.00  0.00    +0.044 C 
ATOM     28  C   UNL     1       0.003  -0.001  -0.066  0.00  0.00    -0.050 A 
ATOM     29  C   UNL     1      -0.079  -0.693  -1.260  0.00  0.00    +0.004 A 
ATOM     30  C   UNL     1      -0.061  -2.075  -1.260  0.00  0.00    +0.007 A 
ATOM     31  C   UNL     1       0.040  -2.766  -0.066  0.00  0.00    -0.010 A 
ATOM     32  C   UNL     1       0.123  -2.074   1.127  0.00  0.00    +0.007 A 
ATOM     33  C   UNL     1       0.110  -0.691   1.127  0.00  0.00    +0.004 A 
ENDBRANCH  26  31
ENDBRANCH  25  26
ENDBRANCH  19  25
ENDBRANCH   1  24
TORSDOF 5
