REMARK  Name = ZINC06418022
REMARK  9 active torsions:
REMARK  status: ('A' for Active; 'I' for Inactive)
REMARK    1  A    between atoms: C_1  and  C_2
REMARK    2  A    between atoms: C_3  and  C_26
REMARK    3  A    between atoms: C_5  and  C_18
REMARK    4  A    between atoms: N_6  and  C_7
REMARK    5  A    between atoms: C_7  and  C_9
REMARK    6  A    between atoms: C_7  and  C_10
REMARK    7  A    between atoms: C_10  and  C_11
REMARK    8  A    between atoms: C_11  and  C_12
REMARK    9  A    between atoms: C_21  and  C_24
REMARK                            x       y       z     vdW  Elec       q    Type
REMARK                         _______ _______ _______ _____ _____    ______ ____
ROOT
ATOM      1  C   UNL     1       6.050   0.170  -3.666  0.00  0.00    +0.064 C 
ATOM      2  C   UNL     1       6.025  -1.329  -3.822  0.00  0.00    +0.029 A 
ATOM      3  C   UNL     1       6.225  -2.022  -4.997  0.00  0.00    +0.057 A 
ATOM      4  C   UNL     1       6.115  -3.401  -4.688  0.00  0.00    +0.041 A 
ATOM      5  C   UNL     1       5.862  -3.492  -3.356  0.00  0.00    +0.050 A 
ATOM      6  N   UNL     1       5.804  -2.221  -2.837  0.00  0.00    -0.341 N 
ENDROOT
BRANCH   5   7
ATOM      7  C   UNL     1       5.678  -4.744  -2.595  0.00  0.00    -0.001 A 
ATOM      8  C   UNL     1       6.097  -4.821  -1.263  0.00  0.00    +0.011 A 
ATOM      9  C   UNL     1       5.921  -5.977  -0.558  0.00  0.00    +0.019 A 
ATOM     10  C   UNL     1       5.334  -7.088  -1.171  0.00  0.00    +0.052 A 
ATOM     11  C   UNL     1       4.920  -7.013  -2.505  0.00  0.00    +0.019 A 
ATOM     12  C   UNL     1       5.090  -5.854  -3.208  0.00  0.00    +0.011 A 
BRANCH  10  13
ATOM     13  C   UNL     1       5.156  -8.303  -0.434  0.00  0.00    +0.099 C 
ATOM     14  N   UNL     1       5.015  -9.266   0.151  0.00  0.00    -0.191 NA
ENDBRANCH  10  13
ENDBRANCH   5   7
BRANCH   3  15
ATOM     15  C   UNL     1       6.500  -1.440  -6.322  0.00  0.00    +0.243 C 
ATOM     16  O   UNL     1       6.569  -0.233  -6.454  0.00  0.00    -0.270 OA
ATOM     17  N   UNL     1       6.675  -2.245  -7.389  0.00  0.00    -0.325 N 
ATOM     18  H   UNL     1       6.620  -3.208  -7.284  0.00  0.00    +0.145 HD
ATOM     19  H   UNL     1       6.856  -1.862  -8.261  0.00  0.00    +0.145 HD
ENDBRANCH   3  15
BRANCH   6  20
ATOM     20  C   UNL     1       5.548  -1.889  -1.433  0.00  0.00    +0.085 C 
ATOM     21  C   UNL     1       6.683  -1.009  -0.902  0.00  0.00    +0.031 C 
BRANCH  20  22
ATOM     22  C   UNL     1       4.223  -1.133  -1.321  0.00  0.00    +0.029 C 
BRANCH  22  23
ATOM     23  C   UNL     1       3.881  -0.918   0.154  0.00  0.00    +0.037 C 
BRANCH  23  24
ATOM     24  C   UNL     1       2.576  -0.174   0.265  0.00  0.00    -0.047 A 
ATOM     25  C   UNL     1       1.385  -0.873   0.331  0.00  0.00    +0.003 A 
ATOM     26  C   UNL     1       0.187  -0.191   0.432  0.00  0.00    +0.000 A 
ATOM     27  C   UNL     1       0.180   1.191   0.467  0.00  0.00    +0.000 A 
ATOM     28  C   UNL     1       1.370   1.891   0.402  0.00  0.00    +0.000 A 
ATOM     29  C   UNL     1       2.568   1.208   0.300  0.00  0.00    +0.003 A 
ENDBRANCH  23  24
ENDBRANCH  22  23
ENDBRANCH  20  22
ENDBRANCH   6  20
TORSDOF 7
