REMARK  Name = ZINC33932989
REMARK  8 active torsions:
REMARK  status: ('A' for Active; 'I' for Inactive)
REMARK    1  A    between atoms: C_1  and  C_2
REMARK    2  A    between atoms: C_12  and  N_17
REMARK    3  A    between atoms: C_14  and  O_16
REMARK    4  A    between atoms: N_20  and  C_23
REMARK    5  A    between atoms: C_28  and  C_43
REMARK    6  A    between atoms: C_30  and  N_36
REMARK    7  A    between atoms: C_32  and  O_35
REMARK    8  A    between atoms: N_39  and  C_42
REMARK                            x       y       z     vdW  Elec       q    Type
REMARK                         _______ _______ _______ _____ _____    ______ ____
ROOT
ATOM      1  C   UNL     1      -1.043   1.486   0.120  0.00  0.00    +0.014 C 
ATOM      2  C   UNL     1      -0.535   0.055  -0.157  0.00  0.00    -0.001 C 
ATOM      3  C   UNL     1      -0.285  -0.150  -1.651  0.00  0.00    +0.010 C 
ATOM      4  C   UNL     1       0.971   0.552  -2.131  0.00  0.00    +0.005 C 
ATOM      5  C   UNL     1       2.215   0.154  -1.353  0.00  0.00    -0.001 C 
ATOM      6  C   UNL     1       2.017   0.181   0.134  0.00  0.00    -0.004 C 
ATOM      7  C   UNL     1       0.695  -0.268   0.688  0.00  0.00    +0.002 C 
ATOM      8  C   UNL     1       0.618  -1.743   1.076  0.00  0.00    +0.026 C 
ATOM      9  C   UNL     1      -0.869  -2.133   0.974  0.00  0.00    +0.086 C 
ATOM     10  C   UNL     1      -1.602  -0.986   0.267  0.00  0.00    +0.138 C 
ATOM     11  C   UNL     1       3.185  -0.370   0.943  0.00  0.00    +0.004 C 
ATOM     12  C   UNL     1       3.763  -1.646   0.341  0.00  0.00    +0.004 C 
ATOM     13  C   UNL     1       4.150  -1.388  -1.112  0.00  0.00    -0.002 C 
ATOM     14  C   UNL     1       2.902  -1.075  -1.937  0.00  0.00    -0.025 C 
ATOM     15  C   UNL     1       3.335  -0.752  -3.373  0.00  0.00    +0.028 C 
ATOM     16  C   UNL     1       4.249  -1.788  -3.997  0.00  0.00    +0.086 C 
ATOM     17  C   UNL     1       5.396  -2.214  -3.095  0.00  0.00    +0.132 C 
ATOM     18  C   UNL     1       4.895  -2.583  -1.698  0.00  0.00    +0.037 C 
ATOM     19  C   UNL     1       1.966  -2.280  -1.962  0.00  0.00    +0.012 C 
ENDROOT
BRANCH   9  20
ATOM     20  N   UNL     1      -1.016  -3.381   0.213  0.00  0.00    -0.300 NA
ATOM     21  C   UNL     1      -2.350  -3.965   0.411  0.00  0.00    +0.066 C 
ATOM     22  C   UNL     1      -2.483  -5.228  -0.443  0.00  0.00    -0.064 C 
ATOM     23  N   UNL     1      -1.445  -6.192  -0.055  0.00  0.00    +0.379 N 
ATOM     24  C   UNL     1      -0.118  -5.605  -0.281  0.00  0.00    -0.064 C 
ATOM     25  C   UNL     1       0.034  -4.345   0.574  0.00  0.00    +0.066 C 
ATOM     26  C   UNL     1      -1.585  -7.412  -0.862  0.00  0.00    -0.096 C 
ATOM     27  H   UNL     1      -1.549  -6.423   0.922  0.00  0.00    -0.082 HD
ENDBRANCH   9  20
BRANCH  16  28
ATOM     28  N   UNL     1       3.507  -2.962  -4.476  0.00  0.00    -0.300 NA
ATOM     29  C   UNL     1       4.268  -3.682  -5.506  0.00  0.00    +0.066 C 
ATOM     30  C   UNL     1       3.489  -4.927  -5.934  0.00  0.00    -0.064 C 
ATOM     31  N   UNL     1       2.176  -4.528  -6.459  0.00  0.00    +0.379 N 
ATOM     32  C   UNL     1       1.419  -3.832  -5.411  0.00  0.00    -0.064 C 
ATOM     33  C   UNL     1       2.181  -2.577  -4.979  0.00  0.00    +0.066 C 
ATOM     34  C   UNL     1       1.436  -5.722  -6.887  0.00  0.00    -0.096 C 
ATOM     35  H   UNL     1       2.303  -3.911  -7.248  0.00  0.00    -0.082 HD
ENDBRANCH  16  28
BRANCH  10  36
ATOM     36  O   UNL     1      -2.309  -1.472  -0.876  0.00  0.00    -0.390 OA
ATOM     37  H   UNL     1      -3.151  -1.899  -0.666  0.00  0.00    +0.210 HD
ENDBRANCH  10  36
BRANCH  17  38
ATOM     38  O   UNL     1       6.056  -3.350  -3.666  0.00  0.00    -0.390 OA
ATOM     39  H   UNL     1       6.801  -3.677  -3.143  0.00  0.00    +0.210 HD
ENDBRANCH  17  38
TORSDOF 4
