REMARK  Name = ZINC40321619
REMARK  9 active torsions:
REMARK  status: ('A' for Active; 'I' for Inactive)
REMARK    1  A    between atoms: C_1  and  O_2
REMARK    2  A    between atoms: O_2  and  C_3
REMARK    3  A    between atoms: C_6  and  C_9
REMARK    4  A    between atoms: C_9  and  C_11
REMARK    5  A    between atoms: C_9  and  N_29
REMARK    6  A    between atoms: C_11  and  N_12
REMARK    7  A    between atoms: C_13  and  C_15
REMARK    8  A    between atoms: C_18  and  S_20
REMARK    9  A    between atoms: S_20  and  C_23
REMARK                            x       y       z     vdW  Elec       q    Type
REMARK                         _______ _______ _______ _____ _____    ______ ____
ROOT
ATOM      1  N   UNL     1       4.693  -1.749  -3.639  0.00  0.00    -0.310 N 
ATOM      2  C   UNL     1       5.972  -1.901  -3.241  0.00  0.00    +0.279 C 
ATOM      3  O   UNL     1       6.414  -3.014  -3.028  0.00  0.00    -0.267 OA
ATOM      4  H   UNL     1       4.340  -0.861  -3.809  0.00  0.00    +0.149 HD
ENDROOT
BRANCH   2   5
ATOM      5  C   UNL     1       6.830  -0.724  -3.066  0.00  0.00    +0.192 A 
ATOM      6  C   UNL     1       8.138  -0.736  -2.675  0.00  0.00    +0.056 A 
ATOM      7  C   UNL     1       8.561   0.601  -2.640  0.00  0.00    +0.070 A 
ATOM      8  C   UNL     1       7.506   1.362  -3.007  0.00  0.00    +0.246 A 
ATOM      9  O   UNL     1       6.466   0.559  -3.268  0.00  0.00    -0.433 OA
BRANCH   8  10
ATOM     10  S   UNL     1       7.502   3.120  -3.128  0.00  0.00    +0.058 S 
ATOM     11  O   UNL     1       6.150   3.533  -2.984  0.00  0.00    -0.161 OA
ATOM     12  O   UNL     1       8.537   3.589  -2.275  0.00  0.00    -0.161 OA
BRANCH  10  13
ATOM     13  C   UNL     1       7.981   3.530  -4.774  0.00  0.00    +0.097 A 
ATOM     14  C   UNL     1       9.316   3.712  -5.080  0.00  0.00    +0.027 A 
ATOM     15  C   UNL     1       9.692   4.034  -6.370  0.00  0.00    +0.002 A 
ATOM     16  C   UNL     1       8.732   4.173  -7.355  0.00  0.00    +0.000 A 
ATOM     17  C   UNL     1       7.397   3.990  -7.050  0.00  0.00    +0.002 A 
ATOM     18  C   UNL     1       7.021   3.664  -5.760  0.00  0.00    +0.027 A 
ENDBRANCH  10  13
ENDBRANCH   8  10
ENDBRANCH   2   5
BRANCH   1  19
ATOM     19  C   UNL     1       3.836  -2.924  -3.815  0.00  0.00    +0.094 C 
BRANCH  19  20
ATOM     20  C   UNL     1       2.411  -2.472  -4.139  0.00  0.00    -0.020 C 
BRANCH  20  21
ATOM     21  N   UNL     1       1.569  -3.649  -4.394  0.00  0.00    +0.385 N 
ATOM     22  C   UNL     1       2.087  -4.376  -5.559  0.00  0.00    -0.078 C 
ATOM     23  C   UNL     1       1.264  -5.647  -5.779  0.00  0.00    -0.019 C 
ATOM     24  C   UNL     1      -0.199  -5.264  -6.023  0.00  0.00    -0.004 C 
ATOM     25  C   UNL     1      -0.706  -4.443  -4.834  0.00  0.00    -0.019 C 
ATOM     26  C   UNL     1       0.190  -3.217  -4.649  0.00  0.00    -0.078 C 
ATOM     27  H   UNL     1       1.587  -4.254  -3.587  0.00  0.00    -0.081 HD
ENDBRANCH  20  21
BRANCH  20  31
ATOM     28  C   UNL     1       0.825  -0.275  -0.834  0.00  0.00    +0.120 A 
ATOM     29  C   UNL     1       1.328   0.398  -1.939  0.00  0.00    +0.046 A 
ATOM     30  C   UNL     1       1.840  -0.315  -3.006  0.00  0.00    +0.005 A 
ATOM     31  C   UNL     1       1.852  -1.697  -2.974  0.00  0.00    -0.059 A 
ATOM     32  C   UNL     1       1.351  -2.370  -1.875  0.00  0.00    +0.005 A 
ATOM     33  C   UNL     1       0.844  -1.662  -0.802  0.00  0.00    +0.046 A 
BRANCH  28  35
ATOM     34  C   UNL     1       0.335   1.849   0.115  0.00  0.00    +0.277 C 
ATOM     35  O   UNL     1       0.321   0.423   0.217  0.00  0.00    -0.495 OA
ENDBRANCH  28  35
ENDBRANCH  20  31
ENDBRANCH  19  20
ENDBRANCH   1  19
TORSDOF 8
