REMARK  Name = ZINC12871459
REMARK  12 active torsions:
REMARK  status: ('A' for Active; 'I' for Inactive)
REMARK    1  A    between atoms: C_1  and  C_2
REMARK    2  A    between atoms: C_2  and  C_3
REMARK    3  A    between atoms: C_3  and  C_4
REMARK    4  A    between atoms: C_3  and  C_5
REMARK    5  A    between atoms: C_3  and  N_6
REMARK    6  A    between atoms: C_7  and  C_9
REMARK    7  A    between atoms: C_9  and  C_11
REMARK    8  A    between atoms: C_9  and  N_16
REMARK    9  A    between atoms: N_16  and  C_17
REMARK   10  A    between atoms: C_18  and  C_24
REMARK   11  A    between atoms: C_22  and  C_23
REMARK   12  A    between atoms: C_25  and  C_27
REMARK                            x       y       z     vdW  Elec       q    Type
REMARK                         _______ _______ _______ _____ _____    ______ ____
ROOT
ATOM      1  N   UNL     1      -1.990   1.865   0.119  0.00  0.00    -0.249 N 
ATOM      2  C   UNL     1      -2.567   1.055   1.028  0.00  0.00    +0.272 C 
ATOM      3  O   UNL     1      -2.802  -0.105   0.746  0.00  0.00    -0.268 OA
ENDROOT
BRANCH   1   4
ATOM      4  C   UNL     1      -1.763   1.407  -1.183  0.00  0.00    +0.044 A 
ATOM      5  C   UNL     1      -0.621   0.672  -1.473  0.00  0.00    -0.029 A 
ATOM      6  C   UNL     1      -0.403   0.216  -2.758  0.00  0.00    +0.005 A 
ATOM      7  C   UNL     1      -1.315   0.501  -3.759  0.00  0.00    +0.001 A 
ATOM      8  C   UNL     1      -2.450   1.237  -3.474  0.00  0.00    +0.005 A 
ATOM      9  C   UNL     1      -2.677   1.691  -2.190  0.00  0.00    -0.029 A 
ATOM     10  C   UNL     1      -3.915   2.493  -1.881  0.00  0.00    +0.045 C 
ATOM     11  C   UNL     1       0.376   0.367  -0.385  0.00  0.00    +0.045 C 
ENDBRANCH   1   4
BRANCH   2  12
ATOM     12  C   UNL     1      -2.909   1.572   2.365  0.00  0.00    +0.157 A 
ATOM     13  C   UNL     1      -3.378   0.771   3.397  0.00  0.00    +0.101 A 
ATOM     14  S   UNL     1      -3.581   1.941   4.657  0.00  0.00    +0.029 S 
ATOM     15  N   UNL     1      -3.111   3.235   3.888  0.00  0.00    -0.110 NA
ATOM     16  N   UNL     1      -2.792   2.849   2.706  0.00  0.00    -0.136 NA
ENDBRANCH   2  12
BRANCH   1  17
ATOM     17  C   UNL     1      -1.601   3.227   0.494  0.00  0.00    +0.204 C 
BRANCH  17  18
ATOM     18  C   UNL     1      -1.084   3.955  -0.720  0.00  0.00    +0.019 A 
ATOM     19  C   UNL     1      -1.513   5.120  -1.264  0.00  0.00    +0.013 A 
ATOM     20  C   UNL     1      -0.879   5.607  -2.391  0.00  0.00    +0.008 A 
ATOM     21  C   UNL     1       0.146   4.900  -2.926  0.00  0.00    +0.045 A 
ATOM     22  S   UNL     1       0.247   3.502  -1.820  0.00  0.00    -0.099 S 
ENDBRANCH  17  18
BRANCH  17  24
ATOM     23  N   UNL     1      -0.033   4.308   2.073  0.00  0.00    -0.308 N 
ATOM     24  C   UNL     1      -0.520   3.169   1.543  0.00  0.00    +0.239 C 
ATOM     25  O   UNL     1      -0.088   2.096   1.910  0.00  0.00    -0.273 OA
ATOM     26  H   UNL     1      -0.378   5.166   1.779  0.00  0.00    +0.149 HD
BRANCH  23  27
ATOM     27  C   UNL     1       1.018   4.252   3.092  0.00  0.00    +0.029 C 
ATOM     28  C   UNL     1       0.511   3.467   4.304  0.00  0.00    +0.031 C 
ATOM     29  C   UNL     1       2.252   3.556   2.514  0.00  0.00    +0.031 C 
BRANCH  27  31
ATOM     30  C   UNL     1       2.486   5.614   4.587  0.00  0.00    +0.006 C 
ATOM     31  C   UNL     1       1.388   5.673   3.522  0.00  0.00    +0.022 C 
ENDBRANCH  27  31
ENDBRANCH  23  27
ENDBRANCH  17  24
ENDBRANCH   1  17
TORSDOF 7
