REMARK  Name = ZINC38800686
REMARK  8 active torsions:
REMARK  status: ('A' for Active; 'I' for Inactive)
REMARK    1  A    between atoms: C_1  and  C_2
REMARK    2  A    between atoms: C_4  and  C_12
REMARK    3  A    between atoms: C_12  and  C_14
REMARK    4  A    between atoms: C_14  and  C_16
REMARK    5  A    between atoms: C_14  and  O_17
REMARK    6  A    between atoms: O_17  and  C_18
REMARK    7  A    between atoms: C_18  and  C_20
REMARK    8  A    between atoms: C_24  and  N_26
REMARK                            x       y       z     vdW  Elec       q    Type
REMARK                         _______ _______ _______ _____ _____    ______ ____
ROOT
ATOM      1  C   UNL     1       1.283  -0.772  -3.678  0.00  0.00    +0.244 C 
ATOM      2  C   UNL     1       0.965  -2.236  -3.990  0.00  0.00    +0.061 C 
ENDROOT
BRANCH   1   3
ATOM      3  C   UNL     1       0.379  -0.286  -2.575  0.00  0.00    +0.202 C 
ATOM      4  O   UNL     1      -0.610   0.367  -2.844  0.00  0.00    -0.288 OA
BRANCH   3   7
ATOM      5  C   UNL     1      -0.032   1.408   0.087  0.00  0.00    +0.035 C 
ATOM      6  C   UNL     1      -0.063  -0.120   0.002  0.00  0.00    +0.111 C 
ATOM      7  C   UNL     1       0.680  -0.588  -1.230  0.00  0.00    +0.030 C 
ATOM      8  C   UNL     1       1.717  -1.374  -0.761  0.00  0.00    +0.007 A 
ATOM      9  C   UNL     1       2.750  -2.091  -1.410  0.00  0.00    +0.010 A 
ATOM     10  C   UNL     1       3.650  -2.794  -0.686  0.00  0.00    +0.001 A 
ATOM     11  C   UNL     1       3.610  -2.850   0.716  0.00  0.00    +0.002 A 
ATOM     12  C   UNL     1       2.666  -2.202   1.431  0.00  0.00    +0.026 A 
ATOM     13  C   UNL     1       1.646  -1.413   0.720  0.00  0.00    +0.043 A 
ATOM     14  N   UNL     1       0.639  -0.704   1.148  0.00  0.00    -0.377 N 
ATOM     15  H   UNL     1       0.393  -0.582   2.079  0.00  0.00    +0.160 HD
ENDBRANCH   3   7
ENDBRANCH   1   3
BRANCH   1  16
ATOM     16  O   UNL     1       1.076   0.020  -4.849  0.00  0.00    -0.450 OA
BRANCH  16  17
ATOM     17  C   UNL     1       2.130   0.180  -5.673  0.00  0.00    +0.340 C 
ATOM     18  O   UNL     1       3.195  -0.339  -5.406  0.00  0.00    -0.245 OA
BRANCH  17  19
ATOM     19  C   UNL     1       1.989   0.987  -6.902  0.00  0.00    +0.061 A 
ATOM     20  C   UNL     1       0.767   1.589  -7.209  0.00  0.00    +0.016 A 
ATOM     21  C   UNL     1       0.638   2.343  -8.357  0.00  0.00    +0.022 A 
ATOM     22  C   UNL     1       1.717   2.504  -9.209  0.00  0.00    +0.062 A 
ATOM     23  C   UNL     1       2.939   1.908  -8.912  0.00  0.00    +0.044 A 
ATOM     24  C   UNL     1       3.079   1.154  -7.758  0.00  0.00    +0.039 A 
ATOM     25 CL   UNL     1       1.546   3.454 -10.652  0.00  0.00    -0.082 Cl
BRANCH  23  26
ATOM     26  N   UNL     1       4.026   2.074  -9.775  0.00  0.00    -0.357 N 
ATOM     27  H   UNL     1       3.928   2.604 -10.582  0.00  0.00    +0.142 HD
ATOM     28  H   UNL     1       4.877   1.658  -9.569  0.00  0.00    +0.142 HD
ENDBRANCH  23  26
ENDBRANCH  17  19
ENDBRANCH  16  17
ENDBRANCH   1  16
TORSDOF 6
