REMARK  Name = ZINC03211087
REMARK  5 active torsions:
REMARK  status: ('A' for Active; 'I' for Inactive)
REMARK    1  A    between atoms: C_3  and  O_9
REMARK    2  A    between atoms: O_9  and  C_10
REMARK    3  A    between atoms: C_10  and  C_11
REMARK    4  A    between atoms: N_13  and  N_14
REMARK    5  A    between atoms: C_15  and  C_16
REMARK                            x       y       z     vdW  Elec       q    Type
REMARK                         _______ _______ _______ _____ _____    ______ ____
ROOT
ATOM      1  C   UNL     1       1.030   3.512   0.011  0.00  0.00    +0.270 C 
ATOM      2  O   UNL     1      -0.097   3.961   0.024  0.00  0.00    -0.270 OA
ATOM      3  N   UNL     1       2.088   4.348   0.005  0.00  0.00    -0.204 N 
ATOM      4  H   UNL     1       2.989   3.989  -0.005  0.00  0.00    +0.177 HD
ENDROOT
BRANCH   3   5
ATOM      5  N   UNL     1       1.885   5.734   0.015  0.00  0.00    -0.185 NA
ATOM      6  C   UNL     1       2.906   6.541   0.009  0.00  0.00    +0.176 C 
BRANCH   6   7
ATOM      7  C   UNL     1       2.695   7.991   0.019  0.00  0.00    +0.149 A 
ATOM      8  C   UNL     1       3.672   8.944   0.021  0.00  0.00    +0.052 A 
ATOM      9  C   UNL     1       3.021  10.191   0.028  0.00  0.00    +0.063 A 
ATOM     10  C   UNL     1       1.693   9.946   0.040  0.00  0.00    +0.195 A 
ATOM     11  O   UNL     1       1.500   8.617   0.035  0.00  0.00    -0.443 OA
ATOM     12 CL   UNL     1       0.443  11.149   0.058  0.00  0.00    -0.043 Cl
ENDBRANCH   6   7
ENDBRANCH   3   5
BRANCH   1  13
ATOM     13  C   UNL     1       1.248   2.021   0.001  0.00  0.00    +0.326 C 
BRANCH  13  14
ATOM     14  O   UNL     1      -0.016   1.355   0.009  0.00  0.00    -0.481 OA
BRANCH  14  17
ATOM     15  C   UNL     1       1.228  -2.064  -0.020  0.00  0.00    +0.023 A 
ATOM     16  C   UNL     1       1.212  -0.682  -0.013  0.00  0.00    +0.048 A 
ATOM     17  C   UNL     1       0.002  -0.004   0.002  0.00  0.00    +0.140 A 
ATOM     18  C   UNL     1      -1.190  -0.716   0.015  0.00  0.00    +0.084 A 
ATOM     19  C   UNL     1      -1.169  -2.098   0.003  0.00  0.00    +0.043 A 
ATOM     20  C   UNL     1       0.040  -2.771  -0.012  0.00  0.00    +0.043 A 
ATOM     21 CL   UNL     1       0.064  -4.507  -0.021  0.00  0.00    -0.083 Cl
ATOM     22 CL   UNL     1      -2.706   0.130   0.042  0.00  0.00    -0.080 Cl
ENDBRANCH  14  17
ENDBRANCH  13  14
ENDBRANCH   1  13
TORSDOF 5
