REMARK  Name = ZINC57501215
REMARK  11 active torsions:
REMARK  status: ('A' for Active; 'I' for Inactive)
REMARK    1  A    between atoms: C_1  and  C_2
REMARK    2  A    between atoms: C_9  and  N_17
REMARK    3  A    between atoms: C_10  and  C_11
REMARK    4  A    between atoms: C_11  and  O_13
REMARK    5  A    between atoms: O_13  and  C_14
REMARK    6  A    between atoms: C_14  and  C_15
REMARK    7  A    between atoms: C_14  and  C_16
REMARK    8  A    between atoms: C_18  and  C_20
REMARK    9  A    between atoms: C_20  and  N_21
REMARK   10  A    between atoms: C_24  and  C_28
REMARK   11  A    between atoms: C_24  and  C_29
REMARK                            x       y       z     vdW  Elec       q    Type
REMARK                         _______ _______ _______ _____ _____    ______ ____
ROOT
ATOM      1  C   UNL     1      -0.019   1.526   0.010  0.00  0.00    +0.008 C 
ATOM      2  C   UNL     1       0.002  -0.004   0.002  0.00  0.00    -0.009 C 
ATOM      3  C   UNL     1      -1.434  -0.537   0.019  0.00  0.00    +0.008 C 
ATOM      4  C   UNL     1      -1.432  -2.045  -0.237  0.00  0.00    +0.037 C 
ATOM      5  C   UNL     1      -0.464  -2.704   0.735  0.00  0.00    -0.021 A 
ATOM      6  C   UNL     1       0.485  -1.986   1.374  0.00  0.00    -0.004 A 
ATOM      7  S   UNL     1       1.344  -3.167   2.373  0.00  0.00    -0.077 S 
ATOM      8  C   UNL     1       0.494  -4.558   1.968  0.00  0.00    +0.086 A 
ATOM      9  C   UNL     1      -0.459  -4.120   1.061  0.00  0.00    +0.091 A 
ATOM     10  C   UNL     1       0.739  -0.515   1.248  0.00  0.00    +0.046 C 
ENDROOT
BRANCH   8  11
ATOM     11  N   UNL     1       0.698  -5.847   2.435  0.00  0.00    -0.278 N 
ATOM     12  C   UNL     1       1.679  -6.094   3.325  0.00  0.00    +0.236 C 
ATOM     13  O   UNL     1       2.384  -5.189   3.717  0.00  0.00    -0.274 OA
ATOM     14  H   UNL     1       0.134  -6.571   2.121  0.00  0.00    +0.155 HD
BRANCH  12  15
ATOM     15  C   UNL     1       1.901  -7.496   3.832  0.00  0.00    +0.214 C 
BRANCH  15  16
ATOM     16  N   UNL     1       3.017  -7.501   4.781  0.00  0.00    -0.215 N 
ATOM     17  C   UNL     1       4.305  -7.689   4.433  0.00  0.00    +0.246 C 
ATOM     18  O   UNL     1       4.742  -7.879   3.319  0.00  0.00    -0.273 OA
ATOM     19  C   UNL     1       5.093  -7.614   5.726  0.00  0.00    +0.107 C 
ATOM     20  N   UNL     1       4.061  -7.369   6.747  0.00  0.00    -0.285 N 
ATOM     21  C   UNL     1       2.883  -7.314   6.099  0.00  0.00    +0.310 C 
ATOM     22  O   UNL     1       1.817  -7.120   6.649  0.00  0.00    -0.252 OA
ATOM     23  C   UNL     1       5.814  -8.937   5.995  0.00  0.00    +0.041 C 
ATOM     24  C   UNL     1       6.091  -6.455   5.680  0.00  0.00    +0.041 C 
ATOM     25  H   UNL     1       4.203  -7.264   7.701  0.00  0.00    +0.151 HD
ENDBRANCH  15  16
ENDBRANCH  12  15
ENDBRANCH   8  11
BRANCH   9  26
ATOM     26  C   UNL     1      -1.419  -5.045   0.456  0.00  0.00    +0.342 C 
ATOM     27  O   UNL     1      -1.147  -5.610  -0.586  0.00  0.00    -0.245 OA
BRANCH  26  28
ATOM     28  O   UNL     1      -2.607  -5.272   1.056  0.00  0.00    -0.458 OA
BRANCH  28  29
ATOM     29  C   UNL     1      -3.495  -6.186   0.410  0.00  0.00    +0.171 C 
ATOM     30  C   UNL     1      -3.229  -7.603   0.923  0.00  0.00    +0.052 C 
ATOM     31  C   UNL     1      -4.942  -5.795   0.719  0.00  0.00    +0.052 C 
ENDBRANCH  28  29
ENDBRANCH  26  28
ENDBRANCH   9  26
TORSDOF 6
