REMARK  Name = ZINC18166755
REMARK  3 active torsions:
REMARK  status: ('A' for Active; 'I' for Inactive)
REMARK    1  A    between atoms: C_4  and  N_11
REMARK    2  A    between atoms: C_5  and  C_7
REMARK    3  A    between atoms: C_17  and  C_18
REMARK                            x       y       z     vdW  Elec       q    Type
REMARK                         _______ _______ _______ _____ _____    ______ ____
ROOT
ATOM      1  N   UNL     1       0.572   1.799   1.781  0.00  0.00    -0.295 N 
ATOM      2  C   UNL     1       1.674   2.403   1.234  0.00  0.00    +0.156 C 
ATOM      3  N   UNL     1       1.832   3.674   0.899  0.00  0.00    -0.154 NA
ATOM      4  C   UNL     1       2.949   4.132   0.378  0.00  0.00    +0.276 C 
ATOM      5  O   UNL     1       3.084   5.306   0.074  0.00  0.00    -0.267 OA
ATOM      6  C   UNL     1       4.037   3.144   0.182  0.00  0.00    +0.079 C 
ATOM      7  C   UNL     1       5.284   3.313  -0.324  0.00  0.00    +0.028 C 
ATOM      8  S   UNL     1       3.245   1.667   0.808  0.00  0.00    -0.051 S 
ATOM      9  H   UNL     1       0.566   0.839   1.925  0.00  0.00    +0.154 HD
ENDROOT
BRANCH   7  10
ATOM     10  C   UNL     1       6.265   2.222  -0.240  0.00  0.00    -0.024 A 
ATOM     11  C   UNL     1       5.982   1.079   0.517  0.00  0.00    +0.011 A 
ATOM     12  C   UNL     1       6.904   0.058   0.587  0.00  0.00    +0.039 A 
ATOM     13  C   UNL     1       8.115   0.165  -0.082  0.00  0.00    +0.123 A 
ATOM     14  C   UNL     1       8.403   1.297  -0.830  0.00  0.00    +0.039 A 
ATOM     15  C   UNL     1       7.488   2.324  -0.912  0.00  0.00    +0.011 A 
ATOM     16  F   UNL     1       9.017  -0.838  -0.005  0.00  0.00    -0.205 F 
ENDBRANCH   7  10
BRANCH   1  20
ATOM     17  C   UNL     1      -2.759   4.079   2.808  0.00  0.00    +0.001 A 
ATOM     18  C   UNL     1      -1.663   4.684   2.219  0.00  0.00    +0.002 A 
ATOM     19  C   UNL     1      -0.557   3.931   1.878  0.00  0.00    +0.024 A 
ATOM     20  C   UNL     1      -0.546   2.564   2.126  0.00  0.00    +0.044 A 
ATOM     21  C   UNL     1      -1.650   1.958   2.712  0.00  0.00    +0.076 A 
ATOM     22  C   UNL     1      -2.751   2.718   3.057  0.00  0.00    +0.014 A 
BRANCH  21  23
ATOM     23  C   UNL     1      -1.644   0.475   2.978  0.00  0.00    +0.419 C 
ATOM     24  F   UNL     1      -2.856   0.103   3.569  0.00  0.00    -0.166 F 
ATOM     25  F   UNL     1      -1.482  -0.214   1.772  0.00  0.00    -0.166 F 
ATOM     26  F   UNL     1      -0.589   0.160   3.840  0.00  0.00    -0.166 F 
ENDBRANCH  21  23
ENDBRANCH   1  20
TORSDOF 3
