REMARK  Name = ZINC08328024
REMARK  10 active torsions:
REMARK  status: ('A' for Active; 'I' for Inactive)
REMARK    1  A    between atoms: C_1  and  C_2
REMARK    2  A    between atoms: C_2  and  C_3
REMARK    3  A    between atoms: C_3  and  N_4
REMARK    4  A    between atoms: C_8  and  C_10
REMARK    5  A    between atoms: C_10  and  N_11
REMARK    6  A    between atoms: C_14  and  C_18
REMARK    7  A    between atoms: C_14  and  C_19
REMARK    8  A    between atoms: C_22  and  C_25
REMARK    9  A    between atoms: C_25  and  C_26
REMARK   10  A    between atoms: C_25  and  C_27
REMARK                            x       y       z     vdW  Elec       q    Type
REMARK                         _______ _______ _______ _____ _____    ______ ____
ROOT
ATOM      1  N   UNL     1       2.125   0.679  -0.015  0.00  0.00    -0.215 N 
ATOM      2  C   UNL     1       1.450   1.845  -0.002  0.00  0.00    +0.251 C 
ATOM      3  O   UNL     1       1.920   2.963  -0.001  0.00  0.00    -0.272 OA
ATOM      4  C   UNL     1      -0.018   1.469   0.010  0.00  0.00    +0.135 C 
ATOM      5  N   UNL     1       0.002  -0.004   0.002  0.00  0.00    -0.281 N 
ATOM      6  C   UNL     1       1.296  -0.371  -0.012  0.00  0.00    +0.310 C 
ATOM      7  O   UNL     1       1.670  -1.528  -0.022  0.00  0.00    -0.252 OA
ATOM      8  C   UNL     1      -0.697   1.991   1.278  0.00  0.00    +0.047 C 
ATOM      9  H   UNL     1      -0.768  -0.594   0.006  0.00  0.00    +0.152 HD
ENDROOT
BRANCH   4  10
ATOM     10  C   UNL     1      -0.711   1.996  -1.220  0.00  0.00    -0.015 A 
ATOM     11  C   UNL     1      -0.324   3.207  -1.765  0.00  0.00    +0.006 A 
ATOM     12  C   UNL     1      -0.957   3.688  -2.896  0.00  0.00    +0.004 A 
ATOM     13  C   UNL     1      -1.982   2.965  -3.476  0.00  0.00    -0.045 A 
ATOM     14  C   UNL     1      -2.371   1.757  -2.928  0.00  0.00    +0.004 A 
ATOM     15  C   UNL     1      -1.736   1.273  -1.800  0.00  0.00    +0.006 A 
BRANCH  13  16
ATOM     16  C   UNL     1      -2.675   3.493  -4.705  0.00  0.00    +0.013 C 
ATOM     17  C   UNL     1      -3.311   4.848  -4.390  0.00  0.00    +0.012 C 
ATOM     18  C   UNL     1      -1.655   3.659  -5.834  0.00  0.00    +0.012 C 
ENDBRANCH  13  16
ENDBRANCH   4  10
BRANCH   1  19
ATOM     19  C   UNL     1       3.587   0.574  -0.030  0.00  0.00    +0.214 C 
BRANCH  19  24
ATOM     20  N   UNL     1       7.147   0.332  -3.251  0.00  0.00    -0.299 N 
ATOM     21  C   UNL     1       5.828   0.426  -2.991  0.00  0.00    +0.306 C 
ATOM     22  O   UNL     1       5.031   0.487  -3.907  0.00  0.00    -0.252 OA
ATOM     23  N   UNL     1       5.392   0.451  -1.716  0.00  0.00    -0.239 N 
ATOM     24  C   UNL     1       4.073   0.545  -1.456  0.00  0.00    +0.238 C 
ATOM     25  O   UNL     1       3.278   0.607  -2.369  0.00  0.00    -0.274 OA
ATOM     26  H   UNL     1       7.783   0.282  -2.521  0.00  0.00    +0.150 HD
ATOM     27  H   UNL     1       6.028   0.402  -0.985  0.00  0.00    +0.159 HD
BRANCH  20  28
ATOM     28  C   UNL     1       7.620   0.304  -4.638  0.00  0.00    +0.105 C 
BRANCH  28  30
ATOM     29  C   UNL     1       9.640   0.165  -6.101  0.00  0.00    +0.005 C 
ATOM     30  C   UNL     1       9.146   0.194  -4.653  0.00  0.00    +0.015 C 
ENDBRANCH  28  30
ENDBRANCH  20  28
ENDBRANCH  19  24
ENDBRANCH   1  19
TORSDOF 6
