REMARK  Name = ZINC62572072
REMARK  15 active torsions:
REMARK  status: ('A' for Active; 'I' for Inactive)
REMARK    1  A    between atoms: C_1  and  C_2
REMARK    2  A    between atoms: C_2  and  C_3
REMARK    3  A    between atoms: C_2  and  C_4
REMARK    4  A    between atoms: C_4  and  N_5
REMARK    5  A    between atoms: N_5  and  C_6
REMARK    6  A    between atoms: C_7  and  N_22
REMARK    7  A    between atoms: N_8  and  C_15
REMARK    8  A    between atoms: C_15  and  C_16
REMARK    9  A    between atoms: C_23  and  C_25
REMARK   10  A    between atoms: C_25  and  O_26
REMARK   11  A    between atoms: O_26  and  C_27
REMARK   12  A    between atoms: C_27  and  C_29
REMARK   13  A    between atoms: C_29  and  O_30
REMARK   14  A    between atoms: O_30  and  C_31
REMARK   15  A    between atoms: C_34  and  C_37
REMARK                            x       y       z     vdW  Elec       q    Type
REMARK                         _______ _______ _______ _____ _____    ______ ____
ROOT
ATOM      1  N   UNL     1      -1.375  -2.084   0.143  0.00  0.00    -0.261 N 
ATOM      2  C   UNL     1      -1.342  -2.912  -0.922  0.00  0.00    +0.258 C 
ATOM      3  O   UNL     1      -1.505  -4.104  -0.768  0.00  0.00    -0.272 OA
ENDROOT
BRANCH   1   4
ATOM      4  C   UNL     1      -1.490  -2.613   1.446  0.00  0.00    +0.140 A 
ATOM      5  C   UNL     1      -2.574  -2.296   2.238  0.00  0.00    +0.128 A 
ATOM      6  N   UNL     1      -2.659  -2.828   3.504  0.00  0.00    -0.276 N 
ATOM      7  C   UNL     1      -1.696  -3.647   3.964  0.00  0.00    +0.331 A 
ATOM      8  O   UNL     1      -1.790  -4.107   5.086  0.00  0.00    -0.246 OA
ATOM      9  N   UNL     1      -0.633  -3.968   3.206  0.00  0.00    -0.273 N 
ATOM     10  H   UNL     1       0.047  -4.561   3.560  0.00  0.00    +0.173 HD
ATOM     11  C   UNL     1      -0.505  -3.479   1.957  0.00  0.00    +0.277 A 
ATOM     12  O   UNL     1       0.461  -3.780   1.276  0.00  0.00    -0.266 OA
BRANCH   5  13
ATOM     13  N   UNL     1      -3.557  -1.458   1.769  0.00  0.00    -0.343 N 
ATOM     14  H   UNL     1      -3.541  -1.161   0.846  0.00  0.00    +0.144 HD
ATOM     15  H   UNL     1      -4.267  -1.164   2.361  0.00  0.00    +0.144 HD
ENDBRANCH   5  13
BRANCH   6  16
ATOM     16  C   UNL     1      -3.804  -2.499   4.357  0.00  0.00    +0.163 C 
BRANCH  16  17
ATOM     17  C   UNL     1      -4.903  -3.506   4.131  0.00  0.00    -0.028 A 
ATOM     18  C   UNL     1      -5.855  -3.283   3.154  0.00  0.00    +0.005 A 
ATOM     19  C   UNL     1      -6.863  -4.206   2.947  0.00  0.00    +0.000 A 
ATOM     20  C   UNL     1      -6.919  -5.353   3.718  0.00  0.00    +0.000 A 
ATOM     21  C   UNL     1      -5.967  -5.576   4.695  0.00  0.00    +0.000 A 
ATOM     22  C   UNL     1      -4.956  -4.655   4.899  0.00  0.00    +0.005 A 
ENDBRANCH  16  17
ENDBRANCH   6  16
ENDBRANCH   1   4
BRANCH   1  23
ATOM     23  C   UNL     1      -1.290  -0.634  -0.054  0.00  0.00    +0.117 C 
BRANCH  23  25
ATOM     24  C   UNL     1       0.262   1.261  -0.545  0.00  0.00    +0.009 C 
ATOM     25  C   UNL     1       0.178  -0.221  -0.175  0.00  0.00    +0.001 C 
ATOM     26  C   UNL     1       0.886  -0.454   1.161  0.00  0.00    +0.009 C 
ENDBRANCH  23  25
ENDBRANCH   1  23
BRANCH   2  27
ATOM     27  C   UNL     1      -1.102  -2.356  -2.302  0.00  0.00    +0.328 C 
BRANCH  27  28
ATOM     28  O   UNL     1      -1.113  -3.423  -3.253  0.00  0.00    -0.453 OA
BRANCH  28  29
ATOM     29  C   UNL     1      -0.912  -3.094  -4.539  0.00  0.00    +0.346 C 
ATOM     30  O   UNL     1      -0.734  -1.939  -4.847  0.00  0.00    -0.247 OA
BRANCH  29  31
ATOM     31  C   UNL     1      -0.909  -4.165  -5.599  0.00  0.00    +0.349 C 
BRANCH  31  32
ATOM     32  O   UNL     1      -0.678  -3.570  -6.877  0.00  0.00    -0.481 OA
BRANCH  32  33
ATOM     33  C   UNL     1      -0.645  -4.404  -7.948  0.00  0.00    +0.121 A 
ATOM     34  C   UNL     1      -0.838  -5.768  -7.770  0.00  0.00    +0.047 A 
ATOM     35  C   UNL     1      -0.806  -6.617  -8.854  0.00  0.00    +0.022 A 
ATOM     36  C   UNL     1      -0.579  -6.105 -10.134  0.00  0.00    +0.052 A 
ATOM     37  C   UNL     1      -0.385  -4.732 -10.309  0.00  0.00    +0.022 A 
ATOM     38  C   UNL     1      -0.424  -3.889  -9.220  0.00  0.00    +0.047 A 
BRANCH  36  39
ATOM     39  C   UNL     1      -0.544  -6.984 -11.264  0.00  0.00    +0.099 C 
ATOM     40  N   UNL     1      -0.516  -7.681 -12.161  0.00  0.00    -0.191 NA
ENDBRANCH  36  39
ENDBRANCH  32  33
ENDBRANCH  31  32
ENDBRANCH  29  31
ENDBRANCH  28  29
ENDBRANCH  27  28
ENDBRANCH   2  27
TORSDOF 13
