REMARK  Name = ZINC35560262
REMARK  5 active torsions:
REMARK  status: ('A' for Active; 'I' for Inactive)
REMARK    1  A    between atoms: C_1  and  C_2
REMARK    2  A    between atoms: C_2  and  N_3
REMARK    3  A    between atoms: N_3  and  C_4
REMARK    4  A    between atoms: C_4  and  C_6
REMARK    5  A    between atoms: C_4  and  C_13
REMARK                            x       y       z     vdW  Elec       q    Type
REMARK                         _______ _______ _______ _____ _____    ______ ____
ROOT
ATOM      1  C   UNL     1       0.733  -1.960   1.184  0.00  0.00    -0.007 C 
ENDROOT
BRANCH   1   2
ATOM      2  C   UNL     1       1.290  -2.515   2.469  0.00  0.00    -0.044 A 
ATOM      3  C   UNL     1       2.506  -3.173   2.468  0.00  0.00    +0.003 A 
ATOM      4  C   UNL     1       3.017  -3.683   3.647  0.00  0.00    +0.000 A 
ATOM      5  C   UNL     1       2.312  -3.535   4.827  0.00  0.00    +0.001 A 
ATOM      6  C   UNL     1       1.097  -2.878   4.829  0.00  0.00    +0.014 A 
ATOM      7  C   UNL     1       0.588  -2.362   3.651  0.00  0.00    +0.015 A 
ATOM      8  I   UNL     1      -1.251  -1.358   3.654  0.00  0.00    -0.044 I 
ENDBRANCH   1   2
BRANCH   1   9
ATOM      9  C   UNL     1       1.435  -2.599   0.014  0.00  0.00    -0.035 A 
ATOM     10  C   UNL     1       2.541  -1.995  -0.556  0.00  0.00    +0.026 A 
ATOM     11  C   UNL     1       3.149  -2.598  -1.607  0.00  0.00    +0.056 A 
ATOM     12  S   UNL     1       2.152  -4.062  -1.822  0.00  0.00    -0.074 S 
ATOM     13  C   UNL     1       0.995  -3.777  -0.493  0.00  0.00    +0.058 A 
ATOM     14 BR   UNL     1      -0.466  -4.841   0.063  0.00  0.00    -0.042 Br
ATOM     15 BR   UNL     1       4.662  -2.032  -2.592  0.00  0.00    -0.043 Br
ENDBRANCH   1   9
BRANCH   1  16
ATOM     16  N   UNL     1       0.943  -0.506   1.147  0.00  0.00    +0.386 N 
ATOM     17  H   UNL     1       1.932  -0.310   1.116  0.00  0.00    -0.085 HD
ATOM     18  H   UNL     1       0.543  -0.087   1.974  0.00  0.00    -0.085 HD
BRANCH  16  20
ATOM     19  C   UNL     1       0.515   1.566  -0.086  0.00  0.00    -0.017 C 
ATOM     20  C   UNL     1       0.295   0.052  -0.047  0.00  0.00    -0.085 C 
ENDBRANCH  16  20
ENDBRANCH   1  16
TORSDOF 4
