REMARK  Name = ZINC06458087
REMARK  8 active torsions:
REMARK  status: ('A' for Active; 'I' for Inactive)
REMARK    1  A    between atoms: C_1  and  O_2
REMARK    2  A    between atoms: O_2  and  C_3
REMARK    3  A    between atoms: C_7  and  C_9
REMARK    4  A    between atoms: C_9  and  C_11
REMARK    5  A    between atoms: C_12  and  N_26
REMARK    6  A    between atoms: C_13  and  C_24
REMARK    7  A    between atoms: C_14  and  N_16
REMARK    8  A    between atoms: N_16  and  C_17
REMARK                            x       y       z     vdW  Elec       q    Type
REMARK                         _______ _______ _______ _____ _____    ______ ____
ROOT
ATOM      1  C   UNL     1      -2.326   6.745   3.994  0.00  0.00    +0.083 A 
ATOM      2  C   UNL     1      -2.580   7.430   5.181  0.00  0.00    +0.062 A 
ATOM      3  C   UNL     1      -2.411   8.810   5.161  0.00  0.00    +0.101 A 
ATOM      4  C   UNL     1      -2.014   9.403   3.958  0.00  0.00    +0.090 A 
ATOM      5  S   UNL     1      -1.871   8.057   2.876  0.00  0.00    -0.067 S 
ENDROOT
BRANCH   2   6
ATOM      6  N   UNL     1      -2.978   6.766   6.331  0.00  0.00    -0.356 N 
ATOM      7  H   UNL     1      -3.086   5.802   6.321  0.00  0.00    +0.142 HD
ATOM      8  H   UNL     1      -3.149   7.264   7.145  0.00  0.00    +0.142 HD
ENDBRANCH   2   6
BRANCH   1   9
ATOM      9  C   UNL     1      -2.414   5.363   3.739  0.00  0.00    +0.202 C 
ATOM     10  O   UNL     1      -2.625   4.587   4.655  0.00  0.00    -0.286 OA
BRANCH   9  15
ATOM     11  C   UNL     1      -2.353   5.202  -0.018  0.00  0.00    +0.121 A 
ATOM     12  C   UNL     1      -1.949   3.889  -0.223  0.00  0.00    +0.045 A 
ATOM     13  C   UNL     1      -1.689   3.064   0.856  0.00  0.00    +0.004 A 
ATOM     14  C   UNL     1      -1.840   3.537   2.144  0.00  0.00    +0.012 A 
ATOM     15  C   UNL     1      -2.251   4.853   2.359  0.00  0.00    +0.026 A 
ATOM     16  C   UNL     1      -2.507   5.686   1.270  0.00  0.00    +0.057 A 
BRANCH  11  18
ATOM     17  C   UNL     1      -2.422   5.445  -2.382  0.00  0.00    +0.277 C 
ATOM     18  O   UNL     1      -2.602   6.010  -1.081  0.00  0.00    -0.495 OA
ENDBRANCH  11  18
ENDBRANCH   9  15
ENDBRANCH   1   9
BRANCH   4  19
ATOM     19  N   UNL     1      -1.790  10.735   3.696  0.00  0.00    -0.308 N 
ATOM     20  H   UNL     1      -1.994  11.402   4.370  0.00  0.00    +0.153 HD
BRANCH  19  21
ATOM     21  C   UNL     1      -1.269  11.126   2.460  0.00  0.00    +0.034 A 
ATOM     22  C   UNL     1      -0.335  10.326   1.813  0.00  0.00    +0.023 A 
ATOM     23  C   UNL     1       0.174  10.712   0.589  0.00  0.00    +0.005 A 
ATOM     24  C   UNL     1      -0.236  11.899   0.010  0.00  0.00    +0.038 A 
ATOM     25  C   UNL     1      -1.163  12.702   0.654  0.00  0.00    +0.125 A 
ATOM     26  C   UNL     1      -1.680  12.318   1.878  0.00  0.00    +0.061 A 
ATOM     27  F   UNL     1      -1.561  13.862   0.086  0.00  0.00    -0.205 F 
ENDBRANCH  19  21
ENDBRANCH   4  19
BRANCH   3  28
ATOM     28  C   UNL     1      -2.642   9.600   6.333  0.00  0.00    +0.103 C 
ATOM     29  N   UNL     1      -2.826  10.227   7.262  0.00  0.00    -0.191 NA
ENDBRANCH   3  28
TORSDOF 7
