REMARK  Name = ZINC40709519
REMARK  6 active torsions:
REMARK  status: ('A' for Active; 'I' for Inactive)
REMARK    1  A    between atoms: C_4  and  C_7
REMARK    2  A    between atoms: C_7  and  N_8
REMARK    3  A    between atoms: N_8  and  C_9
REMARK    4  A    between atoms: C_9  and  C_10
REMARK    5  A    between atoms: C_17  and  N_32
REMARK    6  A    between atoms: C_18  and  N_22
REMARK                            x       y       z     vdW  Elec       q    Type
REMARK                         _______ _______ _______ _____ _____    ______ ____
ROOT
ATOM      1  N   UNL     1       4.141  -0.936   1.349  0.00  0.00    -0.305 N 
ATOM      2  C   UNL     1       4.912   0.029   1.985  0.00  0.00    +0.148 A 
ATOM      3  C   UNL     1       4.311   0.995   2.796  0.00  0.00    +0.106 A 
ATOM      4  C   UNL     1       5.131   1.942   3.411  0.00  0.00    +0.150 A 
ATOM      5  N   UNL     1       6.444   1.890   3.202  0.00  0.00    -0.219 NA
ATOM      6  C   UNL     1       6.971   0.962   2.429  0.00  0.00    +0.225 A 
ATOM      7  N   UNL     1       6.233   0.046   1.835  0.00  0.00    -0.219 NA
ENDROOT
BRANCH   4   8
ATOM      8  N   UNL     1       4.583   2.926   4.229  0.00  0.00    -0.277 N 
ATOM      9  C   UNL     1       5.405   3.858   4.833  0.00  0.00    +0.165 A 
ATOM     10  N   UNL     1       6.711   3.981   4.751  0.00  0.00    -0.225 NA
ATOM     11  C   UNL     1       7.390   4.950   5.402  0.00  0.00    +0.080 A 
ATOM     12  C   UNL     1       8.783   5.191   5.401  0.00  0.00    +0.029 A 
ATOM     13  C   UNL     1       9.316   6.228   6.123  0.00  0.00    +0.002 A 
ATOM     14  C   UNL     1       8.514   7.072   6.878  0.00  0.00    +0.001 A 
ATOM     15  C   UNL     1       7.147   6.865   6.902  0.00  0.00    +0.017 A 
ATOM     16  C   UNL     1       6.605   5.830   6.182  0.00  0.00    +0.041 A 
ATOM     17  S   UNL     1       4.962   5.209   5.916  0.00  0.00    -0.052 S 
ATOM     18  H   UNL     1       3.625   2.957   4.375  0.00  0.00    +0.156 HD
ENDBRANCH   4   8
BRANCH   3  19
ATOM     19  N   UNL     1       2.920   1.012   2.987  0.00  0.00    -0.353 N 
ATOM     20  H   UNL     1       2.356   0.393   2.498  0.00  0.00    +0.143 HD
ATOM     21  H   UNL     1       2.524   1.643   3.609  0.00  0.00    +0.143 HD
ENDBRANCH   3  19
BRANCH   1  22
ATOM     22  C   UNL     1       3.718  -0.739  -0.040  0.00  0.00    +0.142 C 
BRANCH  22  26
ATOM     23  C   UNL     1      -0.044   1.282  -0.111  0.00  0.00    +0.000 A 
ATOM     24  C   UNL     1       1.131   2.010  -0.121  0.00  0.00    +0.000 A 
ATOM     25  C   UNL     1       2.349   1.355  -0.098  0.00  0.00    +0.005 A 
ATOM     26  C   UNL     1       2.391  -0.026  -0.064  0.00  0.00    -0.030 A 
ATOM     27  C   UNL     1       1.215  -0.753  -0.053  0.00  0.00    +0.005 A 
ATOM     28  C   UNL     1      -0.002  -0.099  -0.077  0.00  0.00    +0.000 A 
ENDBRANCH  22  26
ENDBRANCH   1  22
BRANCH   1  29
ATOM     29  C   UNL     1       3.752  -2.153   2.067  0.00  0.00    +0.142 C 
BRANCH  29  30
ATOM     30  C   UNL     1       4.738  -3.251   1.766  0.00  0.00    -0.030 A 
ATOM     31  C   UNL     1       4.584  -4.027   0.633  0.00  0.00    +0.005 A 
ATOM     32  C   UNL     1       5.489  -5.035   0.356  0.00  0.00    +0.000 A 
ATOM     33  C   UNL     1       6.548  -5.267   1.213  0.00  0.00    +0.000 A 
ATOM     34  C   UNL     1       6.704  -4.490   2.346  0.00  0.00    +0.000 A 
ATOM     35  C   UNL     1       5.801  -3.479   2.620  0.00  0.00    +0.005 A 
ENDBRANCH  29  30
ENDBRANCH   1  29
TORSDOF 6
