REMARK  Name = ZINC04953784
REMARK  4 active torsions:
REMARK  status: ('A' for Active; 'I' for Inactive)
REMARK    1  A    between atoms: C_1  and  C_2
REMARK    2  A    between atoms: C_11  and  C_13
REMARK    3  A    between atoms: N_15  and  C_16
REMARK    4  A    between atoms: N_15  and  C_17
REMARK                            x       y       z     vdW  Elec       q    Type
REMARK                         _______ _______ _______ _____ _____    ______ ____
ROOT
ATOM      1  C   UNL     1       3.996   8.850  -0.367  0.00  0.00    +0.044 C 
ATOM      2  C   UNL     1       4.474   7.426  -0.249  0.00  0.00    -0.050 A 
ATOM      3  C   UNL     1       5.833   7.159  -0.176  0.00  0.00    +0.005 A 
ATOM      4  C   UNL     1       6.287   5.861  -0.068  0.00  0.00    +0.026 A 
ATOM      5  C   UNL     1       5.381   4.808  -0.030  0.00  0.00    +0.050 A 
ATOM      6  C   UNL     1       4.001   5.077  -0.103  0.00  0.00    +0.013 A 
ATOM      7  C   UNL     1       3.559   6.398  -0.213  0.00  0.00    +0.014 A 
ATOM      8  C   UNL     1       3.067   3.963  -0.061  0.00  0.00    +0.034 A 
ATOM      9  C   UNL     1       3.520   2.634   0.050  0.00  0.00    +0.055 A 
ATOM     10  C   UNL     1       2.519   1.657   0.086  0.00  0.00    +0.034 A 
ATOM     11  C   UNL     1       1.206   2.023   0.003  0.00  0.00    +0.076 A 
ATOM     12  S   UNL     1       1.302   3.801  -0.119  0.00  0.00    -0.083 S 
ATOM     13  C   UNL     1       4.989   2.455   0.121  0.00  0.00    +0.257 A 
ATOM     14  O   UNL     1       5.448   1.331   0.219  0.00  0.00    -0.267 OA
ATOM     15  N   UNL     1       5.822   3.502   0.079  0.00  0.00    -0.322 N 
ATOM     16  H   UNL     1       6.806   3.333   0.130  0.00  0.00    +0.169 HD
ENDROOT
BRANCH  11  17
ATOM     17  C   UNL     1       0.015   1.168   0.016  0.00  0.00    +0.257 C 
ATOM     18  O   UNL     1       0.134  -0.043   0.010  0.00  0.00    -0.269 OA
ATOM     19  N   UNL     1      -1.213   1.724   0.030  0.00  0.00    -0.268 N 
ATOM     20  C   UNL     1      -2.401   0.874   0.145  0.00  0.00    +0.138 C 
BRANCH  19  21
ATOM     21  C   UNL     1      -1.353   3.113  -0.066  0.00  0.00    +0.072 A 
ATOM     22  C   UNL     1      -1.471   3.716  -1.310  0.00  0.00    +0.026 A 
ATOM     23  C   UNL     1      -1.614   5.088  -1.401  0.00  0.00    +0.002 A 
ATOM     24  C   UNL     1      -1.631   5.861  -0.255  0.00  0.00    +0.003 A 
ATOM     25  C   UNL     1      -1.509   5.265   0.987  0.00  0.00    +0.040 A 
ATOM     26  C   UNL     1      -1.370   3.893   1.086  0.00  0.00    +0.145 A 
ATOM     27  F   UNL     1      -1.250   3.311   2.299  0.00  0.00    -0.204 F 
ENDBRANCH  19  21
ENDBRANCH  11  17
TORSDOF 2
