REMARK  Name = ZINC32853687
REMARK  8 active torsions:
REMARK  status: ('A' for Active; 'I' for Inactive)
REMARK    1  A    between atoms: C_1  and  C_2
REMARK    2  A    between atoms: C_2  and  C_4
REMARK    3  A    between atoms: C_2  and  N_20
REMARK    4  A    between atoms: N_6  and  C_7
REMARK    5  A    between atoms: C_7  and  C_8
REMARK    6  A    between atoms: C_7  and  C_14
REMARK    7  A    between atoms: N_23  and  C_26
REMARK    8  A    between atoms: C_26  and  C_27
REMARK                            x       y       z     vdW  Elec       q    Type
REMARK                         _______ _______ _______ _____ _____    ______ ____
ROOT
ATOM      1  C   UNL     1      -0.243   1.358   0.654  0.00  0.00    +0.034 C 
ATOM      2  C   UNL     1       0.002  -0.004   0.002  0.00  0.00    +0.140 C 
ENDROOT
BRANCH   2   3
ATOM      3  N   UNL     1       0.871  -0.813   0.868  0.00  0.00    -0.289 NA
ATOM      4  C   UNL     1       2.267  -0.364   0.779  0.00  0.00    +0.100 C 
ATOM      5  C   UNL     1       3.150  -1.279   1.631  0.00  0.00    +0.100 C 
ATOM      6  N   UNL     1       2.678  -1.252   3.023  0.00  0.00    -0.294 NA
ATOM      7  C   UNL     1       1.282  -1.702   3.111  0.00  0.00    +0.100 C 
ATOM      8  C   UNL     1       0.399  -0.786   2.259  0.00  0.00    +0.100 C 
BRANCH   6   9
ATOM      9  C   UNL     1       3.547  -2.061   3.889  0.00  0.00    +0.139 C 
BRANCH   9  10
ATOM     10  C   UNL     1       3.186  -1.817   5.331  0.00  0.00    +0.048 A 
ATOM     11  C   UNL     1       3.783  -0.927   6.153  0.00  0.00    +0.115 A 
ATOM     12  N   UNL     1       3.161  -1.018   7.369  0.00  0.00    -0.308 N 
ATOM     13  C   UNL     1       3.347  -0.365   8.553  0.00  0.00    +0.092 A 
ATOM     14  C   UNL     1       2.578  -0.652   9.623  0.00  0.00    +0.018 A 
ATOM     15  C   UNL     1       1.573  -1.629   9.533  0.00  0.00    +0.005 A 
ATOM     16  C   UNL     1       1.377  -2.287   8.359  0.00  0.00    +0.045 A 
ATOM     17  C   UNL     1       2.188  -1.976   7.249  0.00  0.00    +0.115 A 
ATOM     18  N   UNL     1       2.219  -2.441   6.008  0.00  0.00    -0.342 N 
ATOM     19  H   UNL     1       1.634  -3.127   5.650  0.00  0.00    +0.167 HD
ENDBRANCH   9  10
ENDBRANCH   6   9
ENDBRANCH   2   3
BRANCH   2  20
ATOM     20  C   UNL     1      -1.314  -0.712  -0.191  0.00  0.00    +0.231 C 
ATOM     21  O   UNL     1      -1.620  -1.633   0.537  0.00  0.00    -0.274 OA
ATOM     22  N   UNL     1      -2.151  -0.323  -1.173  0.00  0.00    -0.303 N 
ATOM     23  H   UNL     1      -1.907   0.414  -1.755  0.00  0.00    +0.150 HD
BRANCH  22  24
ATOM     24  C   UNL     1      -3.431  -1.011  -1.360  0.00  0.00    +0.134 C 
BRANCH  24  25
ATOM     25  C   UNL     1      -4.407  -0.082  -2.035  0.00  0.00    -0.023 A 
ATOM     26  C   UNL     1      -3.981   0.746  -3.056  0.00  0.00    +0.006 A 
ATOM     27  C   UNL     1      -4.876   1.598  -3.675  0.00  0.00    +0.000 A 
ATOM     28  C   UNL     1      -6.198   1.622  -3.272  0.00  0.00    +0.000 A 
ATOM     29  C   UNL     1      -6.625   0.794  -2.251  0.00  0.00    +0.000 A 
ATOM     30  C   UNL     1      -5.730  -0.062  -1.635  0.00  0.00    +0.006 A 
ENDBRANCH  24  25
BRANCH  24  31
ATOM     31  C   UNL     1      -3.223  -2.232  -2.220  0.00  0.00    -0.023 A 
ATOM     32  C   UNL     1      -2.364  -2.177  -3.301  0.00  0.00    +0.006 A 
ATOM     33  C   UNL     1      -2.173  -3.297  -4.089  0.00  0.00    +0.000 A 
ATOM     34  C   UNL     1      -2.842  -4.470  -3.796  0.00  0.00    +0.000 A 
ATOM     35  C   UNL     1      -3.701  -4.525  -2.715  0.00  0.00    +0.000 A 
ATOM     36  C   UNL     1      -3.888  -3.407  -1.924  0.00  0.00    +0.006 A 
ENDBRANCH  24  31
ENDBRANCH  22  24
ENDBRANCH   2  20
TORSDOF 7
