REMARK  Name = ZINC13466151
REMARK  8 active torsions:
REMARK  status: ('A' for Active; 'I' for Inactive)
REMARK    1  A    between atoms: C_1  and  C_2
REMARK    2  A    between atoms: C_2  and  C_28
REMARK    3  A    between atoms: C_6  and  S_21
REMARK    4  A    between atoms: C_8  and  C_9
REMARK    5  A    between atoms: C_14  and  C_16
REMARK    6  A    between atoms: S_21  and  C_22
REMARK    7  A    between atoms: N_24  and  O_25
REMARK    8  A    between atoms: O_25  and  C_26
REMARK                            x       y       z     vdW  Elec       q    Type
REMARK                         _______ _______ _______ _____ _____    ______ ____
ROOT
ATOM      1  C   UNL     1      -2.520   3.952  -1.105  0.00  0.00    +0.011 C 
ATOM      2  C   UNL     1      -1.174   3.237  -0.971  0.00  0.00    -0.025 C 
ATOM      3  C   UNL     1      -0.121   4.229  -0.484  0.00  0.00    +0.043 C 
ATOM      4  C   UNL     1       1.194   3.498  -0.231  0.00  0.00    -0.020 A 
ATOM      5  C   UNL     1       1.239   2.104   0.002  0.00  0.00    +0.024 A 
ATOM      6  C   UNL     1       2.490   1.522   0.222  0.00  0.00    +0.055 A 
ATOM      7  S   UNL     1       3.591   2.917   0.105  0.00  0.00    -0.079 S 
ATOM      8  C   UNL     1       2.382   4.181  -0.223  0.00  0.00    +0.044 A 
ATOM      9  C   UNL     1      -0.015   1.293   0.009  0.00  0.00    +0.090 C 
ATOM     10  N   UNL     1       0.002  -0.004   0.002  0.00  0.00    -0.089 NA
ATOM     11  C   UNL     1      -1.310   2.081   0.019  0.00  0.00    +0.066 C 
ATOM     12  C   UNL     1      -0.759   2.685  -2.336  0.00  0.00    +0.011 C 
ENDROOT
BRANCH   8  13
ATOM     13  C   UNL     1       2.606   5.626  -0.437  0.00  0.00    +0.100 A 
ATOM     14  C   UNL     1       3.856   6.285  -0.413  0.00  0.00    +0.050 A 
ATOM     15  C   UNL     1       3.640   7.593  -0.653  0.00  0.00    +0.118 A 
ATOM     16  N   UNL     1       2.298   7.772  -0.817  0.00  0.00    -0.203 N 
ATOM     17  N   UNL     1       1.674   6.526  -0.677  0.00  0.00    -0.163 NA
ATOM     18  C   UNL     1       1.681   8.943  -1.070  0.00  0.00    +0.285 C 
ATOM     19  O   UNL     1       2.333   9.965  -1.172  0.00  0.00    -0.265 OA
BRANCH  18  20
ATOM     20  C   UNL     1       0.226   8.985  -1.222  0.00  0.00    +0.078 A 
ATOM     21  C   UNL     1      -0.595  10.073  -1.482  0.00  0.00    +0.021 A 
ATOM     22  C   UNL     1      -1.942   9.830  -1.577  0.00  0.00    +0.008 A 
ATOM     23  C   UNL     1      -2.400   8.560  -1.416  0.00  0.00    +0.046 A 
ATOM     24  S   UNL     1      -0.953   7.650  -1.131  0.00  0.00    -0.092 S 
ENDBRANCH  18  20
ENDBRANCH   8  13
BRANCH   6  25
ATOM     25  S   UNL     1       2.880  -0.167   0.537  0.00  0.00    -0.121 S 
ATOM     26  C   UNL     1       4.679  -0.049   0.699  0.00  0.00    +0.090 C 
ENDBRANCH   6  25
BRANCH  10  27
ATOM     27  O   UNL     1      -1.214  -0.729   0.010  0.00  0.00    -0.397 OA
ATOM     28  C   UNL     1      -1.046  -2.148   0.001  0.00  0.00    +0.313 C 
ENDBRANCH  10  27
TORSDOF 4
