REMARK  Name = ZINC04290044
REMARK  9 active torsions:
REMARK  status: ('A' for Active; 'I' for Inactive)
REMARK    1  A    between atoms: C_1  and  C_2
REMARK    2  A    between atoms: C_2  and  C_3
REMARK    3  A    between atoms: C_9  and  C_10
REMARK    4  A    between atoms: C_9  and  N_66
REMARK    5  A    between atoms: C_11  and  O_38
REMARK    6  A    between atoms: C_17  and  C_34
REMARK    7  A    between atoms: C_18  and  O_21
REMARK    8  A    between atoms: O_21  and  C_22
REMARK    9  A    between atoms: C_25  and  C_28
REMARK                            x       y       z     vdW  Elec       q    Type
REMARK                         _______ _______ _______ _____ _____    ______ ____
ROOT
ATOM      1  C   UNL     1       1.620   2.332  -2.174  0.00  0.00    +0.020 A 
ATOM      2  C   UNL     1       2.872   2.008  -1.678  0.00  0.00    +0.122 A 
ATOM      3  C   UNL     1       4.016   2.226  -2.442  0.00  0.00    +0.046 A 
ATOM      4  C   UNL     1       3.918   2.764  -3.694  0.00  0.00    +0.019 A 
ATOM      5  C   UNL     1       2.664   3.095  -4.209  0.00  0.00    +0.068 A 
ATOM      6  C   UNL     1       1.503   2.873  -3.446  0.00  0.00    +0.144 A 
ATOM      7  O   UNL     1       0.297   3.204  -3.951  0.00  0.00    -0.447 OA
ATOM      8  C   UNL     1       0.151   3.733  -5.172  0.00  0.00    +0.254 A 
ATOM      9  C   UNL     1       1.194   3.982  -5.989  0.00  0.00    +0.222 A 
ATOM     10  C   UNL     1       2.515   3.677  -5.554  0.00  0.00    +0.235 A 
ATOM     11  O   UNL     1       3.483   3.889  -6.265  0.00  0.00    -0.283 OA
ENDROOT
BRANCH   8  12
ATOM     12  C   UNL     1      -1.238   4.065  -5.654  0.00  0.00    +0.454 C 
ATOM     13  F   UNL     1      -1.571   3.232  -6.728  0.00  0.00    -0.163 F 
ATOM     14  F   UNL     1      -2.152   3.869  -4.612  0.00  0.00    -0.163 F 
ATOM     15  F   UNL     1      -1.282   5.400  -6.068  0.00  0.00    -0.163 F 
ENDBRANCH   8  12
BRANCH   2  16
ATOM     16  O   UNL     1       2.985   1.473  -0.435  0.00  0.00    -0.506 OA
ATOM     17  H   UNL     1       2.944   0.507  -0.418  0.00  0.00    +0.292 HD
ENDBRANCH   2  16
BRANCH   1  18
ATOM     18  C   UNL     1       0.390   2.092  -1.337  0.00  0.00    -0.035 C 
BRANCH  18  24
ATOM     19  C   UNL     1      -0.962   2.993   0.458  0.00  0.00    -0.068 C 
ATOM     20  C   UNL     1      -1.048   4.116   1.493  0.00  0.00    -0.015 C 
ATOM     21  C   UNL     1      -1.190   5.459   0.772  0.00  0.00    -0.003 C 
ATOM     22  C   UNL     1       0.001   5.651  -0.171  0.00  0.00    -0.019 C 
ATOM     23  C   UNL     1       0.057   4.483  -1.159  0.00  0.00    -0.078 C 
ATOM     24  N   UNL     1       0.218   3.223  -0.403  0.00  0.00    +0.384 N 
ATOM     25  H   UNL     1       1.054   3.295   0.190  0.00  0.00    -0.081 HD
BRANCH  19  27
ATOM     26  C   UNL     1      -2.045   1.368   2.016  0.00  0.00    +0.002 C 
ATOM     27  C   UNL     1      -0.799   1.651   1.174  0.00  0.00    -0.019 C 
ENDBRANCH  19  27
ENDBRANCH  18  24
ENDBRANCH   1  18
BRANCH   9  28
ATOM     28  O   UNL     1       0.986   4.521  -7.221  0.00  0.00    -0.448 OA
BRANCH  28  29
ATOM     29  C   UNL     1       0.787   3.673  -8.263  0.00  0.00    +0.129 A 
ATOM     30  C   UNL     1       0.806   2.300  -8.053  0.00  0.00    +0.047 A 
ATOM     31  C   UNL     1       0.600   1.437  -9.108  0.00  0.00    +0.012 A 
ATOM     32  C   UNL     1       0.382   1.943 -10.388  0.00  0.00    -0.018 A 
ATOM     33  C   UNL     1       0.369   3.321 -10.598  0.00  0.00    +0.012 A 
ATOM     34  C   UNL     1       0.571   4.180  -9.538  0.00  0.00    +0.047 A 
BRANCH  32  35
ATOM     35  C   UNL     1       0.166   1.016 -11.526  0.00  0.00    -0.018 A 
ATOM     36  C   UNL     1      -0.057   1.521 -12.806  0.00  0.00    +0.008 A 
ATOM     37  C   UNL     1      -0.255   0.654 -13.862  0.00  0.00    +0.001 A 
ATOM     38  C   UNL     1      -0.240  -0.713 -13.650  0.00  0.00    +0.000 A 
ATOM     39  C   UNL     1      -0.024  -1.219 -12.381  0.00  0.00    +0.001 A 
ATOM     40  C   UNL     1       0.179  -0.362 -11.319  0.00  0.00    +0.008 A 
ENDBRANCH  32  35
ENDBRANCH  28  29
ENDBRANCH   9  28
TORSDOF 8
