REMARK  Name = ZINC19363059
REMARK  4 active torsions:
REMARK  status: ('A' for Active; 'I' for Inactive)
REMARK    1  A    between atoms: C_12  and  N_30
REMARK    2  A    between atoms: C_16  and  C_18
REMARK    3  A    between atoms: C_18  and  C_19
REMARK    4  A    between atoms: C_19  and  N_20
REMARK                            x       y       z     vdW  Elec       q    Type
REMARK                         _______ _______ _______ _____ _____    ______ ____
ROOT
ATOM      1  C   UNL     1      -2.265  -4.739   2.350  0.00  0.00    +0.000 A 
ATOM      2  C   UNL     1      -1.352  -3.706   2.469  0.00  0.00    +0.002 A 
ATOM      3  C   UNL     1      -1.187  -3.090   3.688  0.00  0.00    +0.024 A 
ATOM      4  C   UNL     1      -1.930  -3.494   4.804  0.00  0.00    +0.044 A 
ATOM      5  C   UNL     1      -2.858  -4.496   4.678  0.00  0.00    -0.025 A 
ATOM      6  C   UNL     1      -2.998  -5.125   3.436  0.00  0.00    +0.005 A 
ATOM      7  C   UNL     1      -3.790  -5.014   5.744  0.00  0.00    +0.042 C 
ATOM      8  C   UNL     1      -3.865  -4.154   6.981  0.00  0.00    +0.042 C 
ATOM      9  C   UNL     1      -2.572  -4.127   7.740  0.00  0.00    -0.025 A 
ATOM     10  C   UNL     1      -2.473  -4.771   8.964  0.00  0.00    +0.007 A 
ATOM     11  C   UNL     1      -1.267  -4.777   9.638  0.00  0.00    +0.024 A 
ATOM     12  C   UNL     1      -0.156  -4.142   9.095  0.00  0.00    +0.035 A 
ATOM     13  C   UNL     1      -0.262  -3.490   7.873  0.00  0.00    +0.047 A 
ATOM     14  C   UNL     1      -1.481  -3.486   7.213  0.00  0.00    +0.046 A 
ATOM     15  N   UNL     1      -1.643  -2.829   5.994  0.00  0.00    -0.240 N 
ATOM     16  C   UNL     1      -1.522  -1.487   5.967  0.00  0.00    +0.225 C 
ATOM     17  O   UNL     1      -1.749  -0.878   4.943  0.00  0.00    -0.275 OA
ENDROOT
BRANCH  12  18
ATOM     18  N   UNL     1       1.065  -4.160   9.778  0.00  0.00    -0.288 N 
ATOM     19  C   UNL     1       2.220  -4.032   9.096  0.00  0.00    +0.330 C 
ATOM     20  O   UNL     1       2.209  -4.005   7.884  0.00  0.00    -0.279 OA
ATOM     21  H   UNL     1       1.082  -4.277  10.872  0.00  0.00    +0.155 HD
ENDBRANCH  12  18
BRANCH  16  22
ATOM     22  C   UNL     1      -1.103  -0.743   7.209  0.00  0.00    +0.112 C 
BRANCH  22  23
ATOM     23  C   UNL     1      -0.924   0.740   6.879  0.00  0.00    +0.093 C 
BRANCH  23  24
ATOM     24  N   UNL     1      -0.516   1.466   8.089  0.00  0.00    -0.305 NA
ATOM     25  C   UNL     1       0.817   1.043   8.531  0.00  0.00    +0.066 C 
ATOM     26  C   UNL     1       1.243   1.803   9.797  0.00  0.00    -0.063 C 
ATOM     27  N   UNL     1       0.216   1.588  10.805  0.00  0.00    +0.383 N 
ATOM     28  C   UNL     1       0.435   2.151  12.136  0.00  0.00    -0.078 C 
ATOM     29  C   UNL     1      -0.975   2.408  12.723  0.00  0.00    -0.020 C 
ATOM     30  C   UNL     1      -1.960   2.041  11.579  0.00  0.00    -0.016 C 
ATOM     31  C   UNL     1      -1.068   2.176  10.333  0.00  0.00    -0.054 C 
ATOM     32  C   UNL     1      -1.534   1.339   9.150  0.00  0.00    +0.069 C 
ATOM     33  H   UNL     1       0.246   0.495  10.924  0.00  0.00    -0.081 HD
ENDBRANCH  23  24
ENDBRANCH  22  23
ENDBRANCH  16  22
TORSDOF 4
