REMARK  Name = ZINC16838388
REMARK  10 active torsions:
REMARK  status: ('A' for Active; 'I' for Inactive)
REMARK    1  A    between atoms: C_1  and  C_2
REMARK    2  A    between atoms: C_2  and  C_3
REMARK    3  A    between atoms: C_2  and  C_4
REMARK    4  A    between atoms: C_7  and  N_10
REMARK    5  A    between atoms: C_11  and  C_13
REMARK    6  A    between atoms: N_15  and  C_16
REMARK    7  A    between atoms: C_16  and  C_17
REMARK    8  A    between atoms: C_17  and  C_19
REMARK    9  A    between atoms: C_17  and  N_69
REMARK   10  A    between atoms: N_28  and  C_29
REMARK                            x       y       z     vdW  Elec       q    Type
REMARK                         _______ _______ _______ _____ _____    ______ ____
ROOT
ATOM      1  C   UNL     1       2.675   0.715   1.823  0.00  0.00    +0.094 C 
ENDROOT
BRANCH   1   4
ATOM      2  C   UNL     1       3.317   1.971   3.809  0.00  0.00    +0.299 C 
ATOM      3  O   UNL     1       3.406   0.920   4.409  0.00  0.00    -0.265 OA
ATOM      4  N   UNL     1       2.958   1.977   2.510  0.00  0.00    -0.309 N 
ATOM      5  H   UNL     1       2.886   2.818   2.031  0.00  0.00    +0.149 HD
BRANCH   2   7
ATOM      6  N   UNL     1       3.964   3.252   5.809  0.00  0.00    -0.278 N 
ATOM      7  C   UNL     1       3.605   3.258   4.511  0.00  0.00    +0.303 C 
ATOM      8  O   UNL     1       3.516   4.309   3.910  0.00  0.00    -0.265 OA
ATOM      9  H   UNL     1       3.961   2.421   6.310  0.00  0.00    +0.155 HD
BRANCH   6  13
ATOM     10  C   UNL     1       5.086   6.801   7.677  0.00  0.00    -0.045 A 
ATOM     11  C   UNL     1       4.092   6.812   6.715  0.00  0.00    +0.006 A 
ATOM     12  C   UNL     1       3.718   5.637   6.094  0.00  0.00    +0.023 A 
ATOM     13  C   UNL     1       4.341   4.443   6.436  0.00  0.00    +0.034 A 
ATOM     14  C   UNL     1       5.335   4.435   7.406  0.00  0.00    +0.023 A 
ATOM     15  C   UNL     1       5.708   5.614   8.020  0.00  0.00    +0.006 A 
BRANCH  10  17
ATOM     16  C   UNL     1       5.256   7.966   9.859  0.00  0.00    +0.012 C 
ATOM     17  C   UNL     1       5.492   8.085   8.352  0.00  0.00    +0.013 C 
ATOM     18  C   UNL     1       6.975   8.354   8.088  0.00  0.00    +0.012 C 
ENDBRANCH  10  17
ENDBRANCH   6  13
ENDBRANCH   2   7
ENDBRANCH   1   4
BRANCH   1  19
ATOM     19  C   UNL     1       2.412   0.990   0.341  0.00  0.00    -0.020 C 
BRANCH  19  20
ATOM     20  C   UNL     1       1.178   1.842   0.199  0.00  0.00    -0.059 A 
ATOM     21  C   UNL     1      -0.076   1.264   0.278  0.00  0.00    +0.004 A 
ATOM     22  C   UNL     1      -1.204   2.045   0.140  0.00  0.00    +0.023 A 
ATOM     23  C   UNL     1      -1.090   3.421  -0.070  0.00  0.00    +0.033 A 
ATOM     24  C   UNL     1       0.167   3.994  -0.145  0.00  0.00    -0.026 A 
ATOM     25  C   UNL     1       1.296   3.202  -0.011  0.00  0.00    +0.007 A 
ATOM     26  C   UNL     1       0.359   5.474  -0.365  0.00  0.00    +0.038 C 
ATOM     27  C   UNL     1      -0.949   6.094  -0.863  0.00  0.00    +0.024 C 
ATOM     28  C   UNL     1      -2.084   5.587   0.036  0.00  0.00    +0.105 C 
ATOM     29  N   UNL     1      -2.268   4.154  -0.206  0.00  0.00    -0.333 N 
ATOM     30  C   UNL     1      -3.329   3.608   0.650  0.00  0.00    +0.129 C 
ENDBRANCH  19  20
BRANCH  19  35
ATOM     31  C   UNL     1       1.979  -0.057  -1.815  0.00  0.00    -0.078 C 
ATOM     32  C   UNL     1       2.316  -1.431  -2.446  0.00  0.00    -0.020 C 
ATOM     33  C   UNL     1       3.517  -1.915  -1.602  0.00  0.00    -0.020 C 
ATOM     34  C   UNL     1       3.419  -1.133  -0.278  0.00  0.00    -0.078 C 
ATOM     35  N   UNL     1       2.218  -0.302  -0.384  0.00  0.00    +0.385 N 
ATOM     36  H   UNL     1       1.416  -0.799   0.022  0.00  0.00    -0.081 HD
ENDBRANCH  19  35
ENDBRANCH   1  19
TORSDOF 7
