REMARK  Name = ZINC44169667
REMARK  4 active torsions:
REMARK  status: ('A' for Active; 'I' for Inactive)
REMARK    1  A    between atoms: C_10  and  C_11
REMARK    2  A    between atoms: C_11  and  N_12
REMARK    3  A    between atoms: C_13  and  C_15
REMARK    4  A    between atoms: C_20  and  C_23
REMARK                            x       y       z     vdW  Elec       q    Type
REMARK                         _______ _______ _______ _____ _____    ______ ____
ROOT
ATOM      1  N   UNL     1       7.374   0.891   0.743  0.00  0.00    -0.312 N 
ATOM      2  C   UNL     1       6.386   1.328   1.548  0.00  0.00    +0.200 C 
ATOM      3  O   UNL     1       5.241   1.349   1.148  0.00  0.00    -0.278 OA
ATOM      4  H   UNL     1       8.289   0.874   1.063  0.00  0.00    +0.149 HD
ENDROOT
BRANCH   2   5
ATOM      5  C   UNL     1       6.704   1.792   2.947  0.00  0.00    +0.027 C 
ATOM      6  C   UNL     1       5.632   2.786   3.409  0.00  0.00    +0.062 C 
ATOM      7  S   UNL     1       5.594   4.173   2.231  0.00  0.00    -0.163 S 
ATOM      8  C   UNL     1       7.350   4.636   2.104  0.00  0.00    +0.058 C 
ATOM      9  C   UNL     1       8.164   3.365   1.837  0.00  0.00    -0.030 C 
ATOM     10  N   UNL     1       8.018   2.437   2.958  0.00  0.00    +0.392 N 
ATOM     11  H   UNL     1       8.130   2.944   3.824  0.00  0.00    -0.084 HD
ATOM     12  H   UNL     1       8.734   1.730   2.895  0.00  0.00    -0.084 HD
BRANCH   9  13
ATOM     13  C   UNL     1       9.618   3.727   1.673  0.00  0.00    -0.061 A 
ATOM     14  C   UNL     1      10.404   3.949   2.788  0.00  0.00    +0.003 A 
ATOM     15  C   UNL     1      11.738   4.280   2.639  0.00  0.00    +0.020 A 
ATOM     16  C   UNL     1      12.285   4.390   1.373  0.00  0.00    +0.041 A 
ATOM     17  C   UNL     1      11.498   4.168   0.258  0.00  0.00    +0.020 A 
ATOM     18  C   UNL     1      10.166   3.831   0.408  0.00  0.00    +0.003 A 
ATOM     19 CL   UNL     1      13.960   4.808   1.185  0.00  0.00    -0.084 Cl
ENDBRANCH   9  13
ENDBRANCH   2   5
BRANCH   1  20
ATOM     20  C   UNL     1       7.065   0.440  -0.617  0.00  0.00    +0.140 C 
BRANCH  20  30
ATOM     21  C   UNL     1       9.989  -3.761  -0.568  0.00  0.00    +0.001 A 
ATOM     22  C   UNL     1       8.814  -3.376   0.076  0.00  0.00    +0.001 A 
ATOM     23  C   UNL     1       8.259  -2.154  -0.149  0.00  0.00    +0.009 A 
ATOM     24  C   UNL     1       8.877  -1.264  -1.044  0.00  0.00    -0.013 A 
ATOM     25  C   UNL     1      10.072  -1.655  -1.700  0.00  0.00    -0.018 A 
ATOM     26  C   UNL     1      10.615  -2.926  -1.441  0.00  0.00    +0.008 A 
ATOM     27  C   UNL     1      10.690  -0.766  -2.594  0.00  0.00    +0.008 A 
ATOM     28  C   UNL     1      10.135   0.457  -2.820  0.00  0.00    +0.001 A 
ATOM     29  C   UNL     1       8.961   0.841  -2.175  0.00  0.00    +0.006 A 
ATOM     30  C   UNL     1       8.335   0.006  -1.303  0.00  0.00    -0.023 A 
ENDBRANCH  20  30
ENDBRANCH   1  20
TORSDOF 4
