REMARK  Name = ZINC39722262
REMARK  7 active torsions:
REMARK  status: ('A' for Active; 'I' for Inactive)
REMARK    1  A    between atoms: C_6  and  C_7
REMARK    2  A    between atoms: C_11  and  S_21
REMARK    3  A    between atoms: N_13  and  C_14
REMARK    4  A    between atoms: C_14  and  C_15
REMARK    5  A    between atoms: S_21  and  C_22
REMARK    6  A    between atoms: C_22  and  C_23
REMARK    7  A    between atoms: C_31  and  C_35
REMARK                            x       y       z     vdW  Elec       q    Type
REMARK                         _______ _______ _______ _____ _____    ______ ____
ROOT
ATOM      1  C   UNL     1      -1.293  -0.775   0.011  0.00  0.00    +0.049 C 
ATOM      2  N   UNL     1      -2.339  -0.018  -0.715  0.00  0.00    -0.267 NA
ATOM      3  N   UNL     1      -2.317  -0.575  -2.076  0.00  0.00    -0.262 NA
ATOM      4  C   UNL     1      -2.076  -2.023  -1.844  0.00  0.00    +0.077 C 
ATOM      5  N   UNL     1      -1.125  -2.056  -0.707  0.00  0.00    +0.412 N 
ATOM      6  H   UNL     1      -3.242  -0.148  -0.285  0.00  0.00    +0.139 HD
ATOM      7  H   UNL     1      -3.200  -0.426  -2.542  0.00  0.00    +0.140 HD
ATOM      8  H   UNL     1      -0.179  -2.139  -1.049  0.00  0.00    -0.075 HD
ENDROOT
BRANCH   1  14
ATOM      9  C   UNL     1      -0.017   1.378   0.010  0.00  0.00    +0.005 A 
ATOM     10  C   UNL     1       1.171   2.086   0.002  0.00  0.00    +0.020 A 
ATOM     11  C   UNL     1       2.378   1.410  -0.013  0.00  0.00    +0.041 A 
ATOM     12  C   UNL     1       2.396   0.027  -0.021  0.00  0.00    +0.020 A 
ATOM     13  C   UNL     1       1.208  -0.679  -0.013  0.00  0.00    +0.005 A 
ATOM     14  C   UNL     1       0.002  -0.004   0.002  0.00  0.00    -0.046 A 
ATOM     15 CL   UNL     1       3.870   2.298  -0.023  0.00  0.00    -0.084 Cl
ENDBRANCH   1  14
BRANCH   5  16
ATOM     16  C   UNL     1      -1.442  -3.179   0.185  0.00  0.00    -0.041 C 
BRANCH  16  17
ATOM     17  C   UNL     1      -1.144  -4.498  -0.531  0.00  0.00    +0.102 C 
ATOM     18  C   UNL     1      -1.587  -5.684   0.352  0.00  0.00    +0.032 C 
ATOM     19  C   UNL     1      -0.449  -6.714   0.117  0.00  0.00    +0.030 C 
ATOM     20  C   UNL     1       0.770  -5.772  -0.048  0.00  0.00    +0.160 C 
ATOM     21  O   UNL     1       0.265  -4.624  -0.752  0.00  0.00    -0.378 OA
ENDBRANCH  16  17
ENDBRANCH   5  16
BRANCH   4  22
ATOM     22  S   UNL     1      -1.339  -2.788  -3.314  0.00  0.00    -0.152 S 
BRANCH  22  23
ATOM     23  C   UNL     1       0.190  -1.850  -3.578  0.00  0.00    +0.143 C 
BRANCH  23  24
ATOM     24  C   UNL     1       0.910  -2.391  -4.787  0.00  0.00    +0.120 A 
ATOM     25  N   UNL     1       2.088  -1.818  -5.145  0.00  0.00    -0.310 N 
ATOM     26  H   UNL     1       2.442  -1.080  -4.625  0.00  0.00    +0.170 HD
ATOM     27  C   UNL     1       2.773  -2.267  -6.223  0.00  0.00    +0.259 A 
ATOM     28  O   UNL     1       3.830  -1.764  -6.555  0.00  0.00    -0.267 OA
ATOM     29  C   UNL     1       2.190  -3.391  -6.977  0.00  0.00    +0.065 A 
ATOM     30  C   UNL     1       2.818  -3.925  -8.100  0.00  0.00    +0.016 A 
ATOM     31  C   UNL     1       2.243  -4.967  -8.770  0.00  0.00    +0.016 A 
ATOM     32  C   UNL     1       1.023  -5.505  -8.338  0.00  0.00    +0.065 A 
ATOM     33  C   UNL     1       0.380  -4.986  -7.220  0.00  0.00    +0.043 A 
ATOM     34  C   UNL     1       0.961  -3.921  -6.528  0.00  0.00    +0.079 A 
ATOM     35  N   UNL     1       0.374  -3.384  -5.428  0.00  0.00    -0.233 NA
BRANCH  32  36
ATOM     36  C   UNL     1       0.416  -6.633  -9.076  0.00  0.00    +0.387 C 
ATOM     37  O   UNL     1       0.978  -7.093 -10.059  0.00  0.00    -0.241 OA
ATOM     38  O   UNL     1      -0.648  -7.106  -8.702  0.00  0.00    -0.241 OA
ENDBRANCH  32  36
ENDBRANCH  23  24
ENDBRANCH  22  23
ENDBRANCH   4  22
TORSDOF 7
