REMARK  Name = ZINC12523041
REMARK  8 active torsions:
REMARK  status: ('A' for Active; 'I' for Inactive)
REMARK    1  A    between atoms: C_1  and  C_2
REMARK    2  A    between atoms: C_2  and  N_3
REMARK    3  A    between atoms: N_3  and  C_4
REMARK    4  A    between atoms: C_4  and  C_5
REMARK    5  A    between atoms: N_7  and  C_8
REMARK    6  A    between atoms: C_16  and  C_18
REMARK    7  A    between atoms: C_20  and  N_30
REMARK    8  A    between atoms: C_23  and  N_24
REMARK                            x       y       z     vdW  Elec       q    Type
REMARK                         _______ _______ _______ _____ _____    ______ ____
ROOT
ATOM      1  N   UNL     1       1.078   1.317   1.982  0.00  0.00    -0.289 N 
ATOM      2  C   UNL     1       1.562   0.666   0.906  0.00  0.00    +0.249 C 
ATOM      3  O   UNL     1       1.541  -0.549   0.870  0.00  0.00    -0.270 OA
ENDROOT
BRANCH   2   4
ATOM      4  C   UNL     1       2.118   1.428  -0.227  0.00  0.00    +0.060 A 
ATOM      5  C   UNL     1       1.322   2.348  -0.915  0.00  0.00    +0.047 A 
ATOM      6  C   UNL     1       1.847   3.056  -1.973  0.00  0.00    +0.127 A 
ATOM      7  C   UNL     1       3.164   2.862  -2.360  0.00  0.00    +0.034 A 
ATOM      8  C   UNL     1       3.963   1.958  -1.692  0.00  0.00    +0.026 A 
ATOM      9  C   UNL     1       3.453   1.238  -0.618  0.00  0.00    +0.042 A 
BRANCH   9  10
ATOM     10  N   UNL     1       4.257   0.332   0.060  0.00  0.00    -0.329 N 
ATOM     11  C   UNL     1       4.333  -1.071  -0.370  0.00  0.00    +0.105 C 
ATOM     12  C   UNL     1       5.803  -1.443  -0.581  0.00  0.00    +0.019 C 
ATOM     13  C   UNL     1       6.592  -1.133   0.693  0.00  0.00    +0.003 C 
ATOM     14  C   UNL     1       6.511   0.365   0.994  0.00  0.00    +0.019 C 
ATOM     15  C   UNL     1       5.053   0.759   1.219  0.00  0.00    +0.105 C 
ENDBRANCH   9  10
BRANCH   6  16
ATOM     16  N   UNL     1       1.002   4.029  -2.700  0.00  0.00    +0.056 N 
ATOM     17  O   UNL     1      -0.147   4.200  -2.365  0.00  0.00    -0.126 OA
ATOM     18  O   UNL     1       1.460   4.653  -3.629  0.00  0.00    -0.126 OA
ENDBRANCH   6  16
ENDBRANCH   2   4
BRANCH   1  20
ATOM     19  C   UNL     1       2.271   3.349   2.637  0.00  0.00    +0.024 C 
ATOM     20  C   UNL     1       1.010   2.781   1.984  0.00  0.00    +0.105 C 
ENDBRANCH   1  20
BRANCH   1  21
ATOM     21  C   UNL     1       0.619   0.561   3.150  0.00  0.00    +0.204 C 
BRANCH  21  22
ATOM     22  C   UNL     1      -0.846   0.242   2.998  0.00  0.00    +0.235 C 
ATOM     23  O   UNL     1      -1.448   0.610   2.011  0.00  0.00    -0.274 OA
ATOM     24  N   UNL     1      -1.488  -0.452   3.959  0.00  0.00    -0.280 N 
ATOM     25  H   UNL     1      -1.019  -0.707   4.769  0.00  0.00    +0.155 HD
BRANCH  24  26
ATOM     26  C   UNL     1      -2.833  -0.806   3.787  0.00  0.00    +0.105 A 
ATOM     27  C   UNL     1      -3.688  -0.848   4.883  0.00  0.00    +0.147 A 
ATOM     28  C   UNL     1      -5.015  -1.198   4.710  0.00  0.00    +0.040 A 
ATOM     29  C   UNL     1      -5.492  -1.506   3.449  0.00  0.00    +0.006 A 
ATOM     30  C   UNL     1      -4.645  -1.466   2.357  0.00  0.00    +0.040 A 
ATOM     31  C   UNL     1      -3.318  -1.111   2.521  0.00  0.00    +0.147 A 
ATOM     32  F   UNL     1      -2.492  -1.066   1.452  0.00  0.00    -0.203 F 
ATOM     33  F   UNL     1      -3.223  -0.548   6.115  0.00  0.00    -0.203 F 
ENDBRANCH  24  26
ENDBRANCH  21  22
ENDBRANCH   1  21
TORSDOF 7
