REMARK  Name = ZINC60392185
REMARK  9 active torsions:
REMARK  status: ('A' for Active; 'I' for Inactive)
REMARK    1  A    between atoms: C_1  and  C_2
REMARK    2  A    between atoms: C_2  and  N_3
REMARK    3  A    between atoms: N_3  and  C_4
REMARK    4  A    between atoms: N_3  and  C_6
REMARK    5  A    between atoms: C_4  and  C_5
REMARK    6  A    between atoms: C_6  and  C_7
REMARK    7  A    between atoms: C_7  and  N_8
REMARK    8  A    between atoms: N_17  and  C_18
REMARK    9  A    between atoms: C_18  and  C_20
REMARK                            x       y       z     vdW  Elec       q    Type
REMARK                         _______ _______ _______ _____ _____    ______ ____
ROOT
ATOM      1  N   UNL     1      -1.454  -3.768  -1.653  0.00  0.00    -0.314 N 
ATOM      2  C   UNL     1      -1.584  -4.452  -2.857  0.00  0.00    +0.068 A 
ATOM      3  C   UNL     1      -1.515  -4.053  -4.184  0.00  0.00    +0.028 A 
ATOM      4  C   UNL     1      -1.690  -4.981  -5.191  0.00  0.00    +0.002 A 
ATOM      5  C   UNL     1      -1.934  -6.309  -4.882  0.00  0.00    +0.002 A 
ATOM      6  C   UNL     1      -2.005  -6.716  -3.565  0.00  0.00    +0.028 A 
ATOM      7  C   UNL     1      -1.831  -5.790  -2.545  0.00  0.00    +0.066 A 
ATOM      8  N   UNL     1      -1.846  -5.893  -1.158  0.00  0.00    -0.326 N 
ATOM      9  C   UNL     1      -1.611  -4.659  -0.637  0.00  0.00    +0.201 A 
ATOM     10  N   UNL     1      -1.547  -4.369   0.657  0.00  0.00    -0.142 NA
ATOM     11  H   UNL     1      -1.994  -6.706  -0.650  0.00  0.00    +0.169 HD
ENDROOT
BRANCH  10  12
ATOM     12  C   UNL     1      -1.597  -5.350   1.565  0.00  0.00    +0.271 C 
ATOM     13  O   UNL     1      -1.608  -6.514   1.205  0.00  0.00    -0.268 OA
BRANCH  12  14
ATOM     14  C   UNL     1      -1.641  -5.022   3.009  0.00  0.00    +0.052 A 
ATOM     15  C   UNL     1      -1.635  -3.690   3.425  0.00  0.00    +0.014 A 
ATOM     16  C   UNL     1      -1.675  -3.390   4.771  0.00  0.00    +0.001 A 
ATOM     17  C   UNL     1      -1.721  -4.407   5.708  0.00  0.00    +0.001 A 
ATOM     18  C   UNL     1      -1.727  -5.730   5.303  0.00  0.00    +0.015 A 
ATOM     19  C   UNL     1      -1.693  -6.043   3.958  0.00  0.00    +0.026 A 
ATOM     20  I   UNL     1      -1.712  -8.046   3.346  0.00  0.00    -0.043 I 
ENDBRANCH  12  14
ENDBRANCH  10  12
BRANCH   1  21
ATOM     21  C   UNL     1      -1.189  -2.334  -1.504  0.00  0.00    +0.106 C 
BRANCH  21  22
ATOM     22  C   UNL     1       0.322  -2.098  -1.463  0.00  0.00    -0.057 C 
BRANCH  22  23
ATOM     23  N   UNL     1       0.589  -0.661  -1.314  0.00  0.00    +0.380 N 
ATOM     24  H   UNL     1       0.122  -0.154  -2.051  0.00  0.00    -0.082 HD
BRANCH  23  26
ATOM     25  C   UNL     1       0.237   1.317   0.087  0.00  0.00    -0.017 C 
ATOM     26  C   UNL     1       0.088  -0.202  -0.011  0.00  0.00    -0.082 C 
ENDBRANCH  23  26
BRANCH  23  27
ATOM     27  C   UNL     1       2.036  -0.420  -1.395  0.00  0.00    -0.082 C 
ATOM     28  C   UNL     1       2.532  -0.763  -2.800  0.00  0.00    -0.017 C 
ENDBRANCH  23  27
ENDBRANCH  22  23
ENDBRANCH  21  22
ENDBRANCH   1  21
TORSDOF 7
