REMARK  Name = ZINC50358303
REMARK  3 active torsions:
REMARK  status: ('A' for Active; 'I' for Inactive)
REMARK    1  A    between atoms: C_6  and  N_7
REMARK    2  A    between atoms: N_7  and  C_8
REMARK    3  A    between atoms: C_8  and  C_9
REMARK                            x       y       z     vdW  Elec       q    Type
REMARK                         _______ _______ _______ _____ _____    ______ ____
ROOT
ATOM      1  C   UNL     1      -0.017   1.384   0.010  0.00  0.00    +0.027 A 
ATOM      2  C   UNL     1       1.170   2.095   0.002  0.00  0.00    +0.051 A 
ATOM      3  C   UNL     1       2.377   1.418  -0.013  0.00  0.00    +0.162 A 
ATOM      4  C   UNL     1       2.400   0.030  -0.020  0.00  0.00    +0.164 A 
ATOM      5  C   UNL     1       1.214  -0.684  -0.013  0.00  0.00    +0.072 A 
ATOM      6  C   UNL     1       0.002  -0.004   0.002  0.00  0.00    +0.031 A 
ATOM      7  O   UNL     1       3.597  -0.625  -0.034  0.00  0.00    -0.488 OA
ATOM      8  C   UNL     1       4.363  -0.502  -1.233  0.00  0.00    +0.232 C 
ATOM      9  C   UNL     1       5.190   0.775  -1.217  0.00  0.00    +0.082 C 
ATOM     10  C   UNL     1       4.324   2.025  -1.220  0.00  0.00    +0.232 C 
ATOM     11  O   UNL     1       3.554   2.111  -0.019  0.00  0.00    -0.488 OA
ENDROOT
BRANCH   6  12
ATOM     12  N   UNL     1      -1.200  -0.720   0.010  0.00  0.00    -0.337 N 
ATOM     13  H   UNL     1      -1.188  -1.689   0.005  0.00  0.00    +0.147 HD
BRANCH  12  14
ATOM     14  C   UNL     1      -2.478  -0.004   0.026  0.00  0.00    +0.176 C 
BRANCH  14  15
ATOM     15  C   UNL     1      -3.611  -0.998   0.032  0.00  0.00    +0.124 A 
ATOM     16  C   UNL     1      -4.195  -1.518   1.127  0.00  0.00    +0.062 A 
ATOM     17  C   UNL     1      -5.204  -2.400   0.673  0.00  0.00    +0.070 A 
ATOM     18  C   UNL     1      -5.176  -2.365  -0.673  0.00  0.00    +0.184 A 
ATOM     19  O   UNL     1      -4.212  -1.510  -1.055  0.00  0.00    -0.450 OA
ATOM     20 BR   UNL     1      -6.305  -3.347  -1.829  0.00  0.00    -0.007 Br
ATOM     21 BR   UNL     1      -6.368  -3.430   1.750  0.00  0.00    -0.046 Br
ENDBRANCH  14  15
ENDBRANCH  12  14
ENDBRANCH   6  12
TORSDOF 3
