REMARK  Name = ZINC06175587
REMARK  9 active torsions:
REMARK  status: ('A' for Active; 'I' for Inactive)
REMARK    1  A    between atoms: C_1  and  C_2
REMARK    2  A    between atoms: C_8  and  C_9
REMARK    3  A    between atoms: C_8  and  N_56
REMARK    4  A    between atoms: C_15  and  O_31
REMARK    5  A    between atoms: C_16  and  O_20
REMARK    6  A    between atoms: O_20  and  C_21
REMARK    7  A    between atoms: C_24  and  C_27
REMARK    8  A    between atoms: C_27  and  O_29
REMARK    9  A    between atoms: O_29  and  C_30
REMARK                            x       y       z     vdW  Elec       q    Type
REMARK                         _______ _______ _______ _____ _____    ______ ____
ROOT
ATOM      1  C   UNL     1      -4.254   7.046   1.313  0.00  0.00    +0.026 A 
ATOM      2  C   UNL     1      -3.740   7.507   2.527  0.00  0.00    +0.184 A 
ATOM      3  O   UNL     1      -2.567   8.140   2.553  0.00  0.00    -0.288 OA
ATOM      4  C   UNL     1      -4.455   7.308   3.724  0.00  0.00    +0.052 A 
ATOM      5  C   UNL     1      -5.650   6.664   3.711  0.00  0.00    +0.019 A 
ATOM      6  C   UNL     1      -6.180   6.194   2.496  0.00  0.00    +0.063 A 
ATOM      7  C   UNL     1      -7.421   5.523   2.456  0.00  0.00    +0.173 A 
ATOM      8  C   UNL     1      -7.895   5.078   1.208  0.00  0.00    +0.205 A 
ATOM      9  C   UNL     1      -7.162   5.300   0.088  0.00  0.00    +0.245 A 
ATOM     10  O   UNL     1      -5.986   5.936   0.128  0.00  0.00    -0.459 OA
ATOM     11  C   UNL     1      -5.473   6.394   1.288  0.00  0.00    +0.143 A 
ENDROOT
BRANCH   7  12
ATOM     12  O   UNL     1      -8.134   5.313   3.584  0.00  0.00    -0.503 OA
ATOM     13  H   UNL     1      -8.755   6.024   3.795  0.00  0.00    +0.292 HD
ENDBRANCH   7  12
BRANCH   1  14
ATOM     14  C   UNL     1      -3.486   7.263   0.035  0.00  0.00    -0.035 C 
BRANCH  14  21
ATOM     15  C   UNL     1      -3.189   6.232  -2.567  0.00  0.00    -0.013 C 
ATOM     16  C   UNL     1      -2.041   6.152  -1.559  0.00  0.00    -0.071 C 
ATOM     17  C   UNL     1      -1.229   4.880  -1.811  0.00  0.00    -0.016 C 
ATOM     18  C   UNL     1      -0.094   4.794  -0.787  0.00  0.00    -0.003 C 
ATOM     19  C   UNL     1      -0.685   4.815   0.625  0.00  0.00    -0.019 C 
ATOM     20  C   UNL     1      -1.514   6.089   0.806  0.00  0.00    -0.078 C 
ATOM     21  N   UNL     1      -2.605   6.099  -0.193  0.00  0.00    +0.384 N 
ATOM     22  H   UNL     1      -3.156   5.239  -0.093  0.00  0.00    -0.081 HD
ENDBRANCH  14  21
ENDBRANCH   1  14
BRANCH   8  23
ATOM     23  O   UNL     1      -9.087   4.427   1.125  0.00  0.00    -0.449 OA
BRANCH  23  24
ATOM     24  C   UNL     1      -9.485   3.980  -0.092  0.00  0.00    +0.129 A 
ATOM     25  C   UNL     1     -10.285   4.782  -0.899  0.00  0.00    +0.047 A 
ATOM     26  C   UNL     1     -10.686   4.334  -2.137  0.00  0.00    +0.018 A 
ATOM     27  C   UNL     1     -10.297   3.066  -2.579  0.00  0.00    +0.059 A 
ATOM     28  C   UNL     1      -9.498   2.260  -1.763  0.00  0.00    +0.018 A 
ATOM     29  C   UNL     1      -9.096   2.718  -0.528  0.00  0.00    +0.047 A 
BRANCH  27  30
ATOM     30  C   UNL     1     -10.729   2.579  -3.902  0.00  0.00    +0.339 C 
ATOM     31  O   UNL     1     -10.390   1.477  -4.285  0.00  0.00    -0.245 OA
BRANCH  30  32
ATOM     32  O   UNL     1     -11.500   3.358  -4.687  0.00  0.00    -0.464 OA
ATOM     33  C   UNL     1     -11.887   2.814  -5.977  0.00  0.00    +0.280 C 
ENDBRANCH  30  32
ENDBRANCH  27  30
ENDBRANCH  23  24
ENDBRANCH   8  23
TORSDOF 7
