REMARK  Name = ZINC40114428
REMARK  7 active torsions:
REMARK  status: ('A' for Active; 'I' for Inactive)
REMARK    1  A    between atoms: C_1  and  C_2
REMARK    2  A    between atoms: C_2  and  C_3
REMARK    3  A    between atoms: C_2  and  C_4
REMARK    4  A    between atoms: C_4  and  C_6
REMARK    5  A    between atoms: C_4  and  N_12
REMARK    6  A    between atoms: N_10  and  C_11
REMARK    7  A    between atoms: C_13  and  C_15
REMARK                            x       y       z     vdW  Elec       q    Type
REMARK                         _______ _______ _______ _____ _____    ______ ____
ROOT
ATOM      1  N   UNL     1      -2.142  -0.048  -1.174  0.00  0.00    -0.301 N 
ATOM      2  C   UNL     1      -2.727   1.166  -1.160  0.00  0.00    +0.251 C 
ATOM      3  O   UNL     1      -2.667   1.859  -0.162  0.00  0.00    -0.270 OA
ATOM      4  H   UNL     1      -2.190  -0.601  -1.970  0.00  0.00    +0.150 HD
ENDROOT
BRANCH   2   5
ATOM      5  C   UNL     1      -3.436   1.651  -2.348  0.00  0.00    +0.074 A 
ATOM      6  C   UNL     1      -4.090   2.848  -2.544  0.00  0.00    +0.024 A 
ATOM      7  C   UNL     1      -4.709   3.038  -3.783  0.00  0.00    -0.036 A 
ATOM      8  C   UNL     1      -4.646   2.017  -4.659  0.00  0.00    -0.006 A 
ATOM      9  S   UNL     1      -3.674   0.854  -3.921  0.00  0.00    -0.088 S 
ATOM     10  C   UNL     1      -5.306   1.778  -5.994  0.00  0.00    +0.043 C 
ATOM     11  C   UNL     1      -6.231   2.926  -6.398  0.00  0.00    +0.005 C 
ATOM     12  C   UNL     1      -5.436   4.091  -6.965  0.00  0.00    +0.000 C 
ATOM     13  C   UNL     1      -4.122   4.315  -6.243  0.00  0.00    +0.000 C 
ATOM     14  C   UNL     1      -4.433   5.171  -5.011  0.00  0.00    +0.005 C 
ATOM     15  C   UNL     1      -5.354   4.384  -4.080  0.00  0.00    +0.036 C 
ENDBRANCH   2   5
BRANCH   1  16
ATOM     16  C   UNL     1      -1.433  -0.534   0.013  0.00  0.00    +0.142 C 
BRANCH  16  17
ATOM     17  C   UNL     1      -1.413  -2.041   0.005  0.00  0.00    +0.130 A 
ATOM     18  N   UNL     1      -1.132  -2.792  -1.025  0.00  0.00    -0.239 NA
ATOM     19  C   UNL     1      -1.211  -4.082  -0.666  0.00  0.00    +0.130 A 
ATOM     20  C   UNL     1      -1.553  -4.132   0.636  0.00  0.00    +0.106 A 
ATOM     21  N   UNL     1      -1.676  -2.837   1.063  0.00  0.00    -0.336 N 
ATOM     22  C   UNL     1      -2.030  -2.398   2.415  0.00  0.00    +0.150 C 
ENDBRANCH  16  17
BRANCH  16  24
ATOM     23  C   UNL     1      -0.019   1.526   0.010  0.00  0.00    +0.009 C 
ATOM     24  C   UNL     1       0.002  -0.004   0.002  0.00  0.00    +0.011 C 
ATOM     25  C   UNL     1       0.742  -0.511   1.242  0.00  0.00    +0.009 C 
ENDBRANCH  16  24
ENDBRANCH   1  16
TORSDOF 4
