REMARK  Name = ZINC11933669
REMARK  13 active torsions:
REMARK  status: ('A' for Active; 'I' for Inactive)
REMARK    1  A    between atoms: C_1  and  C_2
REMARK    2  A    between atoms: C_3  and  C_27
REMARK    3  A    between atoms: C_5  and  C_7
REMARK    4  A    between atoms: C_7  and  C_8
REMARK    5  A    between atoms: C_8  and  N_59
REMARK    6  A    between atoms: C_9  and  C_10
REMARK    7  A    between atoms: C_9  and  N_59
REMARK    8  A    between atoms: C_15  and  O_16
REMARK    9  A    between atoms: O_16  and  C_17
REMARK   10  A    between atoms: C_17  and  C_18
REMARK   11  A    between atoms: C_18  and  C_20
REMARK   12  A    between atoms: C_18  and  O_26
REMARK   13  A    between atoms: C_20  and  N_62
REMARK                            x       y       z     vdW  Elec       q    Type
REMARK                         _______ _______ _______ _____ _____    ______ ____
ROOT
ATOM      1  C   UNL     1      -0.196  -0.122  -4.784  0.00  0.00    -0.023 A 
ATOM      2  C   UNL     1       0.311  -0.500  -6.012  0.00  0.00    +0.005 A 
ATOM      3  C   UNL     1       1.486  -1.224  -6.083  0.00  0.00    +0.000 A 
ATOM      4  C   UNL     1       2.158  -1.571  -4.925  0.00  0.00    +0.004 A 
ATOM      5  C   UNL     1       1.658  -1.190  -3.695  0.00  0.00    +0.046 A 
ATOM      6  C   UNL     1       0.475  -0.469  -3.621  0.00  0.00    +0.122 A 
ENDROOT
BRANCH   1   7
ATOM      7  C   UNL     1      -1.478   0.667  -4.708  0.00  0.00    -0.043 C 
BRANCH   7   8
ATOM      8  N   UNL     1      -1.157   2.093  -4.507  0.00  0.00    +0.382 N 
ATOM      9  H   UNL     1      -0.628   2.201  -3.633  0.00  0.00    -0.085 HD
ATOM     10  H   UNL     1      -0.588   2.426  -5.295  0.00  0.00    -0.085 HD
BRANCH   8  11
ATOM     11  C   UNL     1      -2.395   2.891  -4.429  0.00  0.00    -0.075 C 
BRANCH  11  12
ATOM     12  C   UNL     1      -2.030   4.362  -4.221  0.00  0.00    +0.044 C 
BRANCH  12  17
ATOM     13  C   UNL     1      -5.900   6.584  -1.960  0.00  0.00    +0.066 C 
ATOM     14  C   UNL     1      -5.092   6.234  -3.182  0.00  0.00    +0.049 A 
ATOM     15  C   UNL     1      -5.467   6.668  -4.412  0.00  0.00    +0.009 A 
ATOM     16  S   UNL     1      -4.170   5.962  -5.419  0.00  0.00    -0.077 S 
ATOM     17  C   UNL     1      -3.291   5.185  -4.139  0.00  0.00    +0.077 A 
ATOM     18  N   UNL     1      -4.008   5.493  -3.083  0.00  0.00    -0.249 NA
ATOM     19  C   UNL     1      -6.648   7.512  -4.816  0.00  0.00    +0.053 C 
ENDBRANCH  12  17
ENDBRANCH  11  12
ENDBRANCH   8  11
ENDBRANCH   7   8
ENDBRANCH   1   7
BRANCH   6  20
ATOM     20  O   UNL     1      -0.021  -0.098  -2.412  0.00  0.00    -0.489 OA
BRANCH  20  21
ATOM     21  C   UNL     1       0.723  -0.490  -1.257  0.00  0.00    +0.258 C 
BRANCH  21  22
ATOM     22  C   UNL     1       0.014   0.013   0.002  0.00  0.00    +0.135 C 
BRANCH  22  23
ATOM     23  O   UNL     1       0.022   1.442   0.014  0.00  0.00    -0.390 OA
ATOM     24  H   UNL     1       0.908   1.831   0.011  0.00  0.00    +0.210 HD
ENDBRANCH  22  23
BRANCH  22  25
ATOM     25  C   UNL     1       0.742  -0.511   1.242  0.00  0.00    -0.044 C 
BRANCH  25  31
ATOM     26  C   UNL     1       0.942  -0.098   3.619  0.00  0.00    -0.079 C 
ATOM     27  C   UNL     1       0.244   0.536   4.824  0.00  0.00    -0.019 C 
ATOM     28  C   UNL     1      -1.058  -0.218   5.109  0.00  0.00    -0.004 C 
ATOM     29  C   UNL     1      -1.943  -0.181   3.861  0.00  0.00    -0.019 C 
ATOM     30  C   UNL     1      -1.182  -0.794   2.683  0.00  0.00    -0.079 C 
ATOM     31  N   UNL     1       0.047  -0.009   2.445  0.00  0.00    +0.381 N 
ATOM     32  H   UNL     1      -0.209   0.975   2.296  0.00  0.00    -0.082 HD
ENDBRANCH  25  31
ENDBRANCH  22  25
ENDBRANCH  21  22
ENDBRANCH  20  21
ENDBRANCH   6  20
TORSDOF 11
