REMARK  Name = ZINC10104086
REMARK  9 active torsions:
REMARK  status: ('A' for Active; 'I' for Inactive)
REMARK    1  A    between atoms: C_1  and  C_2
REMARK    2  A    between atoms: C_5  and  C_33
REMARK    3  A    between atoms: C_6  and  C_8
REMARK    4  A    between atoms: C_8  and  N_9
REMARK    5  A    between atoms: C_17  and  C_28
REMARK    6  A    between atoms: C_18  and  C_27
REMARK    7  A    between atoms: N_19  and  C_20
REMARK    8  A    between atoms: C_25  and  N_26
REMARK    9  A    between atoms: N_29  and  C_32
REMARK                            x       y       z     vdW  Elec       q    Type
REMARK                         _______ _______ _______ _____ _____    ______ ____
ROOT
ATOM      1  N   UNL     1      -4.501   3.890   2.762  0.00  0.00    -0.255 N 
ATOM      2  C   UNL     1      -4.351   4.648   3.868  0.00  0.00    +0.283 A 
ATOM      3  O   UNL     1      -3.975   4.145   4.912  0.00  0.00    -0.265 OA
ATOM      4  C   UNL     1      -4.629   6.024   3.803  0.00  0.00    +0.157 A 
ATOM      5  C   UNL     1      -5.064   6.573   2.597  0.00  0.00    +0.170 A 
ATOM      6  N   UNL     1      -5.260   7.874   2.796  0.00  0.00    -0.193 NA
ATOM      7  C   UNL     1      -4.978   8.187   4.052  0.00  0.00    +0.223 A 
ATOM      8  N   UNL     1      -4.582   7.068   4.713  0.00  0.00    -0.274 N 
ATOM      9  C   UNL     1      -4.293   7.420   6.020  0.00  0.00    +0.044 A 
ATOM     10  C   UNL     1      -4.506   8.725   6.160  0.00  0.00    +0.043 A 
ATOM     11  N   UNL     1      -4.935   9.227   4.945  0.00  0.00    -0.281 N 
ATOM     12  C   UNL     1      -4.315   9.520   7.426  0.00  0.00    +0.066 C 
ATOM     13  C   UNL     1      -3.818   6.484   7.101  0.00  0.00    +0.066 C 
ATOM     14  N   UNL     1      -5.204   5.741   1.497  0.00  0.00    -0.279 N 
ATOM     15  C   UNL     1      -4.921   4.429   1.604  0.00  0.00    +0.334 A 
ATOM     16  O   UNL     1      -5.049   3.713   0.630  0.00  0.00    -0.246 OA
ATOM     17  C   UNL     1      -5.659   6.289   0.217  0.00  0.00    +0.155 C 
ENDROOT
BRANCH  11  18
ATOM     18  C   UNL     1      -5.266  10.563   4.674  0.00  0.00    +0.070 A 
ATOM     19  C   UNL     1      -6.569  11.006   4.851  0.00  0.00    +0.028 A 
ATOM     20  C   UNL     1      -6.893  12.322   4.584  0.00  0.00    +0.002 A 
ATOM     21  C   UNL     1      -5.922  13.202   4.140  0.00  0.00    +0.002 A 
ATOM     22  C   UNL     1      -4.622  12.769   3.960  0.00  0.00    +0.025 A 
ATOM     23  C   UNL     1      -4.286  11.451   4.231  0.00  0.00    +0.049 A 
BRANCH  23  24
ATOM     24  N   UNL     1      -2.970  11.012   4.057  0.00  0.00    -0.356 N 
ATOM     25  H   UNL     1      -2.737  10.089   4.244  0.00  0.00    +0.142 HD
ATOM     26  H   UNL     1      -2.289  11.631   3.749  0.00  0.00    +0.142 HD
ENDBRANCH  23  24
ENDBRANCH  11  18
BRANCH   1  27
ATOM     27  C   UNL     1      -4.207   2.457   2.826  0.00  0.00    +0.165 C 
BRANCH  27  33
ATOM     28  C   UNL     1       0.264   4.234   1.452  0.00  0.00    +0.044 C 
ATOM     29  C   UNL     1      -0.607   3.080   1.875  0.00  0.00    -0.050 A 
ATOM     30  C   UNL     1      -0.067   1.813   1.995  0.00  0.00    +0.003 A 
ATOM     31  C   UNL     1      -0.867   0.755   2.383  0.00  0.00    +0.004 A 
ATOM     32  C   UNL     1      -2.207   0.963   2.652  0.00  0.00    -0.046 A 
ATOM     33  C   UNL     1      -2.747   2.230   2.533  0.00  0.00    -0.024 A 
ATOM     34  C   UNL     1      -1.946   3.289   2.149  0.00  0.00    +0.009 A 
ATOM     35  C   UNL     1      -3.078  -0.191   3.075  0.00  0.00    +0.044 C 
ENDBRANCH  27  33
ENDBRANCH   1  27
TORSDOF 4
