REMARK  Name = ZINC12976489
REMARK  8 active torsions:
REMARK  status: ('A' for Active; 'I' for Inactive)
REMARK    1  A    between atoms: C_1  and  C_2
REMARK    2  A    between atoms: C_7  and  N_8
REMARK    3  A    between atoms: C_9  and  C_11
REMARK    4  A    between atoms: C_11  and  N_12
REMARK    5  A    between atoms: C_13  and  C_14
REMARK    6  A    between atoms: C_15  and  C_27
REMARK    7  A    between atoms: N_17  and  C_20
REMARK    8  A    between atoms: C_18  and  C_19
REMARK                            x       y       z     vdW  Elec       q    Type
REMARK                         _______ _______ _______ _____ _____    ______ ____
ROOT
ATOM      1  N   UNL     1      -0.014  -1.321   5.682  0.00  0.00    -0.381 N 
ATOM      2  C   UNL     1       0.925  -1.326   6.573  0.00  0.00    +0.090 C 
ATOM      3  H   UNL     1      -0.796  -1.883   5.798  0.00  0.00    +0.160 HD
ENDROOT
BRANCH   2   4
ATOM      4  C   UNL     1       0.789  -2.156   7.783  0.00  0.00    +0.034 A 
ATOM      5  C   UNL     1      -0.337  -2.929   8.146  0.00  0.00    +0.069 A 
ATOM      6  N   UNL     1      -0.073  -3.519   9.280  0.00  0.00    -0.175 NA
ATOM      7  N   UNL     1       1.215  -3.157   9.690  0.00  0.00    -0.263 N 
ATOM      8  C   UNL     1       1.738  -2.329   8.769  0.00  0.00    +0.045 A 
ATOM      9  C   UNL     1       3.108  -1.702   8.808  0.00  0.00    +0.066 C 
ATOM     10  C   UNL     1      -1.618  -3.051   7.362  0.00  0.00    +0.068 C 
BRANCH   7  11
ATOM     11  C   UNL     1       1.883  -3.608  10.914  0.00  0.00    +0.130 C 
ATOM     12  C   UNL     1       1.062  -3.165  12.136  0.00  0.00    +0.051 C 
ATOM     13  C   UNL     1       1.610  -3.913  13.385  0.00  0.00    +0.168 C 
ATOM     14  S   UNL     1       1.895  -5.589  12.675  0.00  0.00    -0.029 S 
ATOM     15  O   UNL     1       3.159  -6.068  13.113  0.00  0.00    -0.174 OA
ATOM     16  O   UNL     1       0.735  -6.383  12.885  0.00  0.00    -0.174 OA
ATOM     17  C   UNL     1       2.006  -5.151  10.893  0.00  0.00    +0.192 C 
ENDBRANCH   7  11
ENDBRANCH   2   4
BRANCH   1  18
ATOM     18  C   UNL     1       0.105  -0.466   4.498  0.00  0.00    +0.208 C 
BRANCH  18  20
ATOM     19  N   UNL     1       0.324  -0.753   2.051  0.00  0.00    -0.284 N 
ATOM     20  C   UNL     1       0.207  -1.326   3.265  0.00  0.00    +0.236 C 
ATOM     21  O   UNL     1       0.183  -2.535   3.365  0.00  0.00    -0.274 OA
ATOM     22  H   UNL     1       0.421   0.209   1.976  0.00  0.00    +0.155 HD
BRANCH  19  29
ATOM     23  C   UNL     1      -0.862   0.322  -0.301  0.00  0.00    +0.046 C 
ATOM     24  C   UNL     1      -0.262  -1.060  -0.272  0.00  0.00    -0.028 A 
ATOM     25  C   UNL     1      -0.272  -1.843  -1.410  0.00  0.00    +0.020 A 
ATOM     26  C   UNL     1       0.278  -3.112  -1.384  0.00  0.00    +0.018 A 
ATOM     27  C   UNL     1       0.840  -3.601  -0.217  0.00  0.00    +0.017 A 
ATOM     28  C   UNL     1       0.854  -2.823   0.923  0.00  0.00    +0.024 A 
ATOM     29  C   UNL     1       0.307  -1.546   0.898  0.00  0.00    +0.036 A 
ATOM     30 BR   UNL     1       0.262  -4.181  -2.944  0.00  0.00    -0.050 Br
ENDBRANCH  19  29
ENDBRANCH  18  20
ENDBRANCH   1  18
TORSDOF 5
