REMARK  Name = ZINC07802739
REMARK  3 active torsions:
REMARK  status: ('A' for Active; 'I' for Inactive)
REMARK    1  A    between atoms: C_3  and  N_26
REMARK    2  A    between atoms: C_6  and  N_7
REMARK    3  A    between atoms: C_13  and  C_15
REMARK                            x       y       z     vdW  Elec       q    Type
REMARK                         _______ _______ _______ _____ _____    ______ ____
ROOT
ATOM      1  N   UNL     1       1.405   3.191  -0.756  0.00  0.00    -0.327 N 
ATOM      2  C   UNL     1       0.467   3.923  -1.617  0.00  0.00    +0.124 C 
ATOM      3  C   UNL     1       0.340   5.366  -1.118  0.00  0.00    +0.127 C 
ATOM      4  N   UNL     1       1.687   5.950  -1.030  0.00  0.00    -0.294 N 
ATOM      5  C   UNL     1       2.722   5.205  -0.297  0.00  0.00    +0.127 C 
ATOM      6  C   UNL     1       2.755   3.768  -0.829  0.00  0.00    +0.124 C 
ATOM      7  C   UNL     1       1.965   7.137  -1.604  0.00  0.00    +0.253 C 
ATOM      8  O   UNL     1       1.139   7.678  -2.316  0.00  0.00    -0.269 OA
ENDROOT
BRANCH   7   9
ATOM      9  C   UNL     1       3.264   7.777  -1.372  0.00  0.00    +0.075 A 
ATOM     10  C   UNL     1       3.810   8.885  -1.982  0.00  0.00    +0.024 A 
ATOM     11  C   UNL     1       5.075   9.311  -1.571  0.00  0.00    -0.036 A 
ATOM     12  C   UNL     1       5.700   8.566  -0.637  0.00  0.00    -0.006 A 
ATOM     13  S   UNL     1       4.550   7.332  -0.222  0.00  0.00    -0.088 S 
ATOM     14  C   UNL     1       7.086   8.613  -0.049  0.00  0.00    +0.043 C 
ATOM     15  C   UNL     1       7.937   9.728  -0.658  0.00  0.00    +0.005 C 
ATOM     16  C   UNL     1       7.594  11.071  -0.034  0.00  0.00    +0.000 C 
ATOM     17  C   UNL     1       6.112  11.225   0.248  0.00  0.00    +0.000 C 
ATOM     18  C   UNL     1       5.456  11.706  -1.049  0.00  0.00    +0.005 C 
ATOM     19  C   UNL     1       5.618  10.624  -2.117  0.00  0.00    +0.036 C 
ENDBRANCH   7   9
BRANCH   1  25
ATOM     20  C   UNL     1       0.244   1.098  -1.069  0.00  0.00    +0.025 A 
ATOM     21  C   UNL     1       0.266  -0.245  -1.387  0.00  0.00    +0.034 A 
ATOM     22  C   UNL     1       1.461  -0.860  -1.716  0.00  0.00    +0.126 A 
ATOM     23  C   UNL     1       2.637  -0.133  -1.726  0.00  0.00    +0.034 A 
ATOM     24  C   UNL     1       2.622   1.211  -1.407  0.00  0.00    +0.025 A 
ATOM     25  C   UNL     1       1.424   1.832  -1.078  0.00  0.00    +0.030 A 
BRANCH  22  26
ATOM     26  N   UNL     1       1.480  -2.300  -2.058  0.00  0.00    +0.056 N 
ATOM     27  O   UNL     1       0.445  -2.942  -2.049  0.00  0.00    -0.126 OA
ATOM     28  O   UNL     1       2.531  -2.843  -2.347  0.00  0.00    -0.126 OA
ENDBRANCH  22  26
ENDBRANCH   1  25
TORSDOF 3
