REMARK  Name = ZINC21602468
REMARK  10 active torsions:
REMARK  status: ('A' for Active; 'I' for Inactive)
REMARK    1  A    between atoms: C_1  and  C_2
REMARK    2  A    between atoms: C_2  and  N_3
REMARK    3  A    between atoms: N_3  and  C_4
REMARK    4  A    between atoms: C_12  and  C_14
REMARK    5  A    between atoms: C_14  and  C_16
REMARK    6  A    between atoms: C_14  and  O_17
REMARK    7  A    between atoms: O_17  and  C_18
REMARK    8  A    between atoms: C_18  and  C_20
REMARK    9  A    between atoms: C_24  and  N_25
REMARK   10  A    between atoms: C_26  and  C_28
REMARK                            x       y       z     vdW  Elec       q    Type
REMARK                         _______ _______ _______ _____ _____    ______ ____
ROOT
ATOM      1  C   UNL     1      -2.844   5.353   3.275  0.00  0.00    +0.343 C 
ATOM      2  O   UNL     1      -2.973   4.775   4.337  0.00  0.00    -0.245 OA
ENDROOT
BRANCH   1   3
ATOM      3  C   UNL     1      -3.160   6.779   3.174  0.00  0.00    +0.091 A 
ATOM      4  C   UNL     1      -2.150   7.795   3.417  0.00  0.00    -0.021 A 
ATOM      5  C   UNL     1      -2.574   9.071   3.290  0.00  0.00    -0.004 A 
ATOM      6  S   UNL     1      -4.285   8.938   2.855  0.00  0.00    -0.077 S 
ATOM      7  C   UNL     1      -4.436   7.212   2.836  0.00  0.00    +0.086 A 
ATOM      8  C   UNL     1      -1.764  10.316   3.481  0.00  0.00    +0.043 C 
ATOM      9  C   UNL     1      -0.465   9.940   4.210  0.00  0.00    +0.005 C 
ATOM     10  C   UNL     1       0.152   8.719   3.521  0.00  0.00    +0.005 C 
ATOM     11  C   UNL     1      -0.706   7.482   3.789  0.00  0.00    +0.037 C 
BRANCH   7  12
ATOM     12  N   UNL     1      -5.558   6.448   2.554  0.00  0.00    -0.280 N 
ATOM     13  C   UNL     1      -6.723   7.051   2.243  0.00  0.00    +0.214 C 
ATOM     14  O   UNL     1      -6.789   8.262   2.209  0.00  0.00    -0.276 OA
ATOM     15  C   UNL     1      -7.942   6.221   1.936  0.00  0.00    +0.109 C 
ATOM     16  H   UNL     1      -5.498   5.350   2.584  0.00  0.00    +0.155 HD
ENDBRANCH   7  12
ENDBRANCH   1   3
BRANCH   1  17
ATOM     17  O   UNL     1      -2.409   4.680   2.190  0.00  0.00    -0.449 OA
BRANCH  17  18
ATOM     18  C   UNL     1      -2.114   3.269   2.364  0.00  0.00    +0.259 C 
ATOM     19  C   UNL     1      -3.373   2.446   2.082  0.00  0.00    +0.062 C 
BRANCH  18  21
ATOM     20  N   UNL     1      -0.505   1.619   1.465  0.00  0.00    -0.294 N 
ATOM     21  C   UNL     1      -1.024   2.862   1.407  0.00  0.00    +0.256 C 
ATOM     22  O   UNL     1      -0.612   3.652   0.584  0.00  0.00    -0.272 OA
BRANCH  20  23
ATOM     23  C   UNL     1       0.474   1.186   0.465  0.00  0.00    +0.099 C 
ATOM     24  C   UNL     1      -0.156   1.273  -0.935  0.00  0.00    +0.046 C 
ATOM     25  C   UNL     1       0.979   1.117  -1.987  0.00  0.00    +0.168 C 
ATOM     26  S   UNL     1       2.306   2.128  -1.204  0.00  0.00    -0.029 S 
ATOM     27  O   UNL     1       2.225   3.458  -1.697  0.00  0.00    -0.174 OA
ATOM     28  O   UNL     1       3.537   1.423  -1.291  0.00  0.00    -0.174 OA
ATOM     29  C   UNL     1       1.722   2.099   0.539  0.00  0.00    +0.188 C 
ENDBRANCH  20  23
BRANCH  20  31
ATOM     30  C   UNL     1       0.102   0.741   3.665  0.00  0.00    +0.024 C 
ATOM     31  C   UNL     1      -0.921   0.701   2.528  0.00  0.00    +0.105 C 
ENDBRANCH  20  31
ENDBRANCH  18  21
ENDBRANCH  17  18
ENDBRANCH   1  17
TORSDOF 7
