REMARK  Name = ZINC66885764
REMARK  11 active torsions:
REMARK  status: ('A' for Active; 'I' for Inactive)
REMARK    1  A    between atoms: C_1  and  C_2
REMARK    2  A    between atoms: C_2  and  C_3
REMARK    3  A    between atoms: C_3  and  C_4
REMARK    4  A    between atoms: C_3  and  C_5
REMARK    5  A    between atoms: C_3  and  N_6
REMARK    6  A    between atoms: C_7  and  C_9
REMARK    7  A    between atoms: C_9  and  C_11
REMARK    8  A    between atoms: C_9  and  N_12
REMARK    9  A    between atoms: C_15  and  N_18
REMARK   10  A    between atoms: C_19  and  C_21
REMARK   11  A    between atoms: C_21  and  C_22
REMARK                            x       y       z     vdW  Elec       q    Type
REMARK                         _______ _______ _______ _____ _____    ______ ____
ROOT
ATOM      1  N   UNL     1       1.921  -4.604  -3.557  0.00  0.00    +0.387 N 
ATOM      2  C   UNL     1       3.327  -4.188  -3.635  0.00  0.00    -0.076 C 
ATOM      3  C   UNL     1       3.913  -4.610  -4.984  0.00  0.00    +0.004 C 
ATOM      4  C   UNL     1       3.821  -6.133  -5.121  0.00  0.00    +0.069 C 
ATOM      5  C   UNL     1       2.360  -6.562  -4.963  0.00  0.00    +0.004 C 
ATOM      6  C   UNL     1       1.831  -6.068  -3.615  0.00  0.00    -0.076 C 
ATOM      7  H   UNL     1       1.411  -4.206  -4.330  0.00  0.00    -0.081 HD
ENDROOT
BRANCH   4   8
ATOM      8  N   UNL     1       4.311  -6.536  -6.441  0.00  0.00    -0.313 N 
ATOM      9  C   UNL     1       4.800  -7.778  -6.628  0.00  0.00    +0.213 C 
ATOM     10  O   UNL     1       4.835  -8.562  -5.703  0.00  0.00    -0.276 OA
ATOM     11  H   UNL     1       4.283  -5.910  -7.181  0.00  0.00    +0.149 HD
BRANCH   9  12
ATOM     12  C   UNL     1       5.303  -8.194  -7.986  0.00  0.00    +0.099 C 
BRANCH  12  13
ATOM     13  C   UNL     1       5.800  -9.640  -7.926  0.00  0.00    -0.002 C 
ATOM     14  C   UNL     1       7.015  -9.723  -7.000  0.00  0.00    +0.004 C 
ATOM     15  C   UNL     1       7.512 -11.169  -6.940  0.00  0.00    +0.000 C 
ATOM     16  C   UNL     1       7.907 -11.632  -8.344  0.00  0.00    +0.000 C 
ATOM     17  C   UNL     1       6.691 -11.548  -9.270  0.00  0.00    +0.000 C 
ATOM     18  C   UNL     1       6.195 -10.102  -9.330  0.00  0.00    +0.004 C 
ENDBRANCH  12  13
ENDBRANCH   9  12
ENDBRANCH   4   8
BRANCH   1  19
ATOM     19  C   UNL     1       1.341  -4.130  -2.293  0.00  0.00    +0.016 C 
ATOM     20  C   UNL     1      -0.109  -4.605  -2.187  0.00  0.00    -0.004 C 
BRANCH  19  22
ATOM     21  N   UNL     1       1.435  -1.979  -1.075  0.00  0.00    -0.312 N 
ATOM     22  C   UNL     1       1.380  -2.623  -2.257  0.00  0.00    +0.200 C 
ATOM     23  O   UNL     1       1.361  -1.992  -3.293  0.00  0.00    -0.278 OA
ATOM     24  H   UNL     1       1.450  -2.484  -0.247  0.00  0.00    +0.149 HD
BRANCH  21  25
ATOM     25  C   UNL     1       1.473  -0.514  -1.041  0.00  0.00    +0.029 C 
ATOM     26  C   UNL     1       0.214   0.044  -1.708  0.00  0.00    +0.031 C 
ATOM     27  C   UNL     1       2.711  -0.018  -1.791  0.00  0.00    +0.031 C 
BRANCH  25  29
ATOM     28  C   UNL     1       1.572   1.489   0.449  0.00  0.00    +0.006 C 
ATOM     29  C   UNL     1       1.533  -0.040   0.413  0.00  0.00    +0.022 C 
ENDBRANCH  25  29
ENDBRANCH  21  25
ENDBRANCH  19  22
ENDBRANCH   1  19
TORSDOF 7
