REMARK  Name = ZINC48797019
REMARK  5 active torsions:
REMARK  status: ('A' for Active; 'I' for Inactive)
REMARK    1  A    between atoms: C_3  and  C_9
REMARK    2  A    between atoms: C_4  and  O_8
REMARK    3  A    between atoms: C_9  and  N_10
REMARK    4  A    between atoms: N_10  and  C_11
REMARK    5  A    between atoms: C_14  and  N_18
REMARK                            x       y       z     vdW  Elec       q    Type
REMARK                         _______ _______ _______ _____ _____    ______ ____
ROOT
ATOM      1  N   UNL     1       4.199   2.245  -1.388  0.00  0.00    -0.339 N 
ATOM      2  H   UNL     1       3.716   1.815  -2.111  0.00  0.00    +0.146 HD
ENDROOT
BRANCH   1   3
ATOM      3  C   UNL     1       5.397   2.915  -1.648  0.00  0.00    +0.042 A 
ATOM      4  C   UNL     1       6.091   3.527  -0.613  0.00  0.00    +0.026 A 
ATOM      5  C   UNL     1       7.276   4.187  -0.873  0.00  0.00    +0.034 A 
ATOM      6  C   UNL     1       7.771   4.241  -2.163  0.00  0.00    +0.127 A 
ATOM      7  C   UNL     1       7.082   3.633  -3.197  0.00  0.00    +0.049 A 
ATOM      8  C   UNL     1       5.900   2.965  -2.943  0.00  0.00    +0.041 A 
ATOM      9 BR   UNL     1       4.963   2.128  -4.356  0.00  0.00    -0.048 Br
BRANCH   6  10
ATOM     10  N   UNL     1       9.040   4.951  -2.438  0.00  0.00    +0.056 N 
ATOM     11  O   UNL     1       9.643   5.483  -1.536  0.00  0.00    -0.126 OA
ATOM     12  O   UNL     1       9.474   4.998  -3.566  0.00  0.00    -0.126 OA
ENDBRANCH   6  10
ENDBRANCH   1   3
BRANCH   1  13
ATOM     13  C   UNL     1       3.670   2.193  -0.023  0.00  0.00    +0.140 C 
BRANCH  13  16
ATOM     14  C   UNL     1      -0.017   1.378   0.010  0.00  0.00    +0.002 A 
ATOM     15  C   UNL     1       1.170   2.088   0.002  0.00  0.00    +0.009 A 
ATOM     16  C   UNL     1       2.378   1.418  -0.013  0.00  0.00    +0.012 A 
ATOM     17  C   UNL     1       2.400   0.031  -0.021  0.00  0.00    +0.135 A 
ATOM     18  C   UNL     1       1.208  -0.680  -0.013  0.00  0.00    +0.060 A 
ATOM     19  C   UNL     1       0.002  -0.004   0.002  0.00  0.00    +0.019 A 
ATOM     20 BR   UNL     1       1.233  -2.571  -0.024  0.00  0.00    -0.047 Br
BRANCH  17  21
ATOM     21  O   UNL     1       3.587  -0.631  -0.037  0.00  0.00    -0.505 OA
ATOM     22  H   UNL     1       3.940  -0.827   0.842  0.00  0.00    +0.292 HD
ENDBRANCH  17  21
ENDBRANCH  13  16
ENDBRANCH   1  13
TORSDOF 5
