REMARK  Name = ZINC30829189
REMARK  7 active torsions:
REMARK  status: ('A' for Active; 'I' for Inactive)
REMARK    1  A    between atoms: C_4  and  C_7
REMARK    2  A    between atoms: C_8  and  C_9
REMARK    3  A    between atoms: N_11  and  C_12
REMARK    4  A    between atoms: C_12  and  N_14
REMARK    5  A    between atoms: N_14  and  C_15
REMARK    6  A    between atoms: C_18  and  C_21
REMARK    7  A    between atoms: C_21  and  C_26
REMARK                            x       y       z     vdW  Elec       q    Type
REMARK                         _______ _______ _______ _____ _____    ______ ____
ROOT
ATOM      1  N   UNL     1       2.445   1.965  -5.816  0.00  0.00    -0.297 N 
ATOM      2  H   UNL     1       2.993   1.078  -6.167  0.00  0.00    +0.154 HD
ENDROOT
BRANCH   1   3
ATOM      3  C   UNL     1       1.630   1.880  -4.682  0.00  0.00    +0.033 A 
ATOM      4  C   UNL     1       0.388   2.501  -4.670  0.00  0.00    +0.023 A 
ATOM      5  C   UNL     1      -0.415   2.415  -3.550  0.00  0.00    +0.007 A 
ATOM      6  C   UNL     1       0.017   1.711  -2.441  0.00  0.00    -0.027 A 
ATOM      7  C   UNL     1       1.255   1.096  -2.447  0.00  0.00    +0.007 A 
ATOM      8  C   UNL     1       2.061   1.174  -3.566  0.00  0.00    +0.023 A 
BRANCH   6   9
ATOM      9  C   UNL     1      -0.862   1.619  -1.220  0.00  0.00    +0.082 C 
ATOM     10  C   UNL     1      -0.168   0.785  -0.114  0.00  0.00    +0.026 C 
ATOM     11  C   UNL     1      -0.857   1.284   1.180  0.00  0.00    +0.002 C 
ATOM     12  C   UNL     1      -1.050   2.798   0.943  0.00  0.00    +0.002 C 
ATOM     13  C   UNL     1      -1.050   3.011  -0.581  0.00  0.00    +0.026 C 
BRANCH   9  14
ATOM     14  C   UNL     1      -2.165   1.031  -1.567  0.00  0.00    +0.074 C 
ATOM     15  N   UNL     1      -3.171   0.577  -1.836  0.00  0.00    -0.196 NA
ENDBRANCH   9  14
ENDBRANCH   6   9
ENDBRANCH   1   3
BRANCH   1  16
ATOM     16  C   UNL     1       2.560   3.133  -6.477  0.00  0.00    +0.141 C 
ATOM     17  S   UNL     1       1.823   4.547  -5.852  0.00  0.00    -0.018 S 
BRANCH  16  20
ATOM     18  C   UNL     1       3.369   4.358  -8.292  0.00  0.00    +0.242 C 
ATOM     19  O   UNL     1       2.846   5.362  -7.848  0.00  0.00    -0.270 OA
ATOM     20  N   UNL     1       3.255   3.189  -7.631  0.00  0.00    -0.264 N 
ATOM     21  H   UNL     1       3.728   2.281  -8.032  0.00  0.00    +0.157 HD
BRANCH  18  23
ATOM     22  C   UNL     1       4.238   5.588 -10.207  0.00  0.00    +0.013 C 
ATOM     23  C   UNL     1       4.123   4.418  -9.545  0.00  0.00    +0.068 C 
BRANCH  22  27
ATOM     24  C   UNL     1       6.426   5.764 -13.837  0.00  0.00    +0.000 A 
ATOM     25  C   UNL     1       5.831   6.909 -13.335  0.00  0.00    +0.001 A 
ATOM     26  C   UNL     1       5.118   6.860 -12.156  0.00  0.00    +0.008 A 
ATOM     27  C   UNL     1       4.997   5.649 -11.467  0.00  0.00    -0.025 A 
ATOM     28  C   UNL     1       5.605   4.498 -11.977  0.00  0.00    +0.008 A 
ATOM     29  C   UNL     1       6.310   4.562 -13.161  0.00  0.00    +0.001 A 
ENDBRANCH  22  27
ENDBRANCH  18  23
ENDBRANCH  16  20
ENDBRANCH   1  16
TORSDOF 7
