REMARK  Name = ZINC59326854
REMARK  6 active torsions:
REMARK  status: ('A' for Active; 'I' for Inactive)
REMARK    1  A    between atoms: C_1  and  C_2
REMARK    2  A    between atoms: C_5  and  S_7
REMARK    3  A    between atoms: S_7  and  C_8
REMARK    4  A    between atoms: C_11  and  N_14
REMARK    5  A    between atoms: C_15  and  C_17
REMARK    6  A    between atoms: N_19  and  C_24
REMARK                            x       y       z     vdW  Elec       q    Type
REMARK                         _______ _______ _______ _____ _____    ______ ____
ROOT
ATOM      1  N   UNL     1      -0.145  -8.298  -0.427  0.00  0.00    -0.280 N 
ATOM      2  C   UNL     1      -0.342  -9.445   0.253  0.00  0.00    +0.264 C 
ATOM      3  O   UNL     1      -0.387  -9.431   1.469  0.00  0.00    -0.268 OA
ATOM      4  H   UNL     1      -0.042  -8.317  -1.391  0.00  0.00    +0.155 HD
ENDROOT
BRANCH   2   5
ATOM      5  C   UNL     1      -0.501 -10.710  -0.473  0.00  0.00    +0.122 C 
ATOM      6  N   UNL     1      -0.446 -10.715  -1.769  0.00  0.00    -0.177 NA
ATOM      7  N   UNL     1      -0.596 -11.901  -2.494  0.00  0.00    -0.188 N 
ATOM      8  C   UNL     1      -1.171 -12.979  -1.927  0.00  0.00    +0.235 C 
ATOM      9  O   UNL     1      -1.302 -14.004  -2.562  0.00  0.00    -0.274 OA
ATOM     10  C   UNL     1      -1.651 -12.908  -0.499  0.00  0.00    +0.104 C 
ATOM     11  C   UNL     1      -0.721 -11.985   0.297  0.00  0.00    +0.071 C 
BRANCH   7  12
ATOM     12  C   UNL     1      -0.125 -11.971  -3.880  0.00  0.00    +0.124 C 
ATOM     13  C   UNL     1      -0.854 -10.911  -4.721  0.00  0.00    +0.049 C 
ATOM     14  C   UNL     1      -0.123 -10.792  -6.090  0.00  0.00    +0.168 C 
ATOM     15  S   UNL     1       1.634 -10.890  -5.543  0.00  0.00    -0.029 S 
ATOM     16  O   UNL     1       2.339 -11.767  -6.411  0.00  0.00    -0.174 OA
ATOM     17  O   UNL     1       2.125  -9.575  -5.328  0.00  0.00    -0.174 OA
ATOM     18  C   UNL     1       1.401 -11.716  -3.917  0.00  0.00    +0.190 C 
ENDBRANCH   7  12
ENDBRANCH   2   5
BRANCH   1  22
ATOM     19  C   UNL     1       0.021  -4.667   1.615  0.00  0.00    +0.015 A 
ATOM     20  C   UNL     1       0.535  -5.817   2.201  0.00  0.00    +0.017 A 
ATOM     21  C   UNL     1       0.479  -7.019   1.525  0.00  0.00    +0.024 A 
ATOM     22  C   UNL     1      -0.089  -7.079   0.259  0.00  0.00    +0.034 A 
ATOM     23  C   UNL     1      -0.602  -5.928  -0.327  0.00  0.00    +0.024 A 
ATOM     24  C   UNL     1      -0.553  -4.727   0.351  0.00  0.00    +0.017 A 
BRANCH  19  25
ATOM     25  S   UNL     1       0.092  -3.132   2.478  0.00  0.00    -0.063 S 
BRANCH  25  30
ATOM     26  C   UNL     1       3.683   0.645   1.873  0.00  0.00    +0.066 C 
ATOM     27  C   UNL     1       3.145  -0.733   1.584  0.00  0.00    +0.047 A 
ATOM     28  C   UNL     1       3.795  -1.586   0.756  0.00  0.00    +0.070 A 
ATOM     29  S   UNL     1       2.707  -3.000   0.814  0.00  0.00    -0.069 S 
ATOM     30  C   UNL     1       1.558  -2.367   1.868  0.00  0.00    +0.139 A 
ATOM     31  N   UNL     1       2.023  -1.164   2.131  0.00  0.00    -0.238 NA
ENDBRANCH  25  30
ENDBRANCH  19  25
ENDBRANCH   1  22
TORSDOF 5
