REMARK  Name = ZINC39362302
REMARK  11 active torsions:
REMARK  status: ('A' for Active; 'I' for Inactive)
REMARK    1  A    between atoms: C_1  and  C_2
REMARK    2  A    between atoms: C_6  and  S_8
REMARK    3  A    between atoms: S_8  and  C_9
REMARK    4  A    between atoms: C_9  and  C_10
REMARK    5  A    between atoms: C_10  and  N_11
REMARK    6  A    between atoms: N_11  and  C_12
REMARK    7  A    between atoms: C_12  and  C_13
REMARK    8  A    between atoms: C_14  and  C_25
REMARK    9  A    between atoms: N_16  and  C_18
REMARK   10  A    between atoms: C_28  and  O_31
REMARK   11  A    between atoms: O_31  and  C_32
REMARK                            x       y       z     vdW  Elec       q    Type
REMARK                         _______ _______ _______ _____ _____    ______ ____
ROOT
ATOM      1  C   UNL     1      -9.549   2.692   0.092  0.00  0.00    -0.045 C 
ATOM      2  C   UNL     1      -9.897   3.611   0.989  0.00  0.00    +0.051 C 
ATOM      3  N   UNL     1     -10.797   3.103   1.915  0.00  0.00    -0.263 N 
ATOM      4  N   UNL     1     -11.079   1.759   1.634  0.00  0.00    -0.246 N 
ATOM      5  C   UNL     1     -10.293   1.421   0.436  0.00  0.00    +0.158 C 
ATOM      6  H   UNL     1     -11.177   3.606   2.653  0.00  0.00    +0.170 HD
ENDROOT
BRANCH   4   7
ATOM      7  C   UNL     1     -11.937   0.913   2.344  0.00  0.00    +0.083 A 
ATOM      8  C   UNL     1     -12.964   0.252   1.684  0.00  0.00    +0.027 A 
ATOM      9  C   UNL     1     -13.810  -0.584   2.388  0.00  0.00    +0.002 A 
ATOM     10  C   UNL     1     -13.635  -0.762   3.748  0.00  0.00    +0.003 A 
ATOM     11  C   UNL     1     -12.614  -0.105   4.410  0.00  0.00    +0.040 A 
ATOM     12  C   UNL     1     -11.759   0.728   3.711  0.00  0.00    +0.146 A 
ATOM     13  F   UNL     1     -10.758   1.365   4.356  0.00  0.00    -0.203 F 
ENDBRANCH   4   7
BRANCH   2  14
ATOM     14  C   UNL     1      -9.388   5.002   0.997  0.00  0.00    -0.003 A 
ATOM     15  C   UNL     1      -8.893   5.558   2.176  0.00  0.00    +0.013 A 
ATOM     16  C   UNL     1      -8.419   6.853   2.181  0.00  0.00    +0.046 A 
ATOM     17  C   UNL     1      -8.436   7.603   1.013  0.00  0.00    +0.120 A 
ATOM     18  C   UNL     1      -8.929   7.053  -0.163  0.00  0.00    +0.046 A 
ATOM     19  C   UNL     1      -9.399   5.757  -0.176  0.00  0.00    +0.013 A 
BRANCH  17  20
ATOM     20  O   UNL     1      -7.969   8.879   1.020  0.00  0.00    -0.495 OA
ATOM     21  C   UNL     1      -8.016   9.595  -0.216  0.00  0.00    +0.277 C 
ENDBRANCH  17  20
ENDBRANCH   2  14
BRANCH   1  22
ATOM     22  C   UNL     1      -8.595   2.884  -1.058  0.00  0.00    -0.048 C 
BRANCH  22  23
ATOM     23  N   UNL     1      -7.251   2.444  -0.658  0.00  0.00    +0.382 N 
ATOM     24  H   UNL     1      -7.279   1.468  -0.403  0.00  0.00    -0.085 HD
ATOM     25  H   UNL     1      -6.940   2.990   0.131  0.00  0.00    -0.085 HD
BRANCH  23  26
ATOM     26  C   UNL     1      -6.321   2.631  -1.780  0.00  0.00    -0.071 C 
BRANCH  26  27
ATOM     27  C   UNL     1      -4.921   2.173  -1.363  0.00  0.00    +0.058 C 
BRANCH  27  28
ATOM     28  S   UNL     1      -3.772   2.404  -2.748  0.00  0.00    -0.088 S 
BRANCH  28  34
ATOM     29  C   UNL     1      -0.088   0.460   0.459  0.00  0.00    +0.090 C 
ATOM     30  C   UNL     1      -0.723   1.036  -0.781  0.00  0.00    +0.149 A 
ATOM     31  N   UNL     1      -0.102   1.291  -1.901  0.00  0.00    -0.157 NA
ATOM     32  H   UNL     1      -0.903   2.101  -3.704  0.00  0.00    +0.191 HD
ATOM     33  N   UNL     1      -1.055   1.814  -2.789  0.00  0.00    -0.254 N 
ATOM     34  C   UNL     1      -2.227   1.839  -2.118  0.00  0.00    +0.184 A 
ATOM     35  N   UNL     1      -2.010   1.361  -0.911  0.00  0.00    -0.206 NA
ENDBRANCH  28  34
ENDBRANCH  27  28
ENDBRANCH  26  27
ENDBRANCH  23  26
ENDBRANCH  22  23
ENDBRANCH   1  22
TORSDOF 9
