REMARK  Name = ZINC26513339
REMARK  9 active torsions:
REMARK  status: ('A' for Active; 'I' for Inactive)
REMARK    1  A    between atoms: C_1  and  C_2
REMARK    2  A    between atoms: C_4  and  N_28
REMARK    3  A    between atoms: C_6  and  S_8
REMARK    4  A    between atoms: S_8  and  C_9
REMARK    5  A    between atoms: C_9  and  C_11
REMARK    6  A    between atoms: C_9  and  C_12
REMARK    7  A    between atoms: N_14  and  C_15
REMARK    8  A    between atoms: C_20  and  C_21
REMARK    9  A    between atoms: C_21  and  C_22
REMARK                            x       y       z     vdW  Elec       q    Type
REMARK                         _______ _______ _______ _____ _____    ______ ____
ROOT
ATOM      1  C   UNL     1      -3.198  -1.060   1.683  0.00  0.00    +0.230 C 
ATOM      2  O   UNL     1      -3.767  -0.670   2.681  0.00  0.00    -0.274 OA
ATOM      3  N   UNL     1      -2.222  -0.314   1.129  0.00  0.00    -0.284 N 
ATOM      4  H   UNL     1      -1.768  -0.622   0.175  0.00  0.00    +0.155 HD
ENDROOT
BRANCH   3   5
ATOM      5  C   UNL     1      -1.785   0.852   1.767  0.00  0.00    +0.037 A 
ATOM      6  C   UNL     1      -1.936   0.992   3.140  0.00  0.00    +0.023 A 
ATOM      7  C   UNL     1      -1.504   2.144   3.767  0.00  0.00    +0.002 A 
ATOM      8  C   UNL     1      -0.920   3.158   3.028  0.00  0.00    +0.000 A 
ATOM      9  C   UNL     1      -0.763   3.019   1.662  0.00  0.00    +0.006 A 
ATOM     10  C   UNL     1      -1.199   1.871   1.028  0.00  0.00    -0.022 A 
BRANCH  10  11
ATOM     11  C   UNL     1      -1.033   1.723  -0.462  0.00  0.00    +0.072 C 
BRANCH  11  12
ATOM     12  C   UNL     1      -2.303   2.148  -1.154  0.00  0.00    -0.043 A 
ATOM     13  C   UNL     1      -3.294   1.220  -1.411  0.00  0.00    +0.004 A 
ATOM     14  C   UNL     1      -4.461   1.611  -2.041  0.00  0.00    +0.000 A 
ATOM     15  C   UNL     1      -4.632   2.928  -2.423  0.00  0.00    +0.000 A 
ATOM     16  C   UNL     1      -3.638   3.855  -2.171  0.00  0.00    +0.000 A 
ATOM     17  C   UNL     1      -2.474   3.466  -1.537  0.00  0.00    +0.004 A 
ENDBRANCH  11  12
ENDBRANCH  10  11
ENDBRANCH   3   5
BRANCH   1  18
ATOM     18  C   UNL     1      -3.582  -2.379   1.063  0.00  0.00    +0.137 C 
ATOM     19  C   UNL     1      -2.651  -3.477   1.581  0.00  0.00    +0.029 C 
BRANCH  18  20
ATOM     20  S   UNL     1      -5.291  -2.779   1.506  0.00  0.00    -0.074 S 
BRANCH  20  26
ATOM     21  C   UNL     1      -8.228  -6.677  -0.035  0.00  0.00    +0.066 C 
ATOM     22  C   UNL     1      -6.896  -5.974  -0.099  0.00  0.00    +0.044 A 
ATOM     23  C   UNL     1      -5.881  -6.474  -0.891  0.00  0.00    +0.066 A 
ATOM     24  C   UNL     1      -4.662  -5.793  -0.923  0.00  0.00    +0.121 A 
ATOM     25  N   UNL     1      -4.523  -4.688  -0.197  0.00  0.00    -0.207 NA
ATOM     26  C   UNL     1      -5.520  -4.243   0.554  0.00  0.00    +0.191 A 
ATOM     27  N   UNL     1      -6.686  -4.871   0.603  0.00  0.00    -0.227 NA
BRANCH  24  28
ATOM     28  N   UNL     1      -3.617  -6.258  -1.703  0.00  0.00    -0.343 N 
ATOM     29  H   UNL     1      -2.660  -5.714  -1.722  0.00  0.00    +0.144 HD
ATOM     30  H   UNL     1      -3.742  -7.171  -2.304  0.00  0.00    +0.144 HD
ENDBRANCH  24  28
ENDBRANCH  20  26
ENDBRANCH  18  20
ENDBRANCH   1  18
TORSDOF 7
