REMARK  Name = ZINC16846227
REMARK  9 active torsions:
REMARK  status: ('A' for Active; 'I' for Inactive)
REMARK    1  A    between atoms: C_1  and  C_2
REMARK    2  A    between atoms: C_2  and  S_3
REMARK    3  A    between atoms: S_3  and  C_4
REMARK    4  A    between atoms: C_13  and  C_16
REMARK    5  A    between atoms: C_19  and  S_22
REMARK    6  A    between atoms: S_22  and  C_23
REMARK    7  A    between atoms: C_23  and  C_24
REMARK    8  A    between atoms: N_26  and  C_27
REMARK    9  A    between atoms: C_30  and  C_33
REMARK                            x       y       z     vdW  Elec       q    Type
REMARK                         _______ _______ _______ _____ _____    ______ ____
ROOT
ATOM      1  C   UNL     1       6.171   8.889   0.616  0.00  0.00    +0.178 A 
ATOM      2  N   UNL     1       6.912   9.967   0.729  0.00  0.00    -0.216 NA
ATOM      3  C   UNL     1       6.384  11.186   0.810  0.00  0.00    +0.115 A 
ATOM      4  C   UNL     1       5.000  11.407   0.781  0.00  0.00    +0.056 A 
ATOM      5  C   UNL     1       4.570  12.799   0.879  0.00  0.00    -0.024 A 
ATOM      6  C   UNL     1       5.540  13.734   0.988  0.00  0.00    -0.004 A 
ATOM      7  S   UNL     1       7.059  12.821   0.966  0.00  0.00    -0.073 S 
ATOM      8  C   UNL     1       5.362  15.217   1.102  0.00  0.00    +0.043 C 
ATOM      9  C   UNL     1       3.920  15.563   0.703  0.00  0.00    +0.009 C 
ATOM     10  C   UNL     1       2.967  14.614   1.435  0.00  0.00    -0.009 C 
ATOM     11  C   UNL     1       3.098  13.202   0.862  0.00  0.00    +0.040 C 
ATOM     12  C   UNL     1       1.528  15.102   1.258  0.00  0.00    +0.008 C 
ATOM     13  C   UNL     1       4.172  10.188   0.654  0.00  0.00    +0.174 A 
ATOM     14  N   UNL     1       4.804   8.966   0.582  0.00  0.00    -0.248 N 
ATOM     15  C   UNL     1       3.800   8.043   0.468  0.00  0.00    +0.198 A 
ATOM     16  N   UNL     1       2.664   8.702   0.484  0.00  0.00    -0.122 NA
ATOM     17  N   UNL     1       2.882   9.966   0.594  0.00  0.00    -0.128 NA
ENDROOT
BRANCH   1  18
ATOM     18  S   UNL     1       6.950   7.312   0.513  0.00  0.00    -0.088 S 
BRANCH  18  20
ATOM     19  C   UNL     1       9.580   6.571   0.541  0.00  0.00    +0.016 C 
ATOM     20  C   UNL     1       8.687   7.812   0.612  0.00  0.00    +0.074 C 
ENDBRANCH  18  20
ENDBRANCH   1  18
BRANCH  15  21
ATOM     21  S   UNL     1       3.995   6.298   0.332  0.00  0.00    -0.076 S 
BRANCH  21  22
ATOM     22  C   UNL     1       2.295   5.673   0.225  0.00  0.00    +0.173 C 
BRANCH  22  23
ATOM     23  C   UNL     1       2.318   4.171   0.104  0.00  0.00    +0.227 C 
ATOM     24  O   UNL     1       3.377   3.580   0.091  0.00  0.00    -0.275 OA
ATOM     25  N   UNL     1       1.162   3.485   0.009  0.00  0.00    -0.285 N 
ATOM     26  H   UNL     1       0.319   3.961  -0.058  0.00  0.00    +0.155 HD
BRANCH  25  27
ATOM     27  C   UNL     1       1.177   2.086   0.008  0.00  0.00    +0.033 A 
ATOM     28  C   UNL     1       2.133   1.400   0.745  0.00  0.00    +0.023 A 
ATOM     29  C   UNL     1       2.145   0.019   0.741  0.00  0.00    +0.005 A 
ATOM     30  C   UNL     1       1.206  -0.681   0.006  0.00  0.00    -0.050 A 
ATOM     31  C   UNL     1       0.253  -0.000  -0.729  0.00  0.00    +0.005 A 
ATOM     32  C   UNL     1       0.236   1.381  -0.731  0.00  0.00    +0.023 A 
ATOM     33  C   UNL     1       1.221  -2.188   0.005  0.00  0.00    +0.044 C 
ENDBRANCH  25  27
ENDBRANCH  22  23
ENDBRANCH  21  22
ENDBRANCH  15  21
TORSDOF 6
