REMARK  Name = ZINC54352707
REMARK  8 active torsions:
REMARK  status: ('A' for Active; 'I' for Inactive)
REMARK    1  A    between atoms: C_1  and  C_2
REMARK    2  A    between atoms: C_5  and  O_9
REMARK    3  A    between atoms: O_9  and  C_10
REMARK    4  A    between atoms: C_13  and  C_18
REMARK    5  A    between atoms: C_15  and  C_16
REMARK    6  A    between atoms: C_16  and  N_17
REMARK    7  A    between atoms: C_18  and  C_19
REMARK    8  A    between atoms: C_18  and  C_20
REMARK                            x       y       z     vdW  Elec       q    Type
REMARK                         _______ _______ _______ _____ _____    ______ ____
ROOT
ATOM      1  C   UNL     1      -0.046  -4.762  -1.222  0.00  0.00    +0.169 A 
ATOM      2  C   UNL     1      -0.055  -4.039  -2.411  0.00  0.00    +0.161 A 
ATOM      3  N   UNL     1      -0.156  -4.691  -3.557  0.00  0.00    -0.236 NA
ATOM      4  C   UNL     1      -0.247  -6.005  -3.583  0.00  0.00    +0.132 A 
ATOM      5  N   UNL     1      -0.242  -6.725  -2.478  0.00  0.00    -0.232 NA
ATOM      6  C   UNL     1      -0.138  -6.148  -1.292  0.00  0.00    +0.100 A 
ENDROOT
BRANCH   4   7
ATOM      7  C   UNL     1      -0.360  -6.706  -4.912  0.00  0.00    +0.051 C 
ATOM      8  C   UNL     1      -1.617  -6.221  -5.638  0.00  0.00    +0.015 C 
ATOM      9  C   UNL     1       0.873  -6.391  -5.761  0.00  0.00    +0.015 C 
ENDBRANCH   4   7
BRANCH   1  10
ATOM     10  O   UNL     1       0.057  -4.130  -0.023  0.00  0.00    -0.451 OA
BRANCH  10  15
ATOM     11  C   UNL     1      -0.053   1.502   0.015  0.00  0.00    +0.044 C 
ATOM     12  C   UNL     1      -0.025  -0.004   0.005  0.00  0.00    -0.049 A 
ATOM     13  C   UNL     1       1.185  -0.672   0.064  0.00  0.00    +0.007 A 
ATOM     14  C   UNL     1       1.215  -2.053   0.055  0.00  0.00    +0.048 A 
ATOM     15  C   UNL     1       0.030  -2.771  -0.013  0.00  0.00    +0.147 A 
ATOM     16  C   UNL     1      -1.184  -2.099  -0.072  0.00  0.00    +0.083 A 
ATOM     17  C   UNL     1      -1.208  -0.717  -0.057  0.00  0.00    +0.027 A 
ATOM     18 CL   UNL     1      -2.669  -2.993  -0.159  0.00  0.00    -0.080 Cl
ENDBRANCH  10  15
ENDBRANCH   1  10
BRANCH   6  19
ATOM     19  C   UNL     1      -0.127  -6.980  -0.036  0.00  0.00    +0.137 C 
BRANCH  19  20
ATOM     20  N   UNL     1      -1.503  -7.162   0.444  0.00  0.00    -0.325 NA
ATOM     21  H   UNL     1      -1.522  -7.717   1.286  0.00  0.00    +0.119 HD
ATOM     22  H   UNL     1      -1.957  -6.272   0.587  0.00  0.00    +0.119 HD
ENDBRANCH  19  20
ENDBRANCH   6  19
TORSDOF 5
