REMARK  Name = ZINC04620594
REMARK  8 active torsions:
REMARK  status: ('A' for Active; 'I' for Inactive)
REMARK    1  A    between atoms: C_1  and  C_2
REMARK    2  A    between atoms: C_2  and  C_3
REMARK    3  A    between atoms: C_2  and  C_4
REMARK    4  A    between atoms: C_7  and  C_10
REMARK    5  A    between atoms: C_15  and  N_24
REMARK    6  A    between atoms: C_19  and  N_23
REMARK    7  A    between atoms: C_20  and  C_21
REMARK    8  A    between atoms: N_24  and  C_25
REMARK                            x       y       z     vdW  Elec       q    Type
REMARK                         _______ _______ _______ _____ _____    ______ ____
ROOT
ATOM      1  C   UNL     1       5.392   1.420   0.879  0.00  0.00    +0.098 C 
ATOM      2  C   UNL     1       5.391   1.708  -0.600  0.00  0.00    +0.008 A 
ATOM      3  C   UNL     1       4.820   0.795  -1.470  0.00  0.00    +0.010 A 
ATOM      4  C   UNL     1       4.809   1.041  -2.828  0.00  0.00    +0.024 A 
ATOM      5  C   UNL     1       5.374   2.209  -3.326  0.00  0.00    +0.035 A 
ATOM      6  C   UNL     1       5.947   3.125  -2.456  0.00  0.00    +0.069 A 
ATOM      7  C   UNL     1       5.955   2.875  -1.091  0.00  0.00    +0.136 A 
ATOM      8  O   UNL     1       6.519   3.781  -0.253  0.00  0.00    -0.441 OA
ATOM      9  C   UNL     1       6.887   3.411   0.984  0.00  0.00    +0.199 C 
ATOM     10  C   UNL     1       6.389   2.300   1.578  0.00  0.00    +0.098 C 
ENDROOT
BRANCH   1  14
ATOM     11  C   UNL     1       1.495   2.158   2.465  0.00  0.00    -0.045 A 
ATOM     12  C   UNL     1       2.052   0.896   2.558  0.00  0.00    +0.004 A 
ATOM     13  C   UNL     1       3.315   0.659   2.049  0.00  0.00    +0.005 A 
ATOM     14  C   UNL     1       4.017   1.681   1.439  0.00  0.00    -0.035 A 
ATOM     15  C   UNL     1       3.459   2.942   1.343  0.00  0.00    +0.005 A 
ATOM     16  C   UNL     1       2.198   3.180   1.856  0.00  0.00    +0.004 A 
BRANCH  11  18
ATOM     17  C   UNL     1      -0.894   1.510   2.326  0.00  0.00    +0.012 C 
ATOM     18  C   UNL     1       0.120   2.418   3.025  0.00  0.00    +0.013 C 
ATOM     19  C   UNL     1       0.117   2.127   4.526  0.00  0.00    +0.012 C 
ENDBRANCH  11  18
ENDBRANCH   1  14
BRANCH   9  20
ATOM     20  N   UNL     1       7.795   4.181   1.667  0.00  0.00    -0.328 N 
ATOM     21  H   UNL     1       8.161   4.979   1.255  0.00  0.00    +0.145 HD
ATOM     22  H   UNL     1       8.072   3.927   2.562  0.00  0.00    +0.145 HD
ENDBRANCH   9  20
BRANCH  10  23
ATOM     23  C   UNL     1       6.821   1.958   2.900  0.00  0.00    +0.101 C 
ATOM     24  N   UNL     1       7.164   1.686   3.949  0.00  0.00    -0.191 NA
ENDBRANCH  10  23
BRANCH   5  25
ATOM     25  N   UNL     1       5.365   2.460  -4.701  0.00  0.00    -0.314 N 
ATOM     26  H   UNL     1       5.378   1.721  -5.329  0.00  0.00    +0.152 HD
BRANCH  25  27
ATOM     27  C   UNL     1       5.337   3.776  -5.170  0.00  0.00    +0.031 A 
ATOM     28  C   UNL     1       4.691   4.763  -4.437  0.00  0.00    +0.023 A 
ATOM     29  C   UNL     1       4.668   6.063  -4.903  0.00  0.00    +0.002 A 
ATOM     30  C   UNL     1       5.279   6.381  -6.102  0.00  0.00    +0.000 A 
ATOM     31  C   UNL     1       5.920   5.399  -6.836  0.00  0.00    +0.002 A 
ATOM     32  C   UNL     1       5.950   4.098  -6.375  0.00  0.00    +0.023 A 
ENDBRANCH  25  27
ENDBRANCH   5  25
TORSDOF 6
