REMARK  Name = ZINC09245420
REMARK  7 active torsions:
REMARK  status: ('A' for Active; 'I' for Inactive)
REMARK    1  A    between atoms: C_1  and  C_2
REMARK    2  A    between atoms: C_2  and  C_33
REMARK    3  A    between atoms: C_6  and  C_23
REMARK    4  A    between atoms: C_8  and  C_21
REMARK    5  A    between atoms: C_9  and  N_20
REMARK    6  A    between atoms: N_10  and  C_11
REMARK    7  A    between atoms: C_15  and  N_17
REMARK                            x       y       z     vdW  Elec       q    Type
REMARK                         _______ _______ _______ _____ _____    ______ ____
ROOT
ATOM      1  C   UNL     1       3.063   6.235  -1.773  0.00  0.00    +0.011 C 
ATOM      2  C   UNL     1       3.456   5.803  -0.359  0.00  0.00    -0.023 C 
ATOM      3  C   UNL     1       2.327   4.976   0.259  0.00  0.00    +0.058 C 
ATOM      4  C   UNL     1       1.077   5.817   0.354  0.00  0.00    +0.025 C 
ATOM      5  C   UNL     1       1.150   7.152   0.539  0.00  0.00    +0.025 C 
ATOM      6  C   UNL     1      -0.099   7.987   0.659  0.00  0.00    +0.099 C 
ATOM      7  C   UNL     1      -1.293   7.256   0.120  0.00  0.00    +0.077 C 
ATOM      8  C   UNL     1      -1.270   5.909  -0.064  0.00  0.00    +0.107 C 
ATOM      9  N   UNL     1      -0.138   5.191   0.251  0.00  0.00    -0.260 N 
ATOM     10  C   UNL     1       2.393   7.804   0.629  0.00  0.00    +0.162 C 
ATOM     11  O   UNL     1       2.424   9.006   0.804  0.00  0.00    -0.292 OA
ATOM     12  C   UNL     1       3.684   7.042   0.513  0.00  0.00    +0.086 C 
ATOM     13  C   UNL     1       4.738   4.970  -0.414  0.00  0.00    +0.011 C 
ENDROOT
BRANCH   6  14
ATOM     14  C   UNL     1      -0.336   8.317   2.110  0.00  0.00    -0.016 A 
ATOM     15  C   UNL     1      -0.524   7.301   3.028  0.00  0.00    +0.006 A 
ATOM     16  C   UNL     1      -0.736   7.603   4.360  0.00  0.00    +0.000 A 
ATOM     17  C   UNL     1      -0.770   8.921   4.774  0.00  0.00    +0.001 A 
ATOM     18  C   UNL     1      -0.588   9.938   3.856  0.00  0.00    +0.020 A 
ATOM     19  C   UNL     1      -0.370   9.637   2.523  0.00  0.00    +0.045 A 
ATOM     20 CL   UNL     1      -0.142  10.914   1.370  0.00  0.00    -0.083 Cl
ENDBRANCH   6  14
BRANCH   9  21
ATOM     21  C   UNL     1      -0.227   3.811   0.462  0.00  0.00    +0.042 A 
ATOM     22  C   UNL     1      -0.132   2.935  -0.613  0.00  0.00    +0.024 A 
ATOM     23  C   UNL     1      -0.221   1.573  -0.401  0.00  0.00    +0.004 A 
ATOM     24  C   UNL     1      -0.404   1.081   0.878  0.00  0.00    +0.033 A 
ATOM     25  C   UNL     1      -0.504   1.950   1.949  0.00  0.00    +0.128 A 
ATOM     26  C   UNL     1      -0.411   3.313   1.745  0.00  0.00    +0.056 A 
BRANCH  25  27
ATOM     27  N   UNL     1      -0.706   1.419   3.316  0.00  0.00    +0.056 N 
ATOM     28  O   UNL     1      -0.784   0.217   3.497  0.00  0.00    -0.126 OA
ATOM     29  O   UNL     1      -0.795   2.184   4.259  0.00  0.00    -0.126 OA
ENDBRANCH  25  27
ENDBRANCH   9  21
BRANCH   8  30
ATOM     30  N   UNL     1      -2.377   5.262  -0.558  0.00  0.00    -0.345 N 
ATOM     31  H   UNL     1      -2.331   4.317  -0.772  0.00  0.00    +0.144 HD
ATOM     32  H   UNL     1      -3.204   5.750  -0.693  0.00  0.00    +0.144 HD
ENDBRANCH   8  30
BRANCH   7  33
ATOM     33  C   UNL     1      -2.477   7.990  -0.213  0.00  0.00    +0.099 C 
ATOM     34  N   UNL     1      -3.416   8.572  -0.476  0.00  0.00    -0.191 NA
ENDBRANCH   7  33
TORSDOF 5
