REMARK  Name = ZINC44316422
REMARK  9 active torsions:
REMARK  status: ('A' for Active; 'I' for Inactive)
REMARK    1  A    between atoms: C_1  and  C_2
REMARK    2  A    between atoms: N_5  and  C_8
REMARK    3  A    between atoms: C_8  and  C_9
REMARK    4  A    between atoms: N_14  and  C_15
REMARK    5  A    between atoms: C_15  and  C_17
REMARK    6  A    between atoms: C_17  and  S_18
REMARK    7  A    between atoms: S_18  and  C_19
REMARK    8  A    between atoms: C_23  and  O_25
REMARK    9  A    between atoms: O_25  and  C_26
REMARK                            x       y       z     vdW  Elec       q    Type
REMARK                         _______ _______ _______ _____ _____    ______ ____
ROOT
ATOM      1  C   UNL     1      -0.034  -4.388   2.671  0.00  0.00    +0.008 A 
ATOM      2  C   UNL     1      -0.664  -5.079   3.628  0.00  0.00    +0.067 A 
ATOM      3  S   UNL     1       0.633  -5.312   4.829  0.00  0.00    -0.061 S 
ATOM      4  C   UNL     1       1.874  -4.514   4.022  0.00  0.00    +0.163 A 
ATOM      5  N   UNL     1       1.280  -4.099   2.872  0.00  0.00    -0.341 N 
ATOM      6  N   UNL     1       3.137  -4.334   4.415  0.00  0.00    -0.156 NA
ATOM      7  H   UNL     1       1.783  -3.604   2.207  0.00  0.00    +0.167 HD
ENDROOT
BRANCH   6   8
ATOM      8  C   UNL     1       3.545  -4.819   5.580  0.00  0.00    +0.249 C 
ATOM      9  O   UNL     1       2.768  -5.427   6.292  0.00  0.00    -0.273 OA
BRANCH   8  10
ATOM     10  C   UNL     1       4.971  -4.616   6.023  0.00  0.00    +0.172 C 
BRANCH  10  11
ATOM     11  S   UNL     1       5.216  -5.388   7.646  0.00  0.00    -0.116 S 
BRANCH  11  12
ATOM     12  C   UNL     1       6.908  -5.068   8.019  0.00  0.00    +0.012 A 
ATOM     13  C   UNL     1       7.696  -4.354   7.124  0.00  0.00    +0.015 A 
ATOM     14  C   UNL     1       9.022  -4.103   7.417  0.00  0.00    +0.005 A 
ATOM     15  C   UNL     1       9.569  -4.561   8.601  0.00  0.00    +0.046 A 
ATOM     16  C   UNL     1       8.788  -5.275   9.499  0.00  0.00    +0.121 A 
ATOM     17  C   UNL     1       7.455  -5.524   9.211  0.00  0.00    +0.060 A 
BRANCH  16  18
ATOM     18  O   UNL     1       9.329  -5.724  10.662  0.00  0.00    -0.495 OA
ATOM     19  C   UNL     1      10.707  -5.426  10.895  0.00  0.00    +0.277 C 
ENDBRANCH  16  18
ENDBRANCH  11  12
ENDBRANCH  10  11
ENDBRANCH   8  10
ENDBRANCH   6   8
BRANCH   1  20
ATOM     20  C   UNL     1      -0.750  -3.952   1.419  0.00  0.00    -0.024 C 
BRANCH  20  25
ATOM     21  C   UNL     1      -2.194   1.558   1.146  0.00  0.00    +0.007 C 
ATOM     22  C   UNL     1      -2.248   0.029   1.167  0.00  0.00    -0.018 C 
ATOM     23  C   UNL     1      -1.696  -0.484   2.499  0.00  0.00    -0.016 C 
ATOM     24  C   UNL     1      -1.678  -2.014   2.482  0.00  0.00    -0.078 C 
ATOM     25  N   UNL     1      -0.826  -2.485   1.383  0.00  0.00    +0.383 N 
ATOM     26  C   UNL     1      -1.389  -2.057   0.097  0.00  0.00    -0.078 C 
ATOM     27  C   UNL     1      -1.396  -0.528   0.023  0.00  0.00    -0.016 C 
ATOM     28  H   UNL     1       0.100  -2.100   1.489  0.00  0.00    -0.081 HD
ENDBRANCH  20  25
ENDBRANCH   1  20
TORSDOF 7
