REMARK  Name = ZINC44874011
REMARK  9 active torsions:
REMARK  status: ('A' for Active; 'I' for Inactive)
REMARK    1  A    between atoms: C_4  and  N_7
REMARK    2  A    between atoms: N_7  and  C_8
REMARK    3  A    between atoms: N_7  and  S_26
REMARK    4  A    between atoms: C_8  and  C_9
REMARK    5  A    between atoms: N_11  and  C_12
REMARK    6  A    between atoms: C_12  and  C_13
REMARK    7  A    between atoms: C_16  and  C_19
REMARK    8  A    between atoms: C_19  and  N_20
REMARK    9  A    between atoms: S_26  and  C_29
REMARK                            x       y       z     vdW  Elec       q    Type
REMARK                         _______ _______ _______ _____ _____    ______ ____
ROOT
ATOM      1  C   UNL     1       4.992  -0.055   1.875  0.00  0.00    +0.232 C 
ATOM      2  O   UNL     1       4.154  -0.637   2.531  0.00  0.00    -0.274 OA
ATOM      3  N   UNL     1       6.054   0.508   2.484  0.00  0.00    -0.310 N 
ATOM      4  H   UNL     1       6.724   0.973   1.959  0.00  0.00    +0.149 HD
ENDROOT
BRANCH   1   5
ATOM      5  C   UNL     1       4.846   0.037   0.378  0.00  0.00    +0.227 C 
BRANCH   5   6
ATOM      6  N   UNL     1       3.620  -0.649  -0.036  0.00  0.00    -0.194 N 
BRANCH   6  10
ATOM      7  C   UNL     1      -0.022   1.368   0.043  0.00  0.00    +0.000 A 
ATOM      8  C   UNL     1       1.013   1.843  -0.742  0.00  0.00    +0.002 A 
ATOM      9  C   UNL     1       2.222   1.176  -0.770  0.00  0.00    +0.025 A 
ATOM     10  C   UNL     1       2.398   0.028  -0.010  0.00  0.00    +0.052 A 
ATOM     11  C   UNL     1       1.356  -0.447   0.777  0.00  0.00    +0.025 A 
ATOM     12  C   UNL     1       0.150   0.224   0.801  0.00  0.00    +0.002 A 
ENDBRANCH   6  10
BRANCH   6  13
ATOM     13  S   UNL     1       3.682  -2.227  -0.536  0.00  0.00    +0.075 S 
ATOM     14  O   UNL     1       4.770  -2.828   0.151  0.00  0.00    -0.150 OA
ATOM     15  O   UNL     1       2.356  -2.732  -0.452  0.00  0.00    -0.150 OA
BRANCH  13  16
ATOM     16  C   UNL     1       4.109  -2.216  -2.245  0.00  0.00    +0.109 A 
ATOM     17  C   UNL     1       3.117  -2.159  -3.205  0.00  0.00    +0.030 A 
ATOM     18  C   UNL     1       3.452  -2.150  -4.546  0.00  0.00    +0.022 A 
ATOM     19  C   UNL     1       4.781  -2.198  -4.927  0.00  0.00    +0.041 A 
ATOM     20  C   UNL     1       5.774  -2.255  -3.966  0.00  0.00    +0.022 A 
ATOM     21  C   UNL     1       5.438  -2.258  -2.625  0.00  0.00    +0.030 A 
ATOM     22 CL   UNL     1       5.203  -2.188  -6.611  0.00  0.00    -0.084 Cl
ENDBRANCH  13  16
ENDBRANCH   6  13
ENDBRANCH   5   6
ENDBRANCH   1   5
BRANCH   3  23
ATOM     23  C   UNL     1       6.196   0.419   3.939  0.00  0.00    +0.139 C 
BRANCH  23  24
ATOM     24  C   UNL     1       7.458   1.124   4.365  0.00  0.00    -0.030 A 
ATOM     25  C   UNL     1       8.650   0.428   4.433  0.00  0.00    +0.005 A 
ATOM     26  C   UNL     1       9.808   1.075   4.823  0.00  0.00    +0.002 A 
ATOM     27  C   UNL     1       9.773   2.419   5.146  0.00  0.00    -0.064 A 
ATOM     28  C   UNL     1       8.581   3.115   5.078  0.00  0.00    +0.002 A 
ATOM     29  C   UNL     1       7.424   2.469   4.683  0.00  0.00    +0.005 A 
BRANCH  27  30
ATOM     30  C   UNL     1      11.034   3.124   5.573  0.00  0.00    -0.043 C 
BRANCH  30  31
ATOM     31  N   UNL     1      11.710   3.678   4.391  0.00  0.00    +0.382 N 
ATOM     32  C   UNL     1      12.144   2.580   3.519  0.00  0.00    -0.078 C 
ATOM     33  C   UNL     1      12.776   3.153   2.249  0.00  0.00    -0.019 C 
ATOM     34  C   UNL     1      13.984   4.014   2.629  0.00  0.00    -0.004 C 
ATOM     35  C   UNL     1      13.532   5.110   3.598  0.00  0.00    -0.019 C 
ATOM     36  C   UNL     1      12.872   4.465   4.818  0.00  0.00    -0.078 C 
ATOM     37  H   UNL     1      11.069   4.272   3.887  0.00  0.00    -0.081 HD
ENDBRANCH  30  31
ENDBRANCH  27  30
ENDBRANCH  23  24
ENDBRANCH   3  23
TORSDOF 9
