REMARK  Name = ZINC60497148
REMARK  5 active torsions:
REMARK  status: ('A' for Active; 'I' for Inactive)
REMARK    1  A    between atoms: C_6  and  N_7
REMARK    2  A    between atoms: C_8  and  C_10
REMARK    3  A    between atoms: C_10  and  N_11
REMARK    4  A    between atoms: N_11  and  S_12
REMARK    5  A    between atoms: S_12  and  C_15
REMARK                            x       y       z     vdW  Elec       q    Type
REMARK                         _______ _______ _______ _____ _____    ______ ____
ROOT
ATOM      1  C   UNL     1      -3.660  -0.846   0.249  0.00  0.00    +0.201 C 
ENDROOT
BRANCH   1   3
ATOM      2  N   UNL     1      -1.201  -0.722   0.010  0.00  0.00    -0.282 N 
ATOM      3  C   UNL     1      -2.375  -0.070   0.127  0.00  0.00    +0.233 C 
ATOM      4  O   UNL     1      -2.396   1.143   0.134  0.00  0.00    -0.274 OA
ATOM      5  H   UNL     1      -1.189  -1.690  -0.061  0.00  0.00    +0.155 HD
BRANCH   2  11
ATOM      6  C   UNL     1       0.054   1.248  -0.608  0.00  0.00    +0.029 A 
ATOM      7  C   UNL     1       1.240   1.956  -0.626  0.00  0.00    +0.043 A 
ATOM      8  C   UNL     1       2.378   1.420  -0.049  0.00  0.00    +0.161 A 
ATOM      9  C   UNL     1       2.330   0.171   0.551  0.00  0.00    +0.195 A 
ATOM     10  C   UNL     1       1.144  -0.542   0.572  0.00  0.00    +0.182 A 
ATOM     11  C   UNL     1       0.001  -0.003  -0.009  0.00  0.00    +0.072 A 
ATOM     12  F   UNL     1       1.096  -1.760   1.155  0.00  0.00    -0.200 F 
ATOM     13  F   UNL     1       3.442  -0.351   1.114  0.00  0.00    -0.199 F 
ATOM     14  F   UNL     1       3.536   2.115  -0.069  0.00  0.00    -0.202 F 
ENDBRANCH   2  11
ENDBRANCH   1   3
BRANCH   1  15
ATOM     15  N   UNL     1      -4.785   0.085   0.362  0.00  0.00    -0.181 NA
ATOM     16  H   UNL     1      -4.623   1.019   0.569  0.00  0.00    +0.149 HD
BRANCH  15  17
ATOM     17  S   UNL     1      -6.334  -0.456   0.138  0.00  0.00    +0.064 S 
ATOM     18  O   UNL     1      -7.188   0.663   0.337  0.00  0.00    -0.153 OA
ATOM     19  O   UNL     1      -6.332  -1.206  -1.069  0.00  0.00    -0.153 OA
BRANCH  17  20
ATOM     20  C   UNL     1      -6.682  -1.593   1.438  0.00  0.00    +0.175 A 
ATOM     21  C   UNL     1      -6.402  -2.938   1.274  0.00  0.00    +0.155 A 
ATOM     22  C   UNL     1      -6.675  -3.832   2.296  0.00  0.00    +0.078 A 
ATOM     23  C   UNL     1      -7.229  -3.380   3.481  0.00  0.00    +0.129 A 
ATOM     24  C   UNL     1      -7.508  -2.034   3.645  0.00  0.00    +0.078 A 
ATOM     25  C   UNL     1      -7.231  -1.140   2.625  0.00  0.00    +0.155 A 
ATOM     26  F   UNL     1      -7.500   0.174   2.787  0.00  0.00    -0.203 F 
ATOM     27  F   UNL     1      -7.496  -4.252   4.478  0.00  0.00    -0.205 F 
ATOM     28  F   UNL     1      -5.861  -3.380   0.117  0.00  0.00    -0.203 F 
ENDBRANCH  17  20
ENDBRANCH  15  17
ENDBRANCH   1  15
TORSDOF 5
