REMARK  Name = ZINC51757369
REMARK  7 active torsions:
REMARK  status: ('A' for Active; 'I' for Inactive)
REMARK    1  A    between atoms: C_1  and  C_2
REMARK    2  A    between atoms: C_2  and  C_3
REMARK    3  A    between atoms: C_2  and  C_4
REMARK    4  A    between atoms: C_2  and  N_11
REMARK    5  A    between atoms: N_14  and  C_15
REMARK    6  A    between atoms: C_15  and  C_16
REMARK    7  A    between atoms: C_16  and  C_17
REMARK                            x       y       z     vdW  Elec       q    Type
REMARK                         _______ _______ _______ _____ _____    ______ ____
ROOT
ATOM      1  N   UNL     1       0.556  -0.272  -1.327  0.00  0.00    -0.290 N 
ATOM      2  C   UNL     1       1.849   0.006  -1.587  0.00  0.00    +0.300 C 
ATOM      3  O   UNL     1       2.556   0.479  -0.719  0.00  0.00    -0.253 OA
ATOM      4  N   UNL     1       2.358  -0.241  -2.810  0.00  0.00    -0.299 N 
ATOM      5  H   UNL     1      -0.008  -0.650  -2.021  0.00  0.00    +0.151 HD
ATOM      6  H   UNL     1       1.795  -0.619  -3.504  0.00  0.00    +0.150 HD
ENDROOT
BRANCH   1   8
ATOM      7  C   UNL     1       0.155   1.483   0.328  0.00  0.00    +0.036 C 
ATOM      8  C   UNL     1       0.002  -0.004   0.002  0.00  0.00    +0.056 C 
ATOM      9  C   UNL     1       0.753  -0.835   1.044  0.00  0.00    +0.036 C 
BRANCH   8  10
ATOM     10  C   UNL     1      -1.458  -0.375   0.022  0.00  0.00    -0.025 A 
ATOM     11  C   UNL     1      -2.073  -0.700   1.217  0.00  0.00    +0.007 A 
ATOM     12  C   UNL     1      -3.413  -1.039   1.235  0.00  0.00    +0.015 A 
ATOM     13  C   UNL     1      -4.139  -1.054   0.058  0.00  0.00    +0.018 A 
ATOM     14  C   UNL     1      -3.523  -0.729  -1.137  0.00  0.00    +0.015 A 
ATOM     15  C   UNL     1      -2.185  -0.384  -1.154  0.00  0.00    +0.007 A 
ATOM     16 BR   UNL     1      -5.971  -1.519   0.083  0.00  0.00    -0.050 Br
ENDBRANCH   8  10
ENDBRANCH   1   8
BRANCH   4  17
ATOM     17  C   UNL     1       3.764   0.061  -3.093  0.00  0.00    +0.112 C 
BRANCH  17  18
ATOM     18  C   UNL     1       4.084  -0.310  -4.542  0.00  0.00    +0.081 C 
BRANCH  18  19
ATOM     19  C   UNL     1       5.530   0.000  -4.833  0.00  0.00    +0.080 A 
ATOM     20  N   UNL     1       6.573  -0.779  -4.695  0.00  0.00    -0.252 NA
ATOM     21  C   UNL     1       7.787  -0.360  -4.994  0.00  0.00    +0.119 A 
ATOM     22  C   UNL     1       7.903   0.913  -5.450  0.00  0.00    +0.066 A 
ATOM     23  S   UNL     1       6.194   1.431  -5.421  0.00  0.00    -0.081 S 
ENDBRANCH  18  19
ENDBRANCH  17  18
ENDBRANCH   4  17
TORSDOF 5
