REMARK  Name = ZINC10129635
REMARK  10 active torsions:
REMARK  status: ('A' for Active; 'I' for Inactive)
REMARK    1  A    between atoms: C_1  and  C_2
REMARK    2  A    between atoms: C_5  and  N_8
REMARK    3  A    between atoms: C_9  and  C_11
REMARK    4  A    between atoms: N_13  and  C_14
REMARK    5  A    between atoms: C_14  and  C_15
REMARK    6  A    between atoms: C_15  and  C_17
REMARK    7  A    between atoms: C_15  and  N_66
REMARK    8  A    between atoms: C_20  and  N_23
REMARK    9  A    between atoms: N_23  and  C_24
REMARK   10  A    between atoms: N_23  and  C_25
REMARK                            x       y       z     vdW  Elec       q    Type
REMARK                         _______ _______ _______ _____ _____    ______ ____
ROOT
ATOM      1  C   UNL     1       5.083  -6.830  -0.474  0.00  0.00    -0.020 C 
ENDROOT
BRANCH   1  11
ATOM      2  C   UNL     1       6.225  -6.012  -2.449  0.00  0.00    -0.073 C 
ATOM      3  C   UNL     1       7.451  -5.200  -2.869  0.00  0.00    +0.017 C 
ATOM      4  C   UNL     1       8.710  -5.914  -2.448  0.00  0.00    -0.048 A 
ATOM      5  C   UNL     1       9.910  -5.539  -3.032  0.00  0.00    +0.004 A 
ATOM      6  C   UNL     1      11.086  -6.164  -2.672  0.00  0.00    +0.000 A 
ATOM      7  C   UNL     1      11.068  -7.170  -1.724  0.00  0.00    +0.000 A 
ATOM      8  C   UNL     1       9.874  -7.546  -1.143  0.00  0.00    +0.002 A 
ATOM      9  C   UNL     1       8.690  -6.919  -1.505  0.00  0.00    -0.061 A 
ATOM     10  C   UNL     1       7.411  -7.370  -0.849  0.00  0.00    -0.042 C 
ATOM     11  N   UNL     1       6.371  -6.341  -1.017  0.00  0.00    +0.388 N 
ATOM     12  H   UNL     1       6.649  -5.496  -0.505  0.00  0.00    -0.080 HD
ENDBRANCH   1  11
BRANCH   1  13
ATOM     13  C   UNL     1       4.653  -8.082  -1.196  0.00  0.00    -0.059 A 
ATOM     14  C   UNL     1       4.273  -8.016  -2.523  0.00  0.00    +0.004 A 
ATOM     15  C   UNL     1       3.884  -9.162  -3.189  0.00  0.00    +0.023 A 
ATOM     16  C   UNL     1       3.864 -10.379  -2.521  0.00  0.00    +0.029 A 
ATOM     17  C   UNL     1       4.241 -10.440  -1.185  0.00  0.00    +0.023 A 
ATOM     18  C   UNL     1       4.635  -9.292  -0.527  0.00  0.00    +0.004 A 
BRANCH  16  19
ATOM     19  N   UNL     1       3.465 -11.539  -3.189  0.00  0.00    -0.336 N 
ATOM     20  C   UNL     1       3.328 -12.798  -2.453  0.00  0.00    +0.129 C 
ATOM     21  C   UNL     1       3.184 -11.495  -4.626  0.00  0.00    +0.129 C 
ENDBRANCH  16  19
ENDBRANCH   1  13
BRANCH   1  22
ATOM     22  C   UNL     1       4.020  -5.745  -0.657  0.00  0.00    +0.094 C 
BRANCH  22  25
ATOM     23  C   UNL     1       3.686  -3.415  -0.029  0.00  0.00    +0.299 C 
ATOM     24  O   UNL     1       2.559  -3.487  -0.472  0.00  0.00    -0.265 OA
ATOM     25  N   UNL     1       4.498  -4.490  -0.073  0.00  0.00    -0.309 N 
ATOM     26  H   UNL     1       5.399  -4.432   0.281  0.00  0.00    +0.149 HD
BRANCH  23  28
ATOM     27  N   UNL     1       3.362  -1.060   0.611  0.00  0.00    -0.278 N 
ATOM     28  C   UNL     1       4.174  -2.135   0.567  0.00  0.00    +0.303 C 
ATOM     29  O   UNL     1       5.301  -2.062   1.010  0.00  0.00    -0.265 OA
ATOM     30  H   UNL     1       2.438  -1.138   0.325  0.00  0.00    +0.155 HD
BRANCH  27  35
ATOM     31  C   UNL     1       5.345   3.918   2.469  0.00  0.00    +0.044 C 
ATOM     32  C   UNL     1       4.818   2.595   1.975  0.00  0.00    -0.050 A 
ATOM     33  C   UNL     1       5.660   1.722   1.310  0.00  0.00    +0.005 A 
ATOM     34  C   UNL     1       5.180   0.509   0.856  0.00  0.00    +0.023 A 
ATOM     35  C   UNL     1       3.851   0.166   1.069  0.00  0.00    +0.034 A 
ATOM     36  C   UNL     1       3.008   1.046   1.738  0.00  0.00    +0.023 A 
ATOM     37  C   UNL     1       3.494   2.257   2.188  0.00  0.00    +0.005 A 
ENDBRANCH  27  35
ENDBRANCH  23  28
ENDBRANCH  22  25
ENDBRANCH   1  22
TORSDOF 7
