REMARK  Name = ZINC14886896
REMARK  12 active torsions:
REMARK  status: ('A' for Active; 'I' for Inactive)
REMARK    1  A    between atoms: C_1  and  C_2
REMARK    2  A    between atoms: C_6  and  N_8
REMARK    3  A    between atoms: C_9  and  C_11
REMARK    4  A    between atoms: C_11  and  O_12
REMARK    5  A    between atoms: O_12  and  C_13
REMARK    6  A    between atoms: C_16  and  C_28
REMARK    7  A    between atoms: C_18  and  C_19
REMARK    8  A    between atoms: C_19  and  N_65
REMARK    9  A    between atoms: C_20  and  N_65
REMARK   10  A    between atoms: C_21  and  C_22
REMARK   11  A    between atoms: C_21  and  N_65
REMARK   12  A    between atoms: C_23  and  C_27
REMARK                            x       y       z     vdW  Elec       q    Type
REMARK                         _______ _______ _______ _____ _____    ______ ____
ROOT
ATOM      1  C   UNL     1       1.189  -0.708  -0.387  0.00  0.00    +0.123 A 
ATOM      2  C   UNL     1       2.366   0.012  -0.233  0.00  0.00    +0.046 A 
ATOM      3  C   UNL     1       2.340   1.390  -0.247  0.00  0.00    +0.012 A 
ATOM      4  C   UNL     1       1.129   2.061  -0.414  0.00  0.00    -0.017 A 
ATOM      5  C   UNL     1      -0.051   1.336  -0.569  0.00  0.00    +0.013 A 
ATOM      6  C   UNL     1      -0.018  -0.043  -0.555  0.00  0.00    -0.022 A 
ENDROOT
BRANCH   4   7
ATOM      7  C   UNL     1       1.098   3.545  -0.429  0.00  0.00    -0.014 A 
ATOM      8  C   UNL     1      -0.112   4.215  -0.598  0.00  0.00    +0.012 A 
ATOM      9  C   UNL     1      -0.141   5.595  -0.611  0.00  0.00    +0.050 A 
ATOM     10  C   UNL     1       1.032   6.318  -0.456  0.00  0.00    +0.166 A 
ATOM     11  C   UNL     1       2.245   5.652  -0.287  0.00  0.00    +0.167 A 
ATOM     12  C   UNL     1       2.277   4.269  -0.269  0.00  0.00    +0.058 A 
ATOM     13  O   UNL     1       3.238   6.581  -0.159  0.00  0.00    -0.453 OA
ATOM     14  C   UNL     1       2.681   7.811  -0.658  0.00  0.00    +0.466 C 
ATOM     15  O   UNL     1       1.267   7.663  -0.433  0.00  0.00    -0.453 OA
ENDBRANCH   4   7
BRANCH   1  16
ATOM     16  O   UNL     1       1.218  -2.067  -0.373  0.00  0.00    -0.483 OA
BRANCH  16  17
ATOM     17  C   UNL     1       2.493  -2.686  -0.195  0.00  0.00    +0.324 C 
BRANCH  17  19
ATOM     18  N   UNL     1       3.405  -4.981  -0.055  0.00  0.00    -0.283 N 
ATOM     19  C   UNL     1       2.329  -4.184  -0.207  0.00  0.00    +0.255 C 
ATOM     20  O   UNL     1       1.229  -4.673  -0.352  0.00  0.00    -0.272 OA
ATOM     21  H   UNL     1       4.294  -4.594  -0.015  0.00  0.00    +0.155 HD
BRANCH  18  27
ATOM     22  C   UNL     1       5.093  -9.516  -0.926  0.00  0.00    +0.044 C 
ATOM     23  C   UNL     1       4.044  -8.589  -0.369  0.00  0.00    -0.049 A 
ATOM     24  C   UNL     1       2.917  -9.108   0.243  0.00  0.00    +0.003 A 
ATOM     25  C   UNL     1       1.953  -8.260   0.757  0.00  0.00    +0.002 A 
ATOM     26  C   UNL     1       2.115  -6.891   0.664  0.00  0.00    +0.023 A 
ATOM     27  C   UNL     1       3.242  -6.367   0.045  0.00  0.00    +0.034 A 
ATOM     28  C   UNL     1       4.208  -7.221  -0.469  0.00  0.00    +0.026 A 
ENDBRANCH  18  27
ENDBRANCH  17  19
ENDBRANCH  16  17
ENDBRANCH   1  16
BRANCH   6  29
ATOM     29  C   UNL     1      -1.293  -0.828  -0.722  0.00  0.00    -0.039 C 
BRANCH  29  31
ATOM     30  C   UNL     1      -0.835  -2.248   1.184  0.00  0.00    -0.095 C 
ATOM     31  N   UNL     1      -1.768  -1.256   0.610  0.00  0.00    +0.384 N 
ATOM     32  H   UNL     1      -1.807  -0.437   1.229  0.00  0.00    -0.081 HD
BRANCH  31  33
ATOM     33  C   UNL     1      -3.122  -1.839   0.501  0.00  0.00    -0.017 C 
BRANCH  33  34
ATOM     34  C   UNL     1      -3.668  -2.063   1.887  0.00  0.00    +0.091 A 
ATOM     35  C   UNL     1      -4.403  -1.121   2.635  0.00  0.00    +0.103 A 
ATOM     36  N   UNL     1      -4.720  -1.635   3.785  0.00  0.00    -0.054 NA
ATOM     37  O   UNL     1      -4.192  -2.951   3.822  0.00  0.00    -0.242 OA
ATOM     38  N   UNL     1      -3.540  -3.156   2.578  0.00  0.00    -0.056 NA
ATOM     39  C   UNL     1      -4.765   0.267   2.172  0.00  0.00    +0.071 C 
ENDBRANCH  33  34
ENDBRANCH  31  33
ENDBRANCH  29  31
ENDBRANCH   6  29
TORSDOF 9
