REMARK  Name = ZINC20557928
REMARK  8 active torsions:
REMARK  status: ('A' for Active; 'I' for Inactive)
REMARK    1  A    between atoms: C_1  and  C_2
REMARK    2  A    between atoms: C_2  and  O_3
REMARK    3  A    between atoms: O_3  and  C_4
REMARK    4  A    between atoms: C_4  and  C_6
REMARK    5  A    between atoms: C_7  and  C_21
REMARK    6  A    between atoms: C_12  and  C_14
REMARK    7  A    between atoms: C_21  and  N_22
REMARK    8  A    between atoms: N_25  and  C_28
REMARK                            x       y       z     vdW  Elec       q    Type
REMARK                         _______ _______ _______ _____ _____    ______ ____
ROOT
ATOM      1  C   UNL     1      -0.700   1.345   1.254  0.00  0.00    +0.079 C 
ATOM      2  C   UNL     1      -1.644   2.309   1.285  0.00  0.00    +0.038 C 
ATOM      3  N   UNL     1      -2.114   2.872   0.133  0.00  0.00    -0.271 N 
ATOM      4  C   UNL     1      -1.689   2.527  -1.089  0.00  0.00    +0.304 C 
ATOM      5  O   UNL     1      -2.167   3.086  -2.057  0.00  0.00    -0.252 OA
ATOM      6  N   UNL     1      -0.749   1.580  -1.281  0.00  0.00    -0.288 N 
ATOM      7  C   UNL     1      -0.178   0.910  -0.101  0.00  0.00    +0.144 C 
ATOM      8  H   UNL     1      -2.884   3.656   0.178  0.00  0.00    +0.156 HD
ATOM      9  H   UNL     1      -0.408   1.304  -2.290  0.00  0.00    +0.151 HD
ENDROOT
BRANCH   7  10
ATOM     10  C   UNL     1       1.312   1.131  -0.117  0.00  0.00    -0.022 A 
ATOM     11  C   UNL     1       1.823   2.379  -0.424  0.00  0.00    +0.008 A 
ATOM     12  C   UNL     1       3.189   2.584  -0.434  0.00  0.00    +0.038 A 
ATOM     13  C   UNL     1       4.048   1.536  -0.148  0.00  0.00    +0.123 A 
ATOM     14  C   UNL     1       3.536   0.285   0.153  0.00  0.00    +0.038 A 
ATOM     15  C   UNL     1       2.169   0.084   0.169  0.00  0.00    +0.008 A 
ATOM     16  F   UNL     1       5.384   1.734  -0.164  0.00  0.00    -0.205 F 
ENDBRANCH   7  10
BRANCH   1  17
ATOM     17  C   UNL     1      -0.214   0.759   2.446  0.00  0.00    +0.339 C 
ATOM     18  O   UNL     1      -0.725   1.041   3.514  0.00  0.00    -0.245 OA
BRANCH  17  19
ATOM     19  O   UNL     1       0.816  -0.111   2.400  0.00  0.00    -0.462 OA
BRANCH  19  21
ATOM     20  C   UNL     1       2.421  -1.621   3.392  0.00  0.00    +0.048 C 
ATOM     21  C   UNL     1       1.255  -0.664   3.643  0.00  0.00    +0.229 C 
ENDBRANCH  19  21
ENDBRANCH  17  19
ENDBRANCH   1  17
BRANCH   2  22
ATOM     22  C   UNL     1      -2.189   2.770   2.611  0.00  0.00    +0.136 C 
BRANCH  22  23
ATOM     23  N   UNL     1      -3.280   1.880   3.029  0.00  0.00    -0.294 NA
ATOM     24  C   UNL     1      -4.431   1.995   2.122  0.00  0.00    +0.103 C 
ATOM     25  C   UNL     1      -5.512   0.997   2.543  0.00  0.00    +0.120 C 
ATOM     26  N   UNL     1      -5.910   1.267   3.932  0.00  0.00    -0.325 N 
ATOM     27  C   UNL     1      -4.759   1.151   4.839  0.00  0.00    +0.120 C 
ATOM     28  C   UNL     1      -3.679   2.150   4.418  0.00  0.00    +0.103 C 
BRANCH  26  29
ATOM     29  C   UNL     1      -6.949   0.419   4.330  0.00  0.00    +0.065 A 
ATOM     30  C   UNL     1      -6.743  -0.953   4.390  0.00  0.00    +0.026 A 
ATOM     31  C   UNL     1      -7.769  -1.787   4.787  0.00  0.00    +0.002 A 
ATOM     32  C   UNL     1      -9.005  -1.260   5.115  0.00  0.00    +0.003 A 
ATOM     33  C   UNL     1      -9.216   0.105   5.052  0.00  0.00    +0.040 A 
ATOM     34  C   UNL     1      -8.192   0.947   4.660  0.00  0.00    +0.144 A 
ATOM     35  F   UNL     1      -8.399   2.281   4.597  0.00  0.00    -0.204 F 
ENDBRANCH  26  29
ENDBRANCH  22  23
ENDBRANCH   2  22
TORSDOF 7
