REMARK  Name = ZINC04490308
REMARK  12 active torsions:
REMARK  status: ('A' for Active; 'I' for Inactive)
REMARK    1  A    between atoms: C_1  and  C_2
REMARK    2  A    between atoms: C_2  and  C_4
REMARK    3  A    between atoms: C_2  and  C_23
REMARK    4  A    between atoms: C_4  and  C_5
REMARK    5  A    between atoms: C_17  and  C_19
REMARK    6  A    between atoms: C_19  and  C_20
REMARK    7  A    between atoms: C_20  and  C_21
REMARK    8  A    between atoms: C_20  and  C_22
REMARK    9  A    between atoms: C_23  and  C_24
REMARK   10  A    between atoms: C_24  and  C_25
REMARK   11  A    between atoms: C_24  and  C_26
REMARK   12  A    between atoms: C_24  and  C_27
REMARK                            x       y       z     vdW  Elec       q    Type
REMARK                         _______ _______ _______ _____ _____    ______ ____
ROOT
ATOM      1  C   UNL     1      -3.332  -0.538  -1.503  0.00  0.00    +0.216 C 
ATOM      2  O   UNL     1      -2.801   0.278  -0.780  0.00  0.00    -0.276 OA
ATOM      3  N   UNL     1      -4.589  -0.951  -1.245  0.00  0.00    -0.301 N 
ATOM      4  C   UNL     1      -5.242  -1.944  -2.109  0.00  0.00    +0.110 C 
ATOM      5  C   UNL     1      -5.730  -3.108  -1.239  0.00  0.00    +0.056 C 
ATOM      6  C   UNL     1      -6.592  -2.569  -0.106  0.00  0.00    +0.086 C 
ATOM      7  C   UNL     1      -5.818  -1.589   0.764  0.00  0.00    +0.056 C 
ATOM      8  C   UNL     1      -5.328  -0.421  -0.091  0.00  0.00    +0.110 C 
ATOM      9  N   UNL     1      -7.825  -1.961  -0.621  0.00  0.00    -0.286 N 
ATOM     10  C   UNL     1      -9.074  -2.506  -0.092  0.00  0.00    +0.120 C 
ATOM     11  C   UNL     1      -8.918  -4.018   0.253  0.00  0.00    +0.090 C 
ATOM     12  S   UNL     1      -7.195  -3.965   0.926  0.00  0.00    -0.133 S 
ATOM     13  C   UNL     1      -7.806  -0.962  -1.526  0.00  0.00    +0.217 C 
ATOM     14  O   UNL     1      -6.761  -0.413  -1.802  0.00  0.00    -0.276 OA
ENDROOT
BRANCH   1  15
ATOM     15  C   UNL     1      -2.586  -1.091  -2.690  0.00  0.00    +0.099 C 
BRANCH  15  17
ATOM     16  C   UNL     1      -1.322   1.038  -3.021  0.00  0.00    +0.008 C 
ATOM     17  C   UNL     1      -1.193  -0.463  -2.755  0.00  0.00    -0.005 C 
BRANCH  17  18
ATOM     18  C   UNL     1      -0.392  -1.114  -3.884  0.00  0.00    +0.010 C 
BRANCH  18  19
ATOM     19  C   UNL     1       1.098  -0.827  -3.683  0.00  0.00    -0.037 C 
ATOM     20  C   UNL     1       1.515  -1.258  -2.276  0.00  0.00    +0.010 C 
ATOM     21  C   UNL     1       1.911  -1.607  -4.718  0.00  0.00    +0.010 C 
ATOM     22  C   UNL     1       1.356   0.671  -3.856  0.00  0.00    +0.010 C 
ENDBRANCH  18  19
ENDBRANCH  17  18
ENDBRANCH  15  17
ENDBRANCH   1  15
BRANCH  13  23
ATOM     23  C   UNL     1      -9.085  -0.527  -2.194  0.00  0.00    +0.099 C 
BRANCH  23  24
ATOM     24  C   UNL     1      -8.789   0.614  -3.169  0.00  0.00    -0.008 C 
ATOM     25  C   UNL     1      -7.895   0.100  -4.299  0.00  0.00    +0.008 C 
ATOM     26  C   UNL     1     -10.101   1.139  -3.754  0.00  0.00    +0.008 C 
ENDBRANCH  23  24
ENDBRANCH  13  23
TORSDOF 6
