REMARK  Name = ZINC30982690
REMARK  4 active torsions:
REMARK  status: ('A' for Active; 'I' for Inactive)
REMARK    1  A    between atoms: C_1  and  C_2
REMARK    2  A    between atoms: C_2  and  C_7
REMARK    3  A    between atoms: C_12  and  C_15
REMARK    4  A    between atoms: C_17  and  C_21
REMARK                            x       y       z     vdW  Elec       q    Type
REMARK                         _______ _______ _______ _____ _____    ______ ____
ROOT
ATOM      1  C   UNL     1      -1.220  -0.667  -0.579  0.00  0.00    +0.227 C 
ATOM      2  O   UNL     1      -1.615  -1.719  -0.121  0.00  0.00    -0.275 OA
ATOM      3  N   UNL     1      -1.874  -0.093  -1.607  0.00  0.00    -0.264 N 
ATOM      4  C   UNL     1      -3.001  -0.704  -2.143  0.00  0.00    +0.165 A 
ATOM      5  N   UNL     1      -3.753  -0.295  -3.140  0.00  0.00    -0.225 NA
ATOM      6  C   UNL     1      -4.806  -0.998  -3.538  0.00  0.00    +0.082 A 
ATOM      7  C   UNL     1      -5.059  -2.157  -2.861  0.00  0.00    +0.077 A 
ATOM      8  S   UNL     1      -3.724  -2.150  -1.675  0.00  0.00    -0.060 S 
ATOM      9  H   UNL     1      -1.558   0.748  -1.974  0.00  0.00    +0.157 HD
ENDROOT
BRANCH   1  11
ATOM     10  C   UNL     1      -0.019   1.526   0.010  0.00  0.00    +0.024 C 
ATOM     11  C   UNL     1       0.002  -0.004   0.002  0.00  0.00    +0.080 C 
ATOM     12  C   UNL     1       1.351  -0.691  -0.218  0.00  0.00    +0.058 C 
ATOM     13  C   UNL     1       0.701  -0.708   1.167  0.00  0.00    +0.133 C 
ATOM     14 CL   UNL     1       1.438   0.330   2.445  0.00  0.00    -0.100 Cl
ATOM     15 CL   UNL     1       0.001  -2.267   1.739  0.00  0.00    -0.100 Cl
ENDBRANCH   1  11
BRANCH   6  16
ATOM     16  C   UNL     1      -5.665  -0.548  -4.662  0.00  0.00    +0.019 A 
ATOM     17  C   UNL     1      -5.436   0.568  -5.490  0.00  0.00    +0.042 A 
ATOM     18  C   UNL     1      -6.462   0.620  -6.391  0.00  0.00    +0.102 A 
ATOM     19  N   UNL     1      -7.309  -0.434  -6.133  0.00  0.00    -0.356 N 
ATOM     20  H   UNL     1      -8.121  -0.639  -6.622  0.00  0.00    +0.165 HD
ATOM     21  C   UNL     1      -6.819  -1.143  -5.086  0.00  0.00    +0.093 A 
BRANCH  18  22
ATOM     22  C   UNL     1      -6.632   1.623  -7.448  0.00  0.00    +0.258 C 
ATOM     23  O   UNL     1      -5.813   2.513  -7.579  0.00  0.00    -0.269 OA
ATOM     24  N   UNL     1      -7.696   1.559  -8.274  0.00  0.00    -0.324 N 
ATOM     25  H   UNL     1      -8.349   0.849  -8.169  0.00  0.00    +0.145 HD
ATOM     26  H   UNL     1      -7.808   2.222  -8.972  0.00  0.00    +0.145 HD
ENDBRANCH  18  22
ENDBRANCH   6  16
TORSDOF 3
