REMARK  Name = ZINC39635088
REMARK  10 active torsions:
REMARK  status: ('A' for Active; 'I' for Inactive)
REMARK    1  A    between atoms: C_1  and  C_2
REMARK    2  A    between atoms: C_2  and  N_3
REMARK    3  A    between atoms: C_4  and  C_10
REMARK    4  A    between atoms: C_6  and  C_8
REMARK    5  A    between atoms: C_14  and  C_23
REMARK    6  A    between atoms: N_25  and  C_26
REMARK    7  A    between atoms: C_26  and  C_27
REMARK    8  A    between atoms: C_27  and  C_28
REMARK    9  A    between atoms: C_31  and  O_34
REMARK   10  A    between atoms: O_34  and  C_35
REMARK                            x       y       z     vdW  Elec       q    Type
REMARK                         _______ _______ _______ _____ _____    ______ ____
ROOT
ATOM      1  C   UNL     1      -1.431  -0.451  -2.905  0.00  0.00    +0.266 C 
ATOM      2  O   UNL     1      -1.782  -0.779  -4.023  0.00  0.00    -0.268 OA
ATOM      3  N   UNL     1      -2.321   0.093  -2.053  0.00  0.00    -0.295 N 
ATOM      4  C   UNL     1      -2.112   0.457  -0.631  0.00  0.00    +0.121 C 
ATOM      5  C   UNL     1      -2.872   1.790  -0.454  0.00  0.00    +0.100 C 
ATOM      6  C   UNL     1      -3.934   1.788  -1.566  0.00  0.00    -0.004 C 
ATOM      7  C   UNL     1      -3.729   0.470  -2.326  0.00  0.00    +0.115 C 
ATOM      8  C   UNL     1      -5.334   1.839  -0.961  0.00  0.00    -0.010 C 
ATOM      9  C   UNL     1      -6.370   1.894  -2.087  0.00  0.00    -0.082 C 
ATOM     10  N   UNL     1      -6.131   3.081  -2.917  0.00  0.00    +0.379 N 
ATOM     11  C   UNL     1      -4.819   2.981  -3.569  0.00  0.00    -0.082 C 
ATOM     12  C   UNL     1      -3.718   2.971  -2.505  0.00  0.00    -0.010 C 
ATOM     13  H   UNL     1      -6.851   3.149  -3.621  0.00  0.00    -0.086 HD
ATOM     14  H   UNL     1      -6.154   3.906  -2.336  0.00  0.00    -0.086 HD
ENDROOT
BRANCH   1  16
ATOM     15  N   UNL     1       0.958   0.289  -2.469  0.00  0.00    -0.258 N 
ATOM     16  C   UNL     1      -0.036  -0.650  -2.485  0.00  0.00    +0.138 A 
ATOM     17  C   UNL     1       0.535  -1.825  -2.025  0.00  0.00    +0.071 A 
ATOM     18  C   UNL     1       1.869  -1.507  -1.755  0.00  0.00    +0.075 A 
ATOM     19  N   UNL     1       2.047  -0.244  -2.046  0.00  0.00    -0.175 NA
ATOM     20  C   UNL     1       2.917  -2.453  -1.229  0.00  0.00    +0.069 C 
ATOM     21 BR   UNL     1      -0.311  -3.502  -1.806  0.00  0.00    -0.046 Br
BRANCH  15  23
ATOM     22  C   UNL     1       0.994   1.799  -4.392  0.00  0.00    +0.029 C 
ATOM     23  C   UNL     1       0.805   1.687  -2.878  0.00  0.00    +0.141 C 
ENDBRANCH  15  23
ENDBRANCH   1  16
BRANCH   5  24
ATOM     24  C   UNL     1      -3.529   1.844   0.901  0.00  0.00    +0.218 C 
ATOM     25  O   UNL     1      -3.836   0.816   1.468  0.00  0.00    -0.275 OA
ATOM     26  N   UNL     1      -3.776   3.034   1.484  0.00  0.00    -0.315 N 
ATOM     27  H   UNL     1      -3.600   3.856   1.001  0.00  0.00    +0.149 HD
BRANCH  26  28
ATOM     28  C   UNL     1      -4.309   3.085   2.848  0.00  0.00    +0.109 C 
BRANCH  28  29
ATOM     29  C   UNL     1      -4.496   4.544   3.268  0.00  0.00    +0.054 C 
BRANCH  29  30
ATOM     30  C   UNL     1      -5.045   4.597   4.670  0.00  0.00    -0.046 A 
ATOM     31  C   UNL     1      -6.412   4.597   4.877  0.00  0.00    +0.007 A 
ATOM     32  C   UNL     1      -6.918   4.646   6.162  0.00  0.00    +0.046 A 
ATOM     33  C   UNL     1      -6.052   4.694   7.245  0.00  0.00    +0.120 A 
ATOM     34  C   UNL     1      -4.681   4.692   7.035  0.00  0.00    +0.046 A 
ATOM     35  C   UNL     1      -4.181   4.638   5.749  0.00  0.00    +0.007 A 
BRANCH  33  36
ATOM     36  O   UNL     1      -6.547   4.742   8.510  0.00  0.00    -0.495 OA
ATOM     37  C   UNL     1      -5.598   4.789   9.577  0.00  0.00    +0.277 C 
ENDBRANCH  33  36
ENDBRANCH  29  30
ENDBRANCH  28  29
ENDBRANCH  26  28
ENDBRANCH   5  24
TORSDOF 7
