REMARK  Name = ZINC29185313
REMARK  9 active torsions:
REMARK  status: ('A' for Active; 'I' for Inactive)
REMARK    1  A    between atoms: C_1  and  N_2
REMARK    2  A    between atoms: N_2  and  C_3
REMARK    3  A    between atoms: N_2  and  C_4
REMARK    4  A    between atoms: C_4  and  C_6
REMARK    5  A    between atoms: C_4  and  C_21
REMARK    6  A    between atoms: C_6  and  N_7
REMARK    7  A    between atoms: N_7  and  C_8
REMARK    8  A    between atoms: C_26  and  O_27
REMARK    9  A    between atoms: O_27  and  C_28
REMARK                            x       y       z     vdW  Elec       q    Type
REMARK                         _______ _______ _______ _____ _____    ______ ____
ROOT
ATOM      1  N   UNL     1      -3.103   3.527  -0.824  0.00  0.00    -0.350 N 
ATOM      2  H   UNL     1      -4.011   2.950  -1.054  0.00  0.00    +0.145 HD
ENDROOT
BRANCH   1   3
ATOM      3  C   UNL     1      -3.205   4.744  -0.230  0.00  0.00    +0.081 C 
ATOM      4  C   UNL     1      -4.443   5.312  -0.029  0.00  0.00    +0.058 C 
ATOM      5  C   UNL     1      -5.579   4.993  -0.919  0.00  0.00    +0.000 A 
ATOM      6  C   UNL     1      -5.447   4.115  -1.989  0.00  0.00    +0.009 A 
ATOM      7  C   UNL     1      -6.538   3.851  -2.792  0.00  0.00    +0.001 A 
ATOM      8  C   UNL     1      -7.762   4.454  -2.539  0.00  0.00    +0.001 A 
ATOM      9  C   UNL     1      -7.912   5.327  -1.484  0.00  0.00    +0.013 A 
ATOM     10  C   UNL     1      -6.822   5.608  -0.660  0.00  0.00    +0.045 A 
ATOM     11  C   UNL     1      -6.939   6.533   0.475  0.00  0.00    +0.251 C 
ATOM     12  O   UNL     1      -8.008   7.066   0.705  0.00  0.00    -0.270 OA
ATOM     13  N   UNL     1      -5.886   6.800   1.264  0.00  0.00    -0.248 N 
ATOM     14  C   UNL     1      -4.676   6.246   1.078  0.00  0.00    +0.252 C 
ATOM     15  O   UNL     1      -3.763   6.526   1.833  0.00  0.00    -0.270 OA
ATOM     16  H   UNL     1      -5.992   7.499   2.107  0.00  0.00    +0.158 HD
ENDBRANCH   1   3
BRANCH   1  17
ATOM     17  C   UNL     1      -1.785   2.982  -1.159  0.00  0.00    +0.090 C 
BRANCH  17  18
ATOM     18  C   UNL     1      -1.133   2.412   0.102  0.00  0.00    -0.018 C 
BRANCH  18  19
ATOM     19  C   UNL     1       0.289   2.019  -0.201  0.00  0.00    -0.018 A 
ATOM     20  C   UNL     1       0.581   0.728  -0.597  0.00  0.00    +0.005 A 
ATOM     21  C   UNL     1       1.885   0.368  -0.880  0.00  0.00    +0.000 A 
ATOM     22  C   UNL     1       2.901   1.299  -0.770  0.00  0.00    +0.004 A 
ATOM     23  C   UNL     1       2.615   2.592  -0.375  0.00  0.00    +0.046 A 
ATOM     24  C   UNL     1       1.307   2.955  -0.089  0.00  0.00    +0.122 A 
BRANCH  24  25
ATOM     25  O   UNL     1       1.023   4.226   0.299  0.00  0.00    -0.495 OA
ATOM     26  C   UNL     1       2.120   5.137   0.392  0.00  0.00    +0.277 C 
ENDBRANCH  24  25
ENDBRANCH  18  19
BRANCH  18  28
ATOM     27  C   UNL     1      -1.332   0.701   1.804  0.00  0.00    -0.096 C 
ATOM     28  N   UNL     1      -1.883   1.230   0.549  0.00  0.00    +0.382 N 
ATOM     29  C   UNL     1      -3.313   1.536   0.690  0.00  0.00    -0.096 C 
ATOM     30  H   UNL     1      -1.778   0.452  -0.221  0.00  0.00    -0.082 HD
ENDBRANCH  18  28
ENDBRANCH  17  18
ENDBRANCH   1  17
TORSDOF 6
