REMARK  Name = ZINC41585564
REMARK  7 active torsions:
REMARK  status: ('A' for Active; 'I' for Inactive)
REMARK    1  A    between atoms: C_1  and  C_2
REMARK    2  A    between atoms: C_6  and  C_7
REMARK    3  A    between atoms: C_12  and  C_33
REMARK    4  A    between atoms: C_14  and  O_32
REMARK    5  A    between atoms: C_15  and  C_18
REMARK    6  A    between atoms: C_18  and  N_19
REMARK    7  A    between atoms: N_22  and  C_25
REMARK                            x       y       z     vdW  Elec       q    Type
REMARK                         _______ _______ _______ _____ _____    ______ ____
ROOT
ATOM      1  C   UNL     1       0.039  -0.311   2.504  0.00  0.00    +0.065 C 
ATOM      2  C   UNL     1       0.051  -1.210   3.530  0.00  0.00    +0.177 C 
ATOM      3  C   UNL     1       0.040  -0.890   4.914  0.00  0.00    +0.232 C 
ATOM      4  O   UNL     1       0.019   0.221   5.418  0.00  0.00    -0.283 OA
ATOM      5  C   UNL     1       0.060  -2.188   5.611  0.00  0.00    +0.071 A 
ATOM      6  C   UNL     1       0.062  -2.557   6.956  0.00  0.00    -0.033 A 
ATOM      7  C   UNL     1       0.084  -3.879   7.299  0.00  0.00    +0.050 A 
ATOM      8  C   UNL     1       0.104  -4.859   6.311  0.00  0.00    +0.122 A 
ATOM      9  C   UNL     1       0.103  -4.508   4.970  0.00  0.00    +0.020 A 
ATOM     10  C   UNL     1       0.080  -3.169   4.606  0.00  0.00    +0.145 A 
ATOM     11  O   UNL     1       0.068  -2.558   3.401  0.00  0.00    -0.451 OA
ATOM     12  C   UNL     1       0.041  -1.498   8.029  0.00  0.00    +0.045 C 
ENDROOT
BRANCH   1  18
ATOM     13  C   UNL     1       0.017   1.481  -0.014  0.00  0.00    +0.045 C 
ATOM     14  C   UNL     1       0.036  -0.026  -0.013  0.00  0.00    -0.036 A 
ATOM     15  C   UNL     1       0.052  -0.758  -1.174  0.00  0.00    +0.011 A 
ATOM     16  C   UNL     1       0.070  -2.113  -1.100  0.00  0.00    +0.046 A 
ATOM     17  S   UNL     1       0.066  -2.438   0.548  0.00  0.00    -0.097 S 
ATOM     18  C   UNL     1       0.046  -0.766   1.167  0.00  0.00    +0.019 A 
ENDBRANCH   1  18
BRANCH   8  19
ATOM     19  O   UNL     1       0.127  -6.170   6.663  0.00  0.00    -0.506 OA
ATOM     20  H   UNL     1      -0.750  -6.566   6.762  0.00  0.00    +0.292 HD
ENDBRANCH   8  19
BRANCH   9  21
ATOM     21  C   UNL     1       0.126  -5.579   3.910  0.00  0.00    -0.035 C 
BRANCH  21  22
ATOM     22  N   UNL     1      -1.251  -5.952   3.561  0.00  0.00    +0.385 N 
ATOM     23  C   UNL     1      -1.903  -6.561   4.727  0.00  0.00    -0.059 C 
ATOM     24  C   UNL     1      -3.372  -6.845   4.400  0.00  0.00    +0.086 C 
ATOM     25  N   UNL     1      -3.428  -7.662   3.178  0.00  0.00    -0.333 N 
ATOM     26  C   UNL     1      -2.666  -7.208   2.005  0.00  0.00    +0.086 C 
ATOM     27  C   UNL     1      -1.230  -6.906   2.445  0.00  0.00    -0.059 C 
ATOM     28  H   UNL     1      -1.763  -5.127   3.286  0.00  0.00    -0.081 HD
BRANCH  25  29
ATOM     29  C   UNL     1      -4.184  -8.838   3.134  0.00  0.00    +0.030 A 
ATOM     30  C   UNL     1      -4.806  -9.309   4.283  0.00  0.00    +0.026 A 
ATOM     31  C   UNL     1      -5.553 -10.470   4.236  0.00  0.00    +0.040 A 
ATOM     32  C   UNL     1      -5.682 -11.164   3.045  0.00  0.00    +0.124 A 
ATOM     33  C   UNL     1      -5.063 -10.696   1.898  0.00  0.00    +0.040 A 
ATOM     34  C   UNL     1      -4.320  -9.532   1.939  0.00  0.00    +0.026 A 
ATOM     35  F   UNL     1      -6.413 -12.299   3.002  0.00  0.00    -0.205 F 
ENDBRANCH  25  29
ENDBRANCH  21  22
ENDBRANCH   9  21
TORSDOF 5
