REMARK  Name = ZINC65965069
REMARK  6 active torsions:
REMARK  status: ('A' for Active; 'I' for Inactive)
REMARK    1  A    between atoms: C_1  and  C_2
REMARK    2  A    between atoms: C_7  and  N_8
REMARK    3  A    between atoms: C_9  and  C_11
REMARK    4  A    between atoms: C_11  and  N_12
REMARK    5  A    between atoms: C_15  and  C_18
REMARK    6  A    between atoms: N_20  and  C_21
REMARK                            x       y       z     vdW  Elec       q    Type
REMARK                         _______ _______ _______ _____ _____    ______ ____
ROOT
ATOM      1  N   UNL     1       0.986   0.635   5.958  0.00  0.00    +0.385 N 
ATOM      2  C   UNL     1       1.451  -0.721   6.271  0.00  0.00    -0.077 C 
ATOM      3  C   UNL     1       2.505  -0.660   7.379  0.00  0.00    -0.006 C 
ATOM      4  C   UNL     1       1.888  -0.028   8.630  0.00  0.00    +0.071 C 
ATOM      5  C   UNL     1       1.341   1.357   8.273  0.00  0.00    -0.006 C 
ATOM      6  C   UNL     1       0.329   1.221   7.132  0.00  0.00    -0.077 C 
ATOM      7  H   UNL     1       1.776   1.207   5.696  0.00  0.00    -0.081 HD
ENDROOT
BRANCH   4   8
ATOM      8  C   UNL     1       2.942   0.106   9.698  0.00  0.00    +0.216 C 
ATOM      9  O   UNL     1       4.076  -0.266   9.482  0.00  0.00    -0.276 OA
ATOM     10  N   UNL     1       2.624   0.641  10.894  0.00  0.00    -0.312 N 
ATOM     11  H   UNL     1       1.717   0.939  11.067  0.00  0.00    +0.149 HD
BRANCH  10  12
ATOM     12  C   UNL     1       3.649   0.772  11.933  0.00  0.00    +0.073 C 
ATOM     13  C   UNL     1       3.755  -0.540  12.713  0.00  0.00    +0.022 C 
ATOM     14  C   UNL     1       4.825  -0.404  13.798  0.00  0.00    +0.002 C 
ATOM     15  C   UNL     1       4.441   0.728  14.754  0.00  0.00    +0.000 C 
ATOM     16  C   UNL     1       4.334   2.040  13.974  0.00  0.00    +0.002 C 
ATOM     17  C   UNL     1       3.264   1.903  12.889  0.00  0.00    +0.022 C 
ENDBRANCH  10  12
ENDBRANCH   4   8
BRANCH   1  18
ATOM     18  C   UNL     1       0.033   0.579   4.842  0.00  0.00    +0.019 C 
BRANCH  18  20
ATOM     19  N   UNL     1       0.056  -0.038   2.447  0.00  0.00    -0.314 N 
ATOM     20  C   UNL     1       0.738   0.093   3.602  0.00  0.00    +0.197 C 
ATOM     21  O   UNL     1       1.919  -0.179   3.644  0.00  0.00    -0.278 OA
ATOM     22  H   UNL     1      -0.888   0.180   2.413  0.00  0.00    +0.149 HD
BRANCH  19  29
ATOM     23  C   UNL     1      -0.019   1.526   0.010  0.00  0.00    +0.009 C 
ATOM     24  C   UNL     1       0.002  -0.004   0.002  0.00  0.00    +0.006 C 
ATOM     25  C   UNL     1      -1.433  -0.534   0.013  0.00  0.00    +0.005 C 
ATOM     26  C   UNL     1      -1.413  -2.063   0.004  0.00  0.00    +0.000 C 
ATOM     27  C   UNL     1      -0.673  -2.570   1.244  0.00  0.00    +0.002 C 
ATOM     28  C   UNL     1       0.763  -2.041   1.233  0.00  0.00    +0.022 C 
ATOM     29  C   UNL     1       0.742  -0.511   1.242  0.00  0.00    +0.076 C 
ENDBRANCH  19  29
ENDBRANCH  18  20
ENDBRANCH   1  18
TORSDOF 5
