REMARK  Name = ZINC39521657
REMARK  10 active torsions:
REMARK  status: ('A' for Active; 'I' for Inactive)
REMARK    1  A    between atoms: C_1  and  C_2
REMARK    2  A    between atoms: C_2  and  C_3
REMARK    3  A    between atoms: C_2  and  S_4
REMARK    4  A    between atoms: S_4  and  C_7
REMARK    5  A    between atoms: C_17  and  S_27
REMARK    6  A    between atoms: N_19  and  C_20
REMARK    7  A    between atoms: C_25  and  O_26
REMARK    8  A    between atoms: S_27  and  C_30
REMARK    9  A    between atoms: C_30  and  C_31
REMARK   10  A    between atoms: C_30  and  C_32
REMARK                            x       y       z     vdW  Elec       q    Type
REMARK                         _______ _______ _______ _____ _____    ______ ____
ROOT
ATOM      1  C   UNL     1      -2.419   0.922  -1.784  0.00  0.00    +0.133 C 
ATOM      2  C   UNL     1      -2.309   2.448  -1.748  0.00  0.00    +0.026 C 
ATOM      3  C   UNL     1      -3.209   3.050  -2.830  0.00  0.00    +0.004 C 
ATOM      4  C   UNL     1      -4.660   2.637  -2.574  0.00  0.00    +0.026 C 
ATOM      5  C   UNL     1      -4.770   1.113  -2.605  0.00  0.00    +0.039 C 
ATOM      6  C   UNL     1      -3.869   0.509  -1.527  0.00  0.00    +0.052 C 
ATOM      7  C   UNL     1      -4.341   0.595  -3.981  0.00  0.00    +0.026 C 
ATOM      8  C   UNL     1      -4.587  -0.914  -4.052  0.00  0.00    +0.006 C 
ATOM      9  C   UNL     1      -6.079  -1.199  -3.869  0.00  0.00    +0.046 C 
ATOM     10  C   UNL     1      -6.526  -0.702  -2.490  0.00  0.00    +0.217 C 
ATOM     11  N   UNL     1      -6.162   0.716  -2.359  0.00  0.00    -0.300 N 
ENDROOT
BRANCH  11  12
ATOM     12  C   UNL     1      -7.124   1.670  -2.006  0.00  0.00    +0.074 A 
ATOM     13  C   UNL     1      -7.810   2.363  -2.992  0.00  0.00    +0.027 A 
ATOM     14  C   UNL     1      -8.760   3.304  -2.641  0.00  0.00    +0.002 A 
ATOM     15  C   UNL     1      -9.028   3.556  -1.308  0.00  0.00    +0.004 A 
ATOM     16  C   UNL     1      -8.349   2.868  -0.320  0.00  0.00    +0.047 A 
ATOM     17  C   UNL     1      -7.399   1.920  -0.663  0.00  0.00    +0.138 A 
BRANCH  17  18
ATOM     18  O   UNL     1      -6.733   1.239   0.308  0.00  0.00    -0.505 OA
ATOM     19  H   UNL     1      -5.917   1.668   0.600  0.00  0.00    +0.292 HD
ENDBRANCH  17  18
ENDBRANCH  11  12
BRANCH   1  20
ATOM     20  S   UNL     1      -1.351   0.209  -0.503  0.00  0.00    -0.026 S 
ATOM     21  O   UNL     1      -1.878   0.560   0.768  0.00  0.00    -0.174 OA
ATOM     22  O   UNL     1      -0.002   0.538  -0.807  0.00  0.00    -0.174 OA
BRANCH  20  24
ATOM     23  C   UNL     1      -1.095  -1.965  -2.144  0.00  0.00    +0.031 C 
ATOM     24  C   UNL     1      -1.573  -1.576  -0.744  0.00  0.00    +0.125 C 
ATOM     25  C   UNL     1      -0.759  -2.337   0.304  0.00  0.00    +0.031 C 
ENDBRANCH  20  24
ENDBRANCH   1  20
BRANCH  10  26
ATOM     26  S   UNL     1      -8.323  -0.890  -2.329  0.00  0.00    -0.010 S 
ATOM     27  O   UNL     1      -8.943   0.299  -2.797  0.00  0.00    -0.172 OA
ATOM     28  O   UNL     1      -8.697  -2.136  -2.900  0.00  0.00    -0.172 OA
BRANCH  26  29
ATOM     29  C   UNL     1      -8.555  -0.989  -0.532  0.00  0.00    +0.126 C 
ATOM     30  C   UNL     1     -10.030  -1.252  -0.223  0.00  0.00    +0.031 C 
ATOM     31  C   UNL     1      -7.705  -2.130   0.030  0.00  0.00    +0.031 C 
ENDBRANCH  26  29
ENDBRANCH  10  26
TORSDOF 6
