REMARK  Name = ZINC32580946
REMARK  1 active torsions:
REMARK  status: ('A' for Active; 'I' for Inactive)
REMARK    1  A    between atoms: C_15  and  C_18
REMARK                            x       y       z     vdW  Elec       q    Type
REMARK                         _______ _______ _______ _____ _____    ______ ____
ROOT
ATOM      1  C   UNL     1      -3.666   3.217  -6.691  0.00  0.00    +0.022 A 
ATOM      2  C   UNL     1      -2.761   3.046  -5.676  0.00  0.00    +0.030 A 
ATOM      3  C   UNL     1      -3.118   2.349  -4.500  0.00  0.00    +0.080 A 
ATOM      4  C   UNL     1      -4.440   1.854  -4.443  0.00  0.00    +0.042 A 
ATOM      5  C   UNL     1      -5.341   2.030  -5.463  0.00  0.00    +0.037 A 
ATOM      6  C   UNL     1      -4.958   2.717  -6.602  0.00  0.00    +0.042 A 
ATOM      7 CL   UNL     1      -6.081   2.952  -7.905  0.00  0.00    -0.084 Cl
ATOM      8  S   UNL     1      -4.483   1.067  -2.851  0.00  0.00    -0.052 S 
ATOM      9  C   UNL     1      -2.799   1.432  -2.375  0.00  0.00    +0.162 A 
ATOM     10  N   UNL     1      -2.352   2.100  -3.414  0.00  0.00    -0.225 NA
ATOM     11  N   UNL     1      -2.139   1.101  -1.209  0.00  0.00    -0.309 N 
ATOM     12  C   UNL     1      -2.862   1.602  -0.033  0.00  0.00    +0.107 C 
ATOM     13  C   UNL     1      -2.183   1.095   1.240  0.00  0.00    +0.020 C 
ATOM     14  C   UNL     1      -0.731   1.580   1.267  0.00  0.00    +0.013 C 
ATOM     15  C   UNL     1      -0.013   1.086   0.008  0.00  0.00    +0.055 C 
ATOM     16  C   UNL     1      -0.754   1.594  -1.231  0.00  0.00    +0.116 C 
ENDROOT
BRANCH  15  17
ATOM     17  C   UNL     1       1.401   1.608  -0.003  0.00  0.00    +0.053 A 
ATOM     18  C   UNL     1       2.449   0.739  -0.012  0.00  0.00    +0.093 A 
ATOM     19  C   UNL     1       3.759   1.261  -0.027  0.00  0.00    +0.252 A 
ATOM     20  O   UNL     1       4.726   0.517  -0.040  0.00  0.00    -0.268 OA
ATOM     21  N   UNL     1       3.920   2.602  -0.021  0.00  0.00    -0.313 N 
ATOM     22  H   UNL     1       4.931   3.034  -0.028  0.00  0.00    +0.170 HD
ATOM     23  C   UNL     1       2.841   3.408  -0.006  0.00  0.00    +0.199 A 
ATOM     24  N   UNL     1       1.627   2.924   0.002  0.00  0.00    -0.242 NA
ENDBRANCH  15  17
TORSDOF 1
