REMARK  Name = ZINC19783383
REMARK  3 active torsions:
REMARK  status: ('A' for Active; 'I' for Inactive)
REMARK    1  A    between atoms: C_3  and  S_6
REMARK    2  A    between atoms: S_6  and  N_9
REMARK    3  A    between atoms: C_13  and  C_16
REMARK                            x       y       z     vdW  Elec       q    Type
REMARK                         _______ _______ _______ _____ _____    ______ ____
ROOT
ATOM      1  S   UNL     1      -2.835   0.324   2.441  0.00  0.00    +0.067 S 
ATOM      2  O   UNL     1      -3.936  -0.382   1.885  0.00  0.00    -0.152 OA
ATOM      3  O   UNL     1      -1.776  -0.332   3.126  0.00  0.00    -0.152 OA
ENDROOT
BRANCH   1   4
ATOM      4  N   UNL     1      -2.141   1.172   1.199  0.00  0.00    -0.176 NA
ATOM      5  C   UNL     1      -2.923   1.530   0.008  0.00  0.00    +0.109 C 
ATOM      6  C   UNL     1      -2.180   1.036  -1.237  0.00  0.00    +0.017 C 
ATOM      7  C   UNL     1      -0.754   1.593  -1.231  0.00  0.00    +0.007 C 
ATOM      8  C   UNL     1      -0.013   1.086   0.008  0.00  0.00    +0.019 C 
ATOM      9  C   UNL     1      -0.731   1.581   1.267  0.00  0.00    +0.114 C 
BRANCH   8  10
ATOM     10  C   UNL     1       1.422   1.616  -0.003  0.00  0.00    +0.113 C 
ATOM     11 CL   UNL     1       2.337   0.902   1.377  0.00  0.00    -0.125 Cl
ENDBRANCH   8  10
ENDBRANCH   1   4
BRANCH   1  14
ATOM     12  C   UNL     1      -5.058   2.968   4.573  0.00  0.00    +0.010 A 
ATOM     13  C   UNL     1      -4.746   2.053   3.584  0.00  0.00    +0.036 A 
ATOM     14  C   UNL     1      -3.507   1.503   3.564  0.00  0.00    +0.143 A 
ATOM     15  S   UNL     1      -2.737   2.277   4.977  0.00  0.00    -0.077 S 
ATOM     16  C   UNL     1      -4.115   3.288   5.493  0.00  0.00    +0.047 A 
ENDBRANCH   1  14
TORSDOF 3
