REMARK  Name = ZINC45330475
REMARK  5 active torsions:
REMARK  status: ('A' for Active; 'I' for Inactive)
REMARK    1  A    between atoms: C_1  and  C_2
REMARK    2  A    between atoms: C_3  and  C_12
REMARK    3  A    between atoms: N_13  and  N_14
REMARK    4  A    between atoms: C_15  and  C_17
REMARK    5  A    between atoms: C_19  and  N_25
REMARK                            x       y       z     vdW  Elec       q    Type
REMARK                         _______ _______ _______ _____ _____    ______ ____
ROOT
ATOM      1  N   UNL     1      -0.037   1.400  -4.100  0.00  0.00    -0.202 N 
ATOM      2  C   UNL     1      -0.056   2.721  -4.370  0.00  0.00    +0.283 C 
ATOM      3  O   UNL     1      -0.062   3.527  -3.460  0.00  0.00    -0.267 OA
ATOM      4  H   UNL     1      -0.032   0.757  -4.826  0.00  0.00    +0.178 HD
ENDROOT
BRANCH   2   5
ATOM      5  C   UNL     1      -0.069   3.189  -5.773  0.00  0.00    +0.149 A 
ATOM      6  C   UNL     1      -0.083   4.554  -6.045  0.00  0.00    +0.094 A 
ATOM      7  C   UNL     1      -0.095   4.979  -7.373  0.00  0.00    +0.067 A 
ATOM      8  C   UNL     1      -0.092   4.012  -8.378  0.00  0.00    +0.100 A 
ATOM      9  C   UNL     1      -0.078   2.672  -8.027  0.00  0.00    +0.150 A 
ATOM     10  N   UNL     1      -0.062   2.302  -6.763  0.00  0.00    -0.228 NA
ATOM     11 CL   UNL     1      -0.075   1.462  -9.272  0.00  0.00    -0.060 Cl
ATOM     12 CL   UNL     1      -0.107   4.482 -10.049  0.00  0.00    -0.078 Cl
ATOM     13 CL   UNL     1      -0.086   5.710  -4.750  0.00  0.00    -0.079 Cl
BRANCH   7  14
ATOM     14  N   UNL     1      -0.110   6.336  -7.689  0.00  0.00    -0.356 N 
ATOM     15  H   UNL     1      -0.111   6.999  -6.981  0.00  0.00    +0.142 HD
ATOM     16  H   UNL     1      -0.118   6.618  -8.617  0.00  0.00    +0.142 HD
ENDBRANCH   7  14
ENDBRANCH   2   5
BRANCH   1  18
ATOM     17  C   UNL     1      -0.006  -0.316  -2.511  0.00  0.00    +0.140 C 
ATOM     18  N   UNL     1      -0.024   0.957  -2.771  0.00  0.00    -0.187 NA
BRANCH  17  21
ATOM     19  C   UNL     1      -0.018   1.503   0.010  0.00  0.00    +0.064 C 
ATOM     20  C   UNL     1       0.002  -0.004   0.002  0.00  0.00    +0.023 A 
ATOM     21  C   UNL     1       0.007  -0.781  -1.115  0.00  0.00    +0.023 A 
ATOM     22  C   UNL     1       0.029  -2.181  -0.653  0.00  0.00    +0.009 A 
ATOM     23  C   UNL     1       0.042  -3.413  -1.303  0.00  0.00    +0.010 A 
ATOM     24  C   UNL     1       0.061  -4.574  -0.562  0.00  0.00    +0.001 A 
ATOM     25  C   UNL     1       0.067  -4.521   0.824  0.00  0.00    +0.002 A 
ATOM     26  C   UNL     1       0.054  -3.310   1.480  0.00  0.00    +0.026 A 
ATOM     27  C   UNL     1       0.034  -2.125   0.750  0.00  0.00    +0.047 A 
ATOM     28  N   UNL     1       0.024  -0.795   1.112  0.00  0.00    -0.358 N 
ATOM     29  H   UNL     1       0.029  -0.468   2.025  0.00  0.00    +0.166 HD
ENDBRANCH  17  21
ENDBRANCH   1  18
TORSDOF 4
