REMARK  Name = ZINC36571301
REMARK  12 active torsions:
REMARK  status: ('A' for Active; 'I' for Inactive)
REMARK    1  A    between atoms: C_1  and  C_2
REMARK    2  A    between atoms: C_2  and  C_3
REMARK    3  A    between atoms: C_3  and  N_4
REMARK    4  A    between atoms: N_4  and  C_5
REMARK    5  A    between atoms: C_5  and  C_7
REMARK    6  A    between atoms: C_5  and  C_16
REMARK    7  A    between atoms: C_7  and  C_9
REMARK    8  A    between atoms: C_7  and  C_10
REMARK    9  A    between atoms: N_18  and  C_19
REMARK   10  A    between atoms: C_25  and  C_27
REMARK   11  A    between atoms: C_31  and  O_34
REMARK   12  A    between atoms: C_32  and  O_33
REMARK                            x       y       z     vdW  Elec       q    Type
REMARK                         _______ _______ _______ _____ _____    ______ ____
ROOT
ATOM      1  C   UNL     1      -0.538  -2.582  -1.888  0.00  0.00    +0.169 C 
ENDROOT
BRANCH   1   2
ATOM      2  C   UNL     1      -1.792  -2.042  -1.250  0.00  0.00    +0.234 C 
ATOM      3  O   UNL     1      -1.720  -1.162  -0.418  0.00  0.00    -0.274 OA
ATOM      4  N   UNL     1      -2.995  -2.537  -1.604  0.00  0.00    -0.311 N 
ATOM      5  H   UNL     1      -3.054  -3.241  -2.269  0.00  0.00    +0.149 HD
BRANCH   4   6
ATOM      6  C   UNL     1      -4.214  -2.012  -0.984  0.00  0.00    +0.073 C 
ATOM      7  C   UNL     1      -4.468  -2.739   0.339  0.00  0.00    +0.022 C 
ATOM      8  C   UNL     1      -5.741  -2.191   0.986  0.00  0.00    +0.002 C 
ATOM      9  C   UNL     1      -6.928  -2.413   0.046  0.00  0.00    +0.000 C 
ATOM     10  C   UNL     1      -6.674  -1.686  -1.276  0.00  0.00    +0.002 C 
ATOM     11  C   UNL     1      -5.401  -2.235  -1.924  0.00  0.00    +0.022 C 
ENDBRANCH   4   6
ENDBRANCH   1   2
BRANCH   1  12
ATOM     12  N   UNL     1       0.581  -2.451  -0.952  0.00  0.00    -0.285 N 
ATOM     13  C   UNL     1       1.199  -3.553  -0.482  0.00  0.00    +0.251 C 
ATOM     14  O   UNL     1       2.185  -3.443   0.221  0.00  0.00    -0.270 OA
BRANCH  13  15
ATOM     15  C   UNL     1       0.680  -4.891  -0.821  0.00  0.00    +0.082 A 
ATOM     16  C   UNL     1      -0.669  -5.195  -0.613  0.00  0.00    +0.017 A 
ATOM     17  C   UNL     1      -1.151  -6.446  -0.931  0.00  0.00    +0.005 A 
ATOM     18  C   UNL     1      -0.305  -7.408  -1.457  0.00  0.00    +0.049 A 
ATOM     19  C   UNL     1       1.033  -7.123  -1.668  0.00  0.00    +0.159 A 
ATOM     20  C   UNL     1       1.533  -5.862  -1.357  0.00  0.00    +0.171 A 
BRANCH  20  21
ATOM     21  O   UNL     1       2.843  -5.577  -1.569  0.00  0.00    -0.503 OA
ATOM     22  H   UNL     1       3.416  -5.775  -0.815  0.00  0.00    +0.292 HD
ENDBRANCH  20  21
BRANCH  19  23
ATOM     23  O   UNL     1       1.857  -8.073  -2.185  0.00  0.00    -0.503 OA
ATOM     24  H   UNL     1       1.907  -8.068  -3.151  0.00  0.00    +0.292 HD
ENDBRANCH  19  23
ENDBRANCH  13  15
BRANCH  12  25
ATOM     25  C   UNL     1       1.028  -1.123  -0.526  0.00  0.00    +0.108 C 
BRANCH  25  27
ATOM     26  C   UNL     1       2.744   0.658  -0.884  0.00  0.00    +0.005 C 
ATOM     27  C   UNL     1       2.193  -0.670  -1.408  0.00  0.00    +0.016 C 
ENDBRANCH  25  27
ENDBRANCH  12  25
ENDBRANCH   1  12
BRANCH   1  28
ATOM     28  C   UNL     1      -0.233  -1.792  -3.162  0.00  0.00    +0.045 C 
ATOM     29  C   UNL     1       1.040  -2.340  -3.809  0.00  0.00    +0.015 C 
BRANCH  28  30
ATOM     30  C   UNL     1      -1.384  -1.927  -4.125  0.00  0.00    -0.042 A 
ATOM     31  C   UNL     1      -1.760  -3.176  -4.583  0.00  0.00    +0.004 A 
ATOM     32  C   UNL     1      -2.816  -3.300  -5.466  0.00  0.00    +0.000 A 
ATOM     33  C   UNL     1      -3.497  -2.174  -5.891  0.00  0.00    +0.000 A 
ATOM     34  C   UNL     1      -3.122  -0.925  -5.432  0.00  0.00    +0.000 A 
ATOM     35  C   UNL     1      -2.069  -0.802  -4.545  0.00  0.00    +0.004 A 
ENDBRANCH  28  30
ENDBRANCH   1  28
TORSDOF 10
