REMARK  Name = ZINC10211626
REMARK  11 active torsions:
REMARK  status: ('A' for Active; 'I' for Inactive)
REMARK    1  A    between atoms: C_1  and  C_2
REMARK    2  A    between atoms: C_6  and  N_9
REMARK    3  A    between atoms: C_7  and  C_8
REMARK    4  A    between atoms: C_19  and  S_20
REMARK    5  A    between atoms: S_20  and  C_21
REMARK    6  A    between atoms: C_21  and  C_23
REMARK    7  A    between atoms: C_21  and  C_24
REMARK    8  A    between atoms: C_24  and  C_26
REMARK    9  A    between atoms: C_27  and  N_36
REMARK   10  A    between atoms: N_28  and  C_35
REMARK   11  A    between atoms: N_31  and  C_34
REMARK                            x       y       z     vdW  Elec       q    Type
REMARK                         _______ _______ _______ _____ _____    ______ ____
ROOT
ATOM      1  N   UNL     1       2.260   1.541  -0.071  0.00  0.00    -0.255 N 
ATOM      2  C   UNL     1       2.872   1.426   1.130  0.00  0.00    +0.267 A 
ATOM      3  O   UNL     1       2.308   1.748   2.159  0.00  0.00    -0.267 OA
ATOM      4  C   UNL     1       4.241   0.894   1.147  0.00  0.00    +0.065 A 
ATOM      5  C   UNL     1       4.955   0.734   2.334  0.00  0.00    +0.015 A 
ATOM      6  C   UNL     1       6.229   0.240   2.292  0.00  0.00    +0.001 A 
ATOM      7  C   UNL     1       6.819  -0.103   1.082  0.00  0.00    +0.002 A 
ATOM      8  C   UNL     1       6.142   0.044  -0.096  0.00  0.00    +0.028 A 
ATOM      9  C   UNL     1       4.838   0.547  -0.087  0.00  0.00    +0.079 A 
ATOM     10  N   UNL     1       4.132   0.709  -1.230  0.00  0.00    -0.223 NA
ATOM     11  C   UNL     1       2.910   1.181  -1.220  0.00  0.00    +0.177 A 
ENDROOT
BRANCH   1  17
ATOM     12  C   UNL     1      -0.797   5.369  -0.502  0.00  0.00    +0.044 C 
ATOM     13  C   UNL     1      -0.558   3.889  -0.349  0.00  0.00    -0.046 A 
ATOM     14  C   UNL     1      -1.631   3.020  -0.276  0.00  0.00    +0.004 A 
ATOM     15  C   UNL     1      -1.416   1.661  -0.140  0.00  0.00    +0.002 A 
ATOM     16  C   UNL     1      -0.128   1.168  -0.067  0.00  0.00    +0.026 A 
ATOM     17  C   UNL     1       0.952   2.038  -0.140  0.00  0.00    +0.055 A 
ATOM     18  C   UNL     1       0.732   3.402  -0.281  0.00  0.00    -0.024 A 
ATOM     19  C   UNL     1       1.901   4.350  -0.360  0.00  0.00    +0.046 C 
ENDBRANCH   1  17
BRANCH  11  20
ATOM     20  S   UNL     1       2.064   1.359  -2.755  0.00  0.00    -0.076 S 
BRANCH  20  21
ATOM     21  C   UNL     1       3.341   0.758  -3.889  0.00  0.00    +0.122 C 
ATOM     22  C   UNL     1       3.606  -0.724  -3.619  0.00  0.00    +0.028 C 
BRANCH  21  23
ATOM     23  C   UNL     1       2.874   0.935  -5.310  0.00  0.00    +0.185 C 
ATOM     24  O   UNL     1       1.686   0.975  -5.559  0.00  0.00    -0.291 OA
BRANCH  23  25
ATOM     25  C   UNL     1       3.817   1.053  -6.354  0.00  0.00    +0.121 A 
ATOM     26  C   UNL     1       3.412   1.338  -7.669  0.00  0.00    +0.116 A 
ATOM     27  N   UNL     1       4.362   1.442  -8.645  0.00  0.00    -0.284 N 
ATOM     28  C   UNL     1       5.665   1.280  -8.370  0.00  0.00    +0.333 A 
ATOM     29  O   UNL     1       6.471   1.383  -9.273  0.00  0.00    -0.246 OA
ATOM     30  N   UNL     1       6.112   1.006  -7.133  0.00  0.00    -0.263 N 
ATOM     31  C   UNL     1       5.254   0.889  -6.098  0.00  0.00    +0.269 A 
ATOM     32  O   UNL     1       5.662   0.647  -4.977  0.00  0.00    -0.267 OA
ATOM     33  C   UNL     1       7.549   0.840  -6.903  0.00  0.00    +0.157 C 
ATOM     34  C   UNL     1       3.950   1.739 -10.019  0.00  0.00    +0.155 C 
BRANCH  26  35
ATOM     35  N   UNL     1       2.095   1.505  -7.966  0.00  0.00    -0.344 N 
ATOM     36  H   UNL     1       1.835   2.023  -8.744  0.00  0.00    +0.144 HD
ATOM     37  H   UNL     1       1.415   1.108  -7.399  0.00  0.00    +0.144 HD
ENDBRANCH  26  35
ENDBRANCH  23  25
ENDBRANCH  21  23
ENDBRANCH  20  21
ENDBRANCH  11  20
TORSDOF 6
