REMARK  Name = ZINC19770189
REMARK  8 active torsions:
REMARK  status: ('A' for Active; 'I' for Inactive)
REMARK    1  A    between atoms: C_1  and  C_2
REMARK    2  A    between atoms: C_3  and  C_30
REMARK    3  A    between atoms: C_4  and  C_21
REMARK    4  A    between atoms: C_10  and  C_15
REMARK    5  A    between atoms: C_30  and  O_32
REMARK    6  A    between atoms: O_32  and  C_33
REMARK    7  A    between atoms: C_33  and  C_34
REMARK    8  A    between atoms: C_34  and  C_35
REMARK                            x       y       z     vdW  Elec       q    Type
REMARK                         _______ _______ _______ _____ _____    ______ ____
ROOT
ATOM      1  C   UNL     1       1.653  -1.747  -3.363  0.00  0.00    +0.061 C 
ATOM      2  C   UNL     1       1.161  -2.599  -2.221  0.00  0.00    +0.016 C 
ATOM      3  C   UNL     1       0.867  -2.028  -1.040  0.00  0.00    +0.065 C 
ATOM      4  C   UNL     1       0.363  -2.843   0.114  0.00  0.00    +0.092 C 
ATOM      5  C   UNL     1       0.660  -4.308  -0.087  0.00  0.00    +0.024 C 
ATOM      6  C   UNL     1       0.964  -4.787  -1.311  0.00  0.00    +0.016 C 
ATOM      7  N   UNL     1       1.023  -3.948  -2.392  0.00  0.00    -0.321 N 
ATOM      8  C   UNL     1       1.250  -6.254  -1.522  0.00  0.00    +0.059 C 
ATOM      9  C   UNL     1       1.877  -6.842  -0.257  0.00  0.00    +0.032 C 
ATOM     10  C   UNL     1       0.910  -6.625   0.912  0.00  0.00    +0.088 C 
ATOM     11  C   UNL     1       0.612  -5.155   1.034  0.00  0.00    +0.162 C 
ATOM     12  O   UNL     1       0.326  -4.693   2.120  0.00  0.00    -0.292 OA
ATOM     13  H   UNL     1       0.957  -4.371  -3.405  0.00  0.00    +0.152 HD
ENDROOT
BRANCH   4  14
ATOM     14  C   UNL     1      -1.127  -2.653   0.241  0.00  0.00    -0.032 A 
ATOM     15  C   UNL     1      -1.958  -2.995  -0.810  0.00  0.00    +0.008 A 
ATOM     16  C   UNL     1      -3.325  -2.827  -0.696  0.00  0.00    +0.050 A 
ATOM     17  C   UNL     1      -3.866  -2.305   0.468  0.00  0.00    +0.166 A 
ATOM     18  C   UNL     1      -3.028  -1.956   1.525  0.00  0.00    +0.167 A 
ATOM     19  C   UNL     1      -1.659  -2.132   1.406  0.00  0.00    +0.054 A 
ATOM     20  O   UNL     1      -3.793  -1.471   2.546  0.00  0.00    -0.453 OA
ATOM     21  C   UNL     1      -5.136  -1.907   2.261  0.00  0.00    +0.466 C 
ATOM     22  O   UNL     1      -5.155  -2.039   0.827  0.00  0.00    -0.453 OA
ENDBRANCH   4  14
BRANCH   9  23
ATOM     23  C   UNL     1       2.115  -8.318  -0.449  0.00  0.00    -0.044 A 
ATOM     24  C   UNL     1       1.052  -9.162  -0.710  0.00  0.00    +0.004 A 
ATOM     25  C   UNL     1       1.270 -10.514  -0.890  0.00  0.00    +0.000 A 
ATOM     26  C   UNL     1       2.552 -11.025  -0.801  0.00  0.00    +0.000 A 
ATOM     27  C   UNL     1       3.615 -10.182  -0.536  0.00  0.00    +0.000 A 
ATOM     28  C   UNL     1       3.397  -8.829  -0.360  0.00  0.00    +0.004 A 
ENDBRANCH   9  23
BRANCH   3  29
ATOM     29  C   UNL     1       1.029  -0.631  -0.885  0.00  0.00    +0.338 C 
ATOM     30  O   UNL     1       1.546   0.023  -1.772  0.00  0.00    -0.245 OA
BRANCH  29  31
ATOM     31  O   UNL     1       0.611  -0.025   0.245  0.00  0.00    -0.461 OA
BRANCH  31  32
ATOM     32  C   UNL     1       0.807   1.388   0.334  0.00  0.00    +0.237 C 
BRANCH  32  33
ATOM     33  C   UNL     1       0.274   1.893   1.676  0.00  0.00    +0.076 C 
BRANCH  33  34
ATOM     34  C   UNL     1       0.481   3.383   1.770  0.00  0.00    -0.044 A 
ATOM     35  C   UNL     1       1.648   3.887   2.312  0.00  0.00    +0.004 A 
ATOM     36  C   UNL     1       1.839   5.253   2.394  0.00  0.00    +0.000 A 
ATOM     37  C   UNL     1       0.860   6.117   1.942  0.00  0.00    +0.000 A 
ATOM     38  C   UNL     1      -0.310   5.613   1.404  0.00  0.00    +0.000 A 
ATOM     39  C   UNL     1      -0.500   4.247   1.318  0.00  0.00    +0.004 A 
ENDBRANCH  33  34
ENDBRANCH  32  33
ENDBRANCH  31  32
ENDBRANCH  29  31
ENDBRANCH   3  29
TORSDOF 7
