REMARK  Name = ZINC38687044
REMARK  10 active torsions:
REMARK  status: ('A' for Active; 'I' for Inactive)
REMARK    1  A    between atoms: C_1  and  C_2
REMARK    2  A    between atoms: C_9  and  C_12
REMARK    3  A    between atoms: C_12  and  O_14
REMARK    4  A    between atoms: O_14  and  C_15
REMARK    5  A    between atoms: C_22  and  N_37
REMARK    6  A    between atoms: C_23  and  C_35
REMARK    7  A    between atoms: C_24  and  C_26
REMARK    8  A    between atoms: C_29  and  C_32
REMARK    9  A    between atoms: C_32  and  C_33
REMARK   10  A    between atoms: C_32  and  C_34
REMARK                            x       y       z     vdW  Elec       q    Type
REMARK                         _______ _______ _______ _____ _____    ______ ____
ROOT
ATOM      1  C   UNL     1       0.157  -7.897   3.200  0.00  0.00    +0.135 A 
ATOM      2  C   UNL     1       0.241  -8.755   2.112  0.00  0.00    +0.047 A 
ATOM      3  C   UNL     1       0.295 -10.120   2.313  0.00  0.00    +0.012 A 
ATOM      4  C   UNL     1       0.265 -10.638   3.595  0.00  0.00    +0.008 A 
ATOM      5  C   UNL     1       0.181  -9.786   4.685  0.00  0.00    +0.138 A 
ATOM      6  C   UNL     1       0.133  -8.412   4.486  0.00  0.00    +0.093 A 
ATOM      7  O   UNL     1       0.150 -10.275   5.950  0.00  0.00    -0.441 OA
ATOM      8  C   UNL     1       0.579 -11.524   6.196  0.00  0.00    +0.199 C 
ATOM      9  C   UNL     1       0.684 -12.452   5.215  0.00  0.00    +0.098 C 
ATOM     10  C   UNL     1       0.324 -12.130   3.792  0.00  0.00    +0.098 C 
ENDROOT
BRANCH  10  11
ATOM     11  C   UNL     1      -1.021 -12.729   3.470  0.00  0.00    -0.035 A 
ATOM     12  C   UNL     1      -2.141 -12.336   4.179  0.00  0.00    +0.005 A 
ATOM     13  C   UNL     1      -3.374 -12.885   3.884  0.00  0.00    +0.004 A 
ATOM     14  C   UNL     1      -3.488 -13.828   2.879  0.00  0.00    -0.045 A 
ATOM     15  C   UNL     1      -2.368 -14.221   2.170  0.00  0.00    +0.004 A 
ATOM     16  C   UNL     1      -1.136 -13.668   2.462  0.00  0.00    +0.005 A 
BRANCH  14  17
ATOM     17  C   UNL     1      -4.832 -14.428   2.558  0.00  0.00    +0.013 C 
ATOM     18  C   UNL     1      -5.192 -14.124   1.102  0.00  0.00    +0.012 C 
ATOM     19  C   UNL     1      -4.777 -15.943   2.763  0.00  0.00    +0.012 C 
ENDBRANCH  14  17
ENDBRANCH  10  11
BRANCH   8  20
ATOM     20  N   UNL     1       0.920 -11.870   7.479  0.00  0.00    -0.328 N 
ATOM     21  H   UNL     1       0.850 -11.216   8.193  0.00  0.00    +0.145 HD
ATOM     22  H   UNL     1       1.232 -12.768   7.673  0.00  0.00    +0.145 HD
ENDBRANCH   8  20
BRANCH   9  23
ATOM     23  C   UNL     1       1.149 -13.767   5.541  0.00  0.00    +0.101 C 
ATOM     24  N   UNL     1       1.517 -14.810   5.799  0.00  0.00    -0.191 NA
ENDBRANCH   9  23
BRANCH   1  25
ATOM     25  O   UNL     1       0.104  -6.553   3.005  0.00  0.00    -0.422 OA
BRANCH  25  26
ATOM     26  C   UNL     1       1.226  -5.836   3.223  0.00  0.00    +0.353 C 
ATOM     27  O   UNL     1       2.218  -6.381   3.668  0.00  0.00    -0.244 OA
BRANCH  26  36
ATOM     28  C   UNL     1       1.085   1.857   1.526  0.00  0.00    +0.044 C 
ATOM     29  C   UNL     1       1.427   0.450   1.942  0.00  0.00    -0.049 A 
ATOM     30  C   UNL     1       2.695   0.151   2.426  0.00  0.00    +0.004 A 
ATOM     31  C   UNL     1       3.034  -1.107   2.808  0.00  0.00    +0.011 A 
ATOM     32  C   UNL     1       2.096  -2.168   2.724  0.00  0.00    +0.008 A 
ATOM     33  C   UNL     1       0.813  -1.835   2.228  0.00  0.00    +0.022 A 
ATOM     34  C   UNL     1       0.482  -0.552   1.850  0.00  0.00    +0.019 A 
ATOM     35  S   UNL     1      -0.060  -3.380   2.270  0.00  0.00    -0.080 S 
ATOM     36  C   UNL     1       1.249  -4.401   2.922  0.00  0.00    +0.116 A 
ATOM     37  C   UNL     1       2.276  -3.519   3.074  0.00  0.00    +0.070 A 
ATOM     38 CL   UNL     1       3.804  -4.061   3.695  0.00  0.00    -0.082 Cl
ENDBRANCH  26  36
ENDBRANCH  25  26
ENDBRANCH   1  25
TORSDOF 7
