REMARK  Name = ZINC39860894
REMARK  5 active torsions:
REMARK  status: ('A' for Active; 'I' for Inactive)
REMARK    1  A    between atoms: C_1  and  C_2
REMARK    2  A    between atoms: C_2  and  C_21
REMARK    3  A    between atoms: N_6  and  C_10
REMARK    4  A    between atoms: C_14  and  C_16
REMARK    5  A    between atoms: C_24  and  O_27
REMARK                            x       y       z     vdW  Elec       q    Type
REMARK                         _______ _______ _______ _____ _____    ______ ____
ROOT
ATOM      1  C   UNL     1       2.009   0.931   0.188  0.00  0.00    +0.045 C 
ATOM      2  C   UNL     1       1.205  -0.341   0.107  0.00  0.00    -0.024 C 
ATOM      3  C   UNL     1       0.647  -0.864   1.228  0.00  0.00    +0.083 C 
ATOM      4  C   UNL     1       0.686  -0.368   2.618  0.00  0.00    +0.265 C 
ATOM      5  O   UNL     1       1.278   0.653   2.916  0.00  0.00    -0.269 OA
ATOM      6  N   UNL     1       0.045  -1.088   3.523  0.00  0.00    -0.197 N 
ATOM      7  C   UNL     1      -0.610  -2.219   3.188  0.00  0.00    +0.290 C 
ATOM      8  O   UNL     1      -1.235  -2.972   3.910  0.00  0.00    -0.262 OA
ATOM      9  S   UNL     1      -0.343  -2.339   1.427  0.00  0.00    -0.025 S 
ENDROOT
BRANCH   6  10
ATOM     10  C   UNL     1       0.046  -0.668   4.860  0.00  0.00    +0.046 A 
ATOM     11  C   UNL     1      -0.954   0.177   5.324  0.00  0.00    +0.025 A 
ATOM     12  C   UNL     1      -0.950   0.589   6.642  0.00  0.00    +0.022 A 
ATOM     13  C   UNL     1       0.048   0.162   7.500  0.00  0.00    +0.053 A 
ATOM     14  C   UNL     1       1.046  -0.679   7.040  0.00  0.00    +0.075 A 
ATOM     15  C   UNL     1       1.044  -1.099   5.723  0.00  0.00    +0.037 A 
ATOM     16 CL   UNL     1       0.050   0.683   9.156  0.00  0.00    -0.083 Cl
BRANCH  14  17
ATOM     17  C   UNL     1       2.132  -1.142   7.976  0.00  0.00    +0.419 C 
ATOM     18  F   UNL     1       3.018  -1.977   7.286  0.00  0.00    -0.166 F 
ATOM     19  F   UNL     1       2.826  -0.032   8.469  0.00  0.00    -0.166 F 
ATOM     20  F   UNL     1       1.561  -1.846   9.041  0.00  0.00    -0.166 F 
ENDBRANCH  14  17
ENDBRANCH   6  10
BRANCH   2  21
ATOM     21  C   UNL     1       1.025  -1.014  -1.186  0.00  0.00    -0.021 A 
ATOM     22  C   UNL     1       1.565  -2.289  -1.395  0.00  0.00    +0.012 A 
ATOM     23  C   UNL     1       1.393  -2.916  -2.608  0.00  0.00    +0.046 A 
ATOM     24  C   UNL     1       0.685  -2.286  -3.625  0.00  0.00    +0.117 A 
ATOM     25  C   UNL     1       0.147  -1.020  -3.423  0.00  0.00    +0.046 A 
ATOM     26  C   UNL     1       0.307  -0.387  -2.212  0.00  0.00    +0.012 A 
BRANCH  24  27
ATOM     27  O   UNL     1       0.519  -2.909  -4.820  0.00  0.00    -0.507 OA
ATOM     28  H   UNL     1      -0.278  -3.455  -4.871  0.00  0.00    +0.292 HD
ENDBRANCH  24  27
ENDBRANCH   2  21
TORSDOF 4
