REMARK  Name = ZINC08612943
REMARK  4 active torsions:
REMARK  status: ('A' for Active; 'I' for Inactive)
REMARK    1  A    between atoms: C_1  and  O_2
REMARK    2  A    between atoms: O_2  and  C_3
REMARK    3  A    between atoms: C_3  and  C_5
REMARK    4  A    between atoms: C_7  and  O_31
REMARK                            x       y       z     vdW  Elec       q    Type
REMARK                         _______ _______ _______ _____ _____    ______ ____
ROOT
ATOM      1  C   UNL     1       5.686   2.512   1.956  0.00  0.00    +0.129 C 
ATOM      2  C   UNL     1       5.112   2.364   3.366  0.00  0.00    +0.129 C 
ATOM      3  C   UNL     1       5.021   0.879   3.724  0.00  0.00    +0.032 C 
ATOM      4  C   UNL     1       4.101   0.172   2.727  0.00  0.00    +0.004 C 
ATOM      5  C   UNL     1       4.670   0.316   1.313  0.00  0.00    -0.024 C 
ATOM      6  C   UNL     1       4.780   1.799   0.954  0.00  0.00    +0.005 C 
ATOM      7  C   UNL     1       3.386   2.433   0.970  0.00  0.00    -0.005 C 
ATOM      8  C   UNL     1       2.489   1.681  -0.015  0.00  0.00    -0.020 C 
ATOM      9  C   UNL     1       1.099   2.267   0.004  0.00  0.00    +0.006 A 
ATOM     10  C   UNL     1      -0.018   1.504   0.010  0.00  0.00    -0.022 A 
ATOM     11  C   UNL     1      -1.150   2.404   0.020  0.00  0.00    +0.003 A 
ATOM     12  C   UNL     1      -2.532   2.194   0.031  0.00  0.00    +0.010 A 
ATOM     13  C   UNL     1      -3.330   3.310   0.043  0.00  0.00    +0.001 A 
ATOM     14  C   UNL     1      -2.804   4.592   0.046  0.00  0.00    +0.002 A 
ATOM     15  C   UNL     1      -1.440   4.830   0.038  0.00  0.00    +0.026 A 
ATOM     16  C   UNL     1      -0.605   3.715   0.026  0.00  0.00    +0.047 A 
ATOM     17  N   UNL     1       0.755   3.591   0.016  0.00  0.00    -0.359 N 
ATOM     18  H   UNL     1       1.383   4.330   0.017  0.00  0.00    +0.166 HD
ATOM     19  C   UNL     1       0.002  -0.004   0.002  0.00  0.00    +0.019 C 
ATOM     20  C   UNL     1       1.410  -0.462  -0.405  0.00  0.00    -0.073 C 
ATOM     21  C   UNL     1       3.727  -0.374   0.321  0.00  0.00    -0.074 C 
ATOM     22  N   UNL     1       2.399   0.270   0.422  0.00  0.00    +0.386 N 
ATOM     23  H   UNL     1       2.093   0.245   1.401  0.00  0.00    -0.081 HD
ENDROOT
BRANCH   1  24
ATOM     24  C   UNL     1       7.063   1.903   1.909  0.00  0.00    +0.313 C 
ATOM     25  O   UNL     1       7.295   0.991   1.151  0.00  0.00    -0.250 OA
BRANCH  24  27
ATOM     26  C   UNL     1       9.335   1.737   2.612  0.00  0.00    +0.280 C 
ATOM     27  O   UNL     1       8.033   2.372   2.710  0.00  0.00    -0.468 OA
ENDBRANCH  24  27
ENDBRANCH   1  24
BRANCH   2  28
ATOM     28  O   UNL     1       3.807   2.946   3.413  0.00  0.00    -0.391 OA
ATOM     29  H   UNL     1       3.382   2.888   4.280  0.00  0.00    +0.210 HD
ENDBRANCH   2  28
TORSDOF 3
