REMARK  Name = ZINC14548705
REMARK  6 active torsions:
REMARK  status: ('A' for Active; 'I' for Inactive)
REMARK    1  A    between atoms: C_1  and  C_2
REMARK    2  A    between atoms: C_6  and  C_33
REMARK    3  A    between atoms: C_7  and  N_8
REMARK    4  A    between atoms: N_8  and  S_9
REMARK    5  A    between atoms: S_9  and  C_12
REMARK    6  A    between atoms: C_25  and  C_28
REMARK                            x       y       z     vdW  Elec       q    Type
REMARK                         _______ _______ _______ _____ _____    ______ ____
ROOT
ATOM      1  C   UNL     1       1.191   3.569   1.693  0.00  0.00    +0.109 A 
ATOM      2  C   UNL     1       1.843   3.179   2.849  0.00  0.00    +0.030 A 
ATOM      3  C   UNL     1       1.659   3.897   4.014  0.00  0.00    +0.025 A 
ATOM      4  C   UNL     1       0.824   5.007   4.021  0.00  0.00    +0.031 A 
ATOM      5  C   UNL     1       0.168   5.401   2.865  0.00  0.00    -0.018 A 
ATOM      6  C   UNL     1       0.365   4.674   1.699  0.00  0.00    +0.034 A 
ATOM      7  C   UNL     1      -0.744   6.586   2.827  0.00  0.00    +0.049 C 
ATOM      8  C   UNL     1      -0.094   7.761   2.137  0.00  0.00    -0.023 C 
ATOM      9  C   UNL     1      -0.450   8.882   2.717  0.00  0.00    -0.030 C 
ATOM     10  C   UNL     1      -1.391   8.605   3.873  0.00  0.00    +0.033 C 
ATOM     11  C   UNL     1      -1.097   7.119   4.230  0.00  0.00    +0.029 C 
ATOM     12  C   UNL     1       0.149   7.103   5.121  0.00  0.00    +0.111 C 
ATOM     13  N   UNL     1       0.654   5.729   5.208  0.00  0.00    -0.336 N 
ATOM     14  H   UNL     1       0.864   5.330   6.067  0.00  0.00    +0.147 HD
ENDROOT
BRANCH  12  15
ATOM     15  C   UNL     1       1.208   7.993   4.523  0.00  0.00    +0.010 A 
ATOM     16  C   UNL     1       1.547   9.262   4.859  0.00  0.00    +0.013 A 
ATOM     17  C   UNL     1       2.564   9.890   4.165  0.00  0.00    +0.008 A 
ATOM     18  C   UNL     1       3.192   9.219   3.170  0.00  0.00    +0.045 A 
ATOM     19  S   UNL     1       2.348   7.647   3.193  0.00  0.00    -0.100 S 
ENDBRANCH  12  15
BRANCH   1  20
ATOM     20  S   UNL     1       1.424   2.656   0.205  0.00  0.00    +0.072 S 
ATOM     21  O   UNL     1       2.727   2.093   0.272  0.00  0.00    -0.150 OA
ATOM     22  O   UNL     1       1.014   3.503  -0.860  0.00  0.00    -0.150 OA
BRANCH  20  23
ATOM     23  N   UNL     1       0.359   1.388   0.237  0.00  0.00    -0.216 N 
ATOM     24  H   UNL     1       0.688   0.480   0.326  0.00  0.00    +0.174 HD
BRANCH  23  31
ATOM     25  C   UNL     1      -1.227   1.177   2.589  0.00  0.00    +0.046 C 
ATOM     26  C   UNL     1      -1.826   1.534   1.253  0.00  0.00    -0.028 A 
ATOM     27  C   UNL     1      -3.181   1.774   1.145  0.00  0.00    +0.005 A 
ATOM     28  C   UNL     1      -3.732   2.096  -0.082  0.00  0.00    +0.001 A 
ATOM     29  C   UNL     1      -2.927   2.183  -1.204  0.00  0.00    +0.005 A 
ATOM     30  C   UNL     1      -1.570   1.949  -1.101  0.00  0.00    -0.028 A 
ATOM     31  C   UNL     1      -1.014   1.626   0.130  0.00  0.00    +0.054 A 
ATOM     32  C   UNL     1      -0.694   2.044  -2.324  0.00  0.00    +0.046 C 
ENDBRANCH  23  31
ENDBRANCH  20  23
ENDBRANCH   1  20
TORSDOF 4
