REMARK  Name = ZINC20806102
REMARK  6 active torsions:
REMARK  status: ('A' for Active; 'I' for Inactive)
REMARK    1  A    between atoms: C_1  and  N_2
REMARK    2  A    between atoms: N_9  and  C_31
REMARK    3  A    between atoms: C_10  and  C_11
REMARK    4  A    between atoms: C_12  and  C_13
REMARK    5  A    between atoms: N_15  and  C_30
REMARK    6  A    between atoms: N_22  and  C_23
REMARK                            x       y       z     vdW  Elec       q    Type
REMARK                         _______ _______ _______ _____ _____    ______ ____
ROOT
ATOM      1  C   UNL     1       3.966   3.975  -1.710  0.00  0.00    +0.045 C 
ATOM      2  C   UNL     1       4.115   4.925  -2.677  0.00  0.00    +0.007 C 
ENDROOT
BRANCH   2   3
ATOM      3  C   UNL     1       4.325   4.543  -4.008  0.00  0.00    +0.040 C 
ATOM      4  C   UNL     1       4.467   5.503  -4.986  0.00  0.00    +0.102 C 
ATOM      5  N   UNL     1       4.824   5.269  -6.290  0.00  0.00    -0.290 N 
ATOM      6  C   UNL     1       4.854   6.489  -6.959  0.00  0.00    +0.058 A 
ATOM      7  C   UNL     1       5.144   6.837  -8.271  0.00  0.00    +0.045 A 
ATOM      8  C   UNL     1       5.100   8.162  -8.659  0.00  0.00    +0.043 A 
ATOM      9  C   UNL     1       4.765   9.146  -7.743  0.00  0.00    +0.022 A 
ATOM     10  C   UNL     1       4.475   8.810  -6.435  0.00  0.00    +0.027 A 
ATOM     11  C   UNL     1       4.517   7.481  -6.037  0.00  0.00    +0.061 A 
ATOM     12  N   UNL     1       4.280   6.853  -4.816  0.00  0.00    -0.255 N 
ATOM     13 CL   UNL     1       5.463   8.596 -10.300  0.00  0.00    -0.083 Cl
ATOM     14  C   UNL     1       5.118   3.960  -6.878  0.00  0.00    +0.137 C 
BRANCH  12  15
ATOM     15  C   UNL     1       3.914   7.486  -3.623  0.00  0.00    +0.040 A 
ATOM     16  C   UNL     1       2.614   7.373  -3.145  0.00  0.00    +0.024 A 
ATOM     17  C   UNL     1       2.257   7.996  -1.966  0.00  0.00    +0.002 A 
ATOM     18  C   UNL     1       3.189   8.741  -1.266  0.00  0.00    +0.000 A 
ATOM     19  C   UNL     1       4.482   8.860  -1.741  0.00  0.00    +0.002 A 
ATOM     20  C   UNL     1       4.847   8.235  -2.918  0.00  0.00    +0.024 A 
ENDBRANCH  12  15
ENDBRANCH   2   3
BRANCH   1  30
ATOM     21  C   UNL     1       5.595   6.129  -0.452  0.00  0.00    +0.151 C 
ATOM     22  N   UNL     1       4.585   5.308   0.221  0.00  0.00    -0.328 N 
ATOM     23  C   UNL     1       4.245   5.405   1.529  0.00  0.00    +0.069 A 
ATOM     24  C   UNL     1       4.686   6.225   2.574  0.00  0.00    +0.048 A 
ATOM     25  C   UNL     1       4.138   6.086   3.830  0.00  0.00    +0.043 A 
ATOM     26  C   UNL     1       3.152   5.139   4.068  0.00  0.00    +0.022 A 
ATOM     27  C   UNL     1       2.707   4.322   3.048  0.00  0.00    +0.030 A 
ATOM     28  C   UNL     1       3.246   4.447   1.777  0.00  0.00    +0.072 A 
ATOM     29  N   UNL     1       3.022   3.797   0.573  0.00  0.00    -0.294 N 
ATOM     30  C   UNL     1       3.873   4.357  -0.354  0.00  0.00    +0.119 A 
ATOM     31 CL   UNL     1       4.685   7.104   5.126  0.00  0.00    -0.083 Cl
BRANCH  29  32
ATOM     32  C   UNL     1       2.106   2.762   0.344  0.00  0.00    +0.049 A 
ATOM     33  C   UNL     1       0.743   3.000   0.463  0.00  0.00    +0.026 A 
ATOM     34  C   UNL     1      -0.157   1.978   0.236  0.00  0.00    +0.002 A 
ATOM     35  C   UNL     1       0.298   0.718  -0.110  0.00  0.00    +0.000 A 
ATOM     36  C   UNL     1       1.654   0.478  -0.230  0.00  0.00    +0.002 A 
ATOM     37  C   UNL     1       2.560   1.496  -0.004  0.00  0.00    +0.026 A 
ENDBRANCH  29  32
ENDBRANCH   1  30
TORSDOF 4
