REMARK  Name = ZINC39597789
REMARK  10 active torsions:
REMARK  status: ('A' for Active; 'I' for Inactive)
REMARK    1  A    between atoms: C_1  and  C_2
REMARK    2  A    between atoms: C_2  and  C_3
REMARK    3  A    between atoms: C_3  and  C_4
REMARK    4  A    between atoms: C_4  and  C_5
REMARK    5  A    between atoms: C_5  and  C_6
REMARK    6  A    between atoms: C_6  and  C_7
REMARK    7  A    between atoms: C_11  and  C_20
REMARK    8  A    between atoms: N_22  and  C_23
REMARK    9  A    between atoms: C_23  and  C_24
REMARK   10  A    between atoms: C_24  and  C_25
REMARK                            x       y       z     vdW  Elec       q    Type
REMARK                         _______ _______ _______ _____ _____    ______ ____
ROOT
ATOM      1  C   UNL     1       2.291  -4.554  -3.895  0.00  0.00    +0.216 C 
ATOM      2  O   UNL     1       2.695  -3.780  -4.736  0.00  0.00    -0.276 OA
ATOM      3  N   UNL     1       2.381  -5.882  -4.102  0.00  0.00    -0.300 N 
ATOM      4  C   UNL     1       1.940  -6.974  -3.203  0.00  0.00    +0.121 C 
ATOM      5  C   UNL     1       1.337  -8.038  -4.147  0.00  0.00    +0.100 C 
ATOM      6  C   UNL     1       2.001  -7.776  -5.509  0.00  0.00    -0.004 C 
ATOM      7  C   UNL     1       2.939  -6.581  -5.285  0.00  0.00    +0.115 C 
ATOM      8  C   UNL     1       0.946  -7.422  -6.552  0.00  0.00    -0.010 C 
ATOM      9  C   UNL     1       1.625  -7.222  -7.910  0.00  0.00    -0.082 C 
ATOM     10  N   UNL     1       2.327  -8.453  -8.294  0.00  0.00    +0.379 N 
ATOM     11  C   UNL     1       3.402  -8.735  -7.335  0.00  0.00    -0.082 C 
ATOM     12  C   UNL     1       2.798  -8.999  -5.952  0.00  0.00    -0.010 C 
ATOM     13  H   UNL     1       1.675  -9.222  -8.303  0.00  0.00    -0.086 HD
ATOM     14  H   UNL     1       2.722  -8.339  -9.215  0.00  0.00    -0.086 HD
ENDROOT
BRANCH   5  15
ATOM     15  C   UNL     1       1.668  -9.424  -3.656  0.00  0.00    +0.218 C 
ATOM     16  O   UNL     1       2.701  -9.622  -3.052  0.00  0.00    -0.275 OA
ATOM     17  N   UNL     1       0.818 -10.443  -3.889  0.00  0.00    -0.315 N 
ATOM     18  H   UNL     1      -0.008 -10.284  -4.373  0.00  0.00    +0.149 HD
BRANCH  17  19
ATOM     19  C   UNL     1       1.140 -11.790  -3.413  0.00  0.00    +0.109 C 
BRANCH  19  20
ATOM     20  C   UNL     1       0.018 -12.752  -3.806  0.00  0.00    +0.056 C 
BRANCH  20  21
ATOM     21  C   UNL     1       0.349 -14.138  -3.316  0.00  0.00    -0.021 A 
ATOM     22  C   UNL     1       0.080 -14.678  -1.980  0.00  0.00    +0.003 A 
ATOM     23  C   UNL     1      -0.509 -14.161  -0.826  0.00  0.00    +0.010 A 
ATOM     24  C   UNL     1      -0.615 -14.942   0.290  0.00  0.00    +0.001 A 
ATOM     25  C   UNL     1      -0.140 -16.246   0.286  0.00  0.00    +0.002 A 
ATOM     26  C   UNL     1       0.446 -16.777  -0.843  0.00  0.00    +0.026 A 
ATOM     27  C   UNL     1       0.563 -15.999  -1.991  0.00  0.00    +0.047 A 
ATOM     28  N   UNL     1       1.084 -16.232  -3.244  0.00  0.00    -0.360 N 
ATOM     29  C   UNL     1       0.942 -15.114  -4.021  0.00  0.00    +0.087 A 
ATOM     30  H   UNL     1       1.487 -17.065  -3.534  0.00  0.00    +0.165 HD
ENDBRANCH  20  21
ENDBRANCH  19  20
ENDBRANCH  17  19
ENDBRANCH   5  15
BRANCH   1  31
ATOM     31  C   UNL     1       1.687  -4.030  -2.617  0.00  0.00    +0.096 C 
BRANCH  31  32
ATOM     32  C   UNL     1       1.704  -2.500  -2.635  0.00  0.00    +0.009 C 
BRANCH  32  33
ATOM     33  C   UNL     1       1.091  -1.969  -1.337  0.00  0.00    +0.000 C 
BRANCH  33  34
ATOM     34  C   UNL     1       1.108  -0.439  -1.355  0.00  0.00    -0.000 C 
BRANCH  34  36
ATOM     35  C   UNL     1       0.512   1.623  -0.075  0.00  0.00    +0.004 C 
ATOM     36  C   UNL     1       0.495   0.093  -0.058  0.00  0.00    -0.003 C 
ENDBRANCH  34  36
ENDBRANCH  33  34
ENDBRANCH  32  33
ENDBRANCH  31  32
ENDBRANCH   1  31
TORSDOF 9
