REMARK  Name = ZINC15052991
REMARK  8 active torsions:
REMARK  status: ('A' for Active; 'I' for Inactive)
REMARK    1  A    between atoms: C_1  and  C_2
REMARK    2  A    between atoms: C_5  and  N_8
REMARK    3  A    between atoms: C_12  and  C_13
REMARK    4  A    between atoms: C_16  and  O_21
REMARK    5  A    between atoms: C_17  and  O_19
REMARK    6  A    between atoms: O_19  and  C_20
REMARK    7  A    between atoms: O_21  and  C_22
REMARK    8  A    between atoms: C_22  and  C_23
REMARK                            x       y       z     vdW  Elec       q    Type
REMARK                         _______ _______ _______ _____ _____    ______ ____
ROOT
ATOM      1  C   UNL     1       0.344  -8.621   1.592  0.00  0.00    -0.020 A 
ATOM      2  C   UNL     1       0.442  -8.999   0.247  0.00  0.00    +0.012 A 
ATOM      3  C   UNL     1       0.525 -10.333  -0.087  0.00  0.00    +0.050 A 
ATOM      4  C   UNL     1       0.512 -11.304   0.905  0.00  0.00    +0.162 A 
ATOM      5  C   UNL     1       0.414 -10.935   2.246  0.00  0.00    +0.162 A 
ATOM      6  C   UNL     1       0.337  -9.601   2.592  0.00  0.00    +0.057 A 
ENDROOT
BRANCH   1  11
ATOM      7  N   UNL     1      -0.041  -4.105  -0.028  0.00  0.00    -0.215 N 
ATOM      8  C   UNL     1       0.160  -4.793   1.084  0.00  0.00    +0.263 C 
ATOM      9  O   UNL     1       0.391  -4.238   2.142  0.00  0.00    -0.269 OA
ATOM     10  C   UNL     1       0.091  -6.263   0.984  0.00  0.00    +0.078 C 
ATOM     11  C   UNL     1       0.255  -7.200   1.952  0.00  0.00    +0.028 C 
ATOM     12  S   UNL     1      -0.265  -6.480  -0.753  0.00  0.00    -0.049 S 
ATOM     13  C   UNL     1      -0.308  -4.757  -1.218  0.00  0.00    +0.165 C 
ATOM     14  N   UNL     1      -0.534  -4.239  -2.393  0.00  0.00    -0.279 NA
ATOM     15  H   UNL     1      -0.709  -4.816  -3.152  0.00  0.00    +0.189 HD
BRANCH   7  20
ATOM     16  C   UNL     1       0.169   1.564   0.093  0.00  0.00    +0.044 C 
ATOM     17  C   UNL     1       0.113   0.059   0.061  0.00  0.00    -0.050 A 
ATOM     18  C   UNL     1      -1.074  -0.582  -0.242  0.00  0.00    +0.005 A 
ATOM     19  C   UNL     1      -1.129  -1.961  -0.273  0.00  0.00    +0.024 A 
ATOM     20  C   UNL     1       0.011  -2.706   0.002  0.00  0.00    +0.043 A 
ATOM     21  C   UNL     1       1.202  -2.060   0.306  0.00  0.00    +0.024 A 
ATOM     22  C   UNL     1       1.251  -0.680   0.330  0.00  0.00    +0.005 A 
ENDBRANCH   7  20
ENDBRANCH   1  11
BRANCH   5  23
ATOM     23  O   UNL     1       0.401 -11.890   3.214  0.00  0.00    -0.491 OA
ATOM     24  C   UNL     1       0.299 -11.441   4.567  0.00  0.00    +0.277 C 
ENDBRANCH   5  23
BRANCH   4  25
ATOM     25  O   UNL     1       0.595 -12.618   0.568  0.00  0.00    -0.484 OA
BRANCH  25  26
ATOM     26  C   UNL     1       0.692 -12.926  -0.824  0.00  0.00    +0.266 C 
BRANCH  26  27
ATOM     27  C   UNL     1       0.774 -14.420  -1.003  0.00  0.00    +0.008 A 
ATOM     28  C   UNL     1       0.742 -15.251   0.101  0.00  0.00    +0.010 A 
ATOM     29  C   UNL     1       0.816 -16.621  -0.063  0.00  0.00    +0.020 A 
ATOM     30  C   UNL     1       0.923 -17.162  -1.332  0.00  0.00    +0.042 A 
ATOM     31  C   UNL     1       0.955 -16.331  -2.437  0.00  0.00    +0.040 A 
ATOM     32  C   UNL     1       0.875 -14.959  -2.273  0.00  0.00    +0.049 A 
ATOM     33 CL   UNL     1       0.908 -13.916  -3.660  0.00  0.00    -0.083 Cl
ATOM     34 CL   UNL     1       1.017 -18.883  -1.538  0.00  0.00    -0.083 Cl
ENDBRANCH  26  27
ENDBRANCH  25  26
ENDBRANCH   4  25
TORSDOF 6
