REMARK  Name = ZINC08918148
REMARK  8 active torsions:
REMARK  status: ('A' for Active; 'I' for Inactive)
REMARK    1  A    between atoms: C_1  and  C_2
REMARK    2  A    between atoms: C_2  and  C_3
REMARK    3  A    between atoms: C_3  and  C_4
REMARK    4  A    between atoms: C_4  and  C_5
REMARK    5  A    between atoms: C_14  and  O_16
REMARK    6  A    between atoms: O_16  and  C_17
REMARK    7  A    between atoms: C_17  and  C_18
REMARK    8  A    between atoms: C_23  and  O_31
REMARK                            x       y       z     vdW  Elec       q    Type
REMARK                         _______ _______ _______ _____ _____    ______ ____
ROOT
ATOM      1  C   UNL     1     -10.603  -0.361  -4.796  0.00  0.00    -0.030 A 
ATOM      2  C   UNL     1     -11.420  -0.104  -3.741  0.00  0.00    +0.096 A 
ATOM      3  C   UNL     1     -10.922   0.597  -2.623  0.00  0.00    +0.337 A 
ATOM      4  O   UNL     1     -11.665   0.821  -1.684  0.00  0.00    -0.245 OA
ATOM      5  O   UNL     1      -9.650   1.023  -2.567  0.00  0.00    -0.422 OA
ATOM      6  C   UNL     1      -8.787   0.801  -3.582  0.00  0.00    +0.143 A 
ATOM      7  C   UNL     1      -9.217   0.107  -4.728  0.00  0.00    +0.022 A 
ATOM      8  C   UNL     1      -8.326  -0.126  -5.782  0.00  0.00    +0.035 A 
ATOM      9  C   UNL     1      -7.041   0.327  -5.696  0.00  0.00    +0.083 A 
ATOM     10  C   UNL     1      -6.608   1.010  -4.560  0.00  0.00    +0.143 A 
ATOM     11  C   UNL     1      -7.477   1.249  -3.508  0.00  0.00    +0.094 A 
ATOM     12 CL   UNL     1      -5.937   0.045  -7.006  0.00  0.00    -0.080 Cl
ENDROOT
BRANCH   1  13
ATOM     13  C   UNL     1     -11.110  -1.108  -6.003  0.00  0.00    +0.036 C 
BRANCH  13  14
ATOM     14  C   UNL     1     -10.777  -2.594  -5.860  0.00  0.00    +0.004 C 
BRANCH  14  16
ATOM     15  C   UNL     1     -10.959  -4.839  -6.942  0.00  0.00    +0.004 C 
ATOM     16  C   UNL     1     -11.292  -3.352  -7.085  0.00  0.00    -0.003 C 
ENDBRANCH  14  16
ENDBRANCH  13  14
ENDBRANCH   1  13
BRANCH  10  17
ATOM     17  O   UNL     1      -5.325   1.449  -4.486  0.00  0.00    -0.481 OA
BRANCH  17  18
ATOM     18  C   UNL     1      -4.945   2.147  -3.299  0.00  0.00    +0.324 C 
BRANCH  18  19
ATOM     19  C   UNL     1      -3.498   2.554  -3.396  0.00  0.00    +0.253 C 
ATOM     20  O   UNL     1      -2.855   2.275  -4.386  0.00  0.00    -0.272 OA
ATOM     21  N   UNL     1      -2.918   3.229  -2.384  0.00  0.00    -0.298 N 
ATOM     22  C   UNL     1      -3.683   3.576  -1.179  0.00  0.00    +0.110 C 
ATOM     23  C   UNL     1      -2.928   3.059   0.049  0.00  0.00    +0.054 C 
ATOM     24  C   UNL     1      -1.500   3.611   0.036  0.00  0.00    +0.072 C 
ATOM     25  C   UNL     1      -0.754   3.109   1.275  0.00  0.00    +0.035 C 
ATOM     26  C   UNL     1      -0.728   1.579   1.267  0.00  0.00    +0.003 C 
ATOM     27  C   UNL     1      -0.013   1.086   0.008  0.00  0.00    +0.001 C 
ATOM     28  C   UNL     1      -0.752   1.593  -1.232  0.00  0.00    +0.008 C 
ATOM     29  C   UNL     1      -0.775   3.122  -1.221  0.00  0.00    +0.038 C 
ATOM     30  C   UNL     1      -1.508   3.633  -2.464  0.00  0.00    +0.114 C 
BRANCH  24  31
ATOM     31  O   UNL     1      -1.533   5.039   0.044  0.00  0.00    -0.388 OA
ATOM     32  H   UNL     1      -1.979   5.418   0.814  0.00  0.00    +0.210 HD
ENDBRANCH  24  31
ENDBRANCH  18  19
ENDBRANCH  17  18
ENDBRANCH  10  17
TORSDOF 7
