REMARK  Name = ZINC00673801
REMARK  5 active torsions:
REMARK  status: ('A' for Active; 'I' for Inactive)
REMARK    1  A    between atoms: C_3  and  N_8
REMARK    2  A    between atoms: C_5  and  O_7
REMARK    3  A    between atoms: C_9  and  C_11
REMARK    4  A    between atoms: C_16  and  C_27
REMARK    5  A    between atoms: C_19  and  C_22
REMARK                            x       y       z     vdW  Elec       q    Type
REMARK                         _______ _______ _______ _____ _____    ______ ____
ROOT
ATOM      1  C   UNL     1       4.829   4.225  -0.236  0.00  0.00    +0.167 A 
ATOM      2  C   UNL     1       4.955   5.630  -0.337  0.00  0.00    +0.112 A 
ATOM      3  C   UNL     1       6.269   5.916  -0.427  0.00  0.00    +0.137 A 
ATOM      4  N   UNL     1       6.964   4.740  -0.389  0.00  0.00    -0.237 N 
ATOM      5  N   UNL     1       6.042   3.701  -0.262  0.00  0.00    -0.163 NA
ATOM      6  C   UNL     1       8.425   4.656  -0.468  0.00  0.00    +0.215 C 
ATOM      7  C   UNL     1       8.965   5.959  -1.069  0.00  0.00    +0.063 C 
ATOM      8  C   UNL     1       8.364   7.161  -0.333  0.00  0.00    +0.111 C 
ATOM      9  N   UNL     1       6.902   7.157  -0.542  0.00  0.00    -0.321 N 
ATOM     10 CL   UNL     1       3.652   6.778  -0.343  0.00  0.00    -0.078 Cl
ATOM     11  H   UNL     1       6.411   7.968  -0.747  0.00  0.00    +0.148 HD
ENDROOT
BRANCH   8  12
ATOM     12  C   UNL     1       8.954   8.436  -0.880  0.00  0.00    +0.010 A 
ATOM     13  C   UNL     1       9.951   9.201  -0.373  0.00  0.00    +0.013 A 
ATOM     14  C   UNL     1      10.333  10.342  -1.054  0.00  0.00    +0.008 A 
ATOM     15  C   UNL     1       9.699  10.661  -2.209  0.00  0.00    +0.045 A 
ATOM     16  S   UNL     1       8.527   9.324  -2.369  0.00  0.00    -0.100 S 
ENDBRANCH   8  12
BRANCH   1  18
ATOM     17  N   UNL     1       3.583   2.131  -0.021  0.00  0.00    -0.280 N 
ATOM     18  C   UNL     1       3.563   3.475  -0.116  0.00  0.00    +0.270 C 
ATOM     19  O   UNL     1       2.503   4.070  -0.103  0.00  0.00    -0.268 OA
ATOM     20  H   UNL     1       4.430   1.661   0.036  0.00  0.00    +0.155 HD
BRANCH  17  23
ATOM     21  C   UNL     1       1.124  -0.543  -0.597  0.00  0.00    +0.005 A 
ATOM     22  C   UNL     1       2.310   0.166  -0.613  0.00  0.00    +0.023 A 
ATOM     23  C   UNL     1       2.383   1.413  -0.005  0.00  0.00    +0.037 A 
ATOM     24  C   UNL     1       1.263   1.946   0.619  0.00  0.00    +0.068 A 
ATOM     25  C   UNL     1       0.075   1.231   0.633  0.00  0.00    +0.119 A 
ATOM     26  C   UNL     1       0.008  -0.014   0.024  0.00  0.00    +0.045 A 
BRANCH  25  27
ATOM     27  O   UNL     1      -1.022   1.750   1.244  0.00  0.00    -0.507 OA
ATOM     28  H   UNL     1      -1.581   2.284   0.662  0.00  0.00    +0.292 HD
ENDBRANCH  25  27
ENDBRANCH  17  23
ENDBRANCH   1  18
BRANCH   6  29
ATOM     29  C   UNL     1       8.823   3.475  -1.356  0.00  0.00    +0.412 C 
ATOM     30  F   UNL     1       8.297   3.659  -2.639  0.00  0.00    -0.168 F 
ATOM     31  F   UNL     1      10.218   3.397  -1.430  0.00  0.00    -0.168 F 
ATOM     32  F   UNL     1       8.318   2.290  -0.810  0.00  0.00    -0.168 F 
ENDBRANCH   6  29
TORSDOF 5
