REMARK  Name = ZINC21022974
REMARK  6 active torsions:
REMARK  status: ('A' for Active; 'I' for Inactive)
REMARK    1  A    between atoms: C_1  and  C_2
REMARK    2  A    between atoms: C_5  and  N_9
REMARK    3  A    between atoms: C_10  and  C_12
REMARK    4  A    between atoms: C_17  and  S_25
REMARK    5  A    between atoms: C_22  and  C_24
REMARK    6  A    between atoms: S_25  and  N_28
REMARK                            x       y       z     vdW  Elec       q    Type
REMARK                         _______ _______ _______ _____ _____    ______ ____
ROOT
ATOM      1  C   UNL     1       1.280   1.979   0.019  0.00  0.00    +0.172 C 
ATOM      2  C   UNL     1       1.631   2.425   1.447  0.00  0.00    +0.069 C 
ATOM      3  C   UNL     1       2.955   1.756   1.741  0.00  0.00    -0.022 A 
ATOM      4  C   UNL     1       3.756   1.788   2.867  0.00  0.00    +0.034 A 
ATOM      5  C   UNL     1       4.943   1.079   2.895  0.00  0.00    +0.106 A 
ATOM      6  C   UNL     1       5.326   0.337   1.793  0.00  0.00    +0.030 A 
ATOM      7  C   UNL     1       4.530   0.302   0.668  0.00  0.00    +0.026 A 
ATOM      8  C   UNL     1       3.330   1.015   0.632  0.00  0.00    +0.040 A 
ATOM      9  N   UNL     1       2.388   1.114  -0.398  0.00  0.00    -0.259 N 
ATOM     10  C   UNL     1       2.482   0.504  -1.596  0.00  0.00    +0.217 C 
ATOM     11  O   UNL     1       1.608   0.653  -2.424  0.00  0.00    -0.276 OA
ATOM     12  C   UNL     1       3.675  -0.363  -1.908  0.00  0.00    +0.109 C 
ENDROOT
BRANCH   1  14
ATOM     13  N   UNL     1      -1.191   1.867   0.018  0.00  0.00    -0.283 N 
ATOM     14  C   UNL     1      -0.015   1.208   0.015  0.00  0.00    +0.238 C 
ATOM     15  O   UNL     1       0.001  -0.005   0.005  0.00  0.00    -0.273 OA
ATOM     16  H   UNL     1      -1.207   2.963   0.102  0.00  0.00    +0.155 HD
BRANCH  13  21
ATOM     17  C   UNL     1      -6.058  -1.020  -0.404  0.00  0.00    +0.044 C 
ATOM     18  C   UNL     1      -4.765  -0.253  -0.292  0.00  0.00    -0.049 A 
ATOM     19  C   UNL     1      -3.698  -0.797   0.399  0.00  0.00    +0.005 A 
ATOM     20  C   UNL     1      -2.510  -0.099   0.499  0.00  0.00    +0.025 A 
ATOM     21  C   UNL     1      -2.392   1.155  -0.086  0.00  0.00    +0.052 A 
ATOM     22  C   UNL     1      -3.466   1.699  -0.780  0.00  0.00    +0.062 A 
ATOM     23  C   UNL     1      -4.650   0.993  -0.880  0.00  0.00    +0.025 A 
ATOM     24 CL   UNL     1      -3.321   3.264  -1.518  0.00  0.00    -0.082 Cl
ENDBRANCH  13  21
ENDBRANCH   1  14
BRANCH   5  25
ATOM     25  S   UNL     1       5.963   1.122   4.330  0.00  0.00    +0.061 S 
ATOM     26  O   UNL     1       7.282   0.813   3.900  0.00  0.00    -0.153 OA
ATOM     27  O   UNL     1       5.648   2.325   5.017  0.00  0.00    -0.153 OA
BRANCH  25  28
ATOM     28  N   UNL     1       5.482  -0.123   5.310  0.00  0.00    -0.177 NA
ATOM     29  C   UNL     1       4.439   0.083   6.325  0.00  0.00    +0.109 C 
ATOM     30  C   UNL     1       3.343  -0.974   6.120  0.00  0.00    +0.017 C 
ATOM     31  C   UNL     1       3.976  -2.368   6.143  0.00  0.00    +0.003 C 
ATOM     32  C   UNL     1       4.983  -2.492   4.998  0.00  0.00    +0.017 C 
ATOM     33  C   UNL     1       6.094  -1.453   5.186  0.00  0.00    +0.109 C 
ENDBRANCH  25  28
ENDBRANCH   5  25
TORSDOF 4
