REMARK  Name = ZINC39533637
REMARK  10 active torsions:
REMARK  status: ('A' for Active; 'I' for Inactive)
REMARK    1  A    between atoms: C_4  and  C_7
REMARK    2  A    between atoms: C_7  and  C_8
REMARK    3  A    between atoms: N_11  and  C_15
REMARK    4  A    between atoms: C_15  and  C_17
REMARK    5  A    between atoms: C_15  and  C_29
REMARK    6  A    between atoms: C_17  and  N_18
REMARK    7  A    between atoms: N_18  and  S_19
REMARK    8  A    between atoms: S_19  and  O_22
REMARK    9  A    between atoms: O_22  and  C_23
REMARK   10  A    between atoms: C_32  and  C_35
REMARK                            x       y       z     vdW  Elec       q    Type
REMARK                         _______ _______ _______ _____ _____    ______ ____
ROOT
ATOM      1  C   UNL     1       7.101  -2.883   2.747  0.00  0.00    -0.060 C 
ENDROOT
BRANCH   1   4
ATOM      2  C   UNL     1       3.689  -1.975   1.473  0.00  0.00    -0.085 C 
ATOM      3  C   UNL     1       5.147  -2.437   1.429  0.00  0.00    -0.094 C 
ATOM      4  N   UNL     1       5.702  -2.440   2.790  0.00  0.00    +0.381 N 
ATOM      5  C   UNL     1       5.634  -1.083   3.349  0.00  0.00    -0.098 C 
ATOM      6  C   UNL     1       4.176  -0.621   3.393  0.00  0.00    -0.101 C 
ATOM      7  N   UNL     1       3.623  -0.618   2.032  0.00  0.00    +0.379 N 
ATOM      8  H   UNL     1       4.157   0.011   1.452  0.00  0.00    -0.086 HD
ATOM      9  H   UNL     1       2.661  -0.313   2.061  0.00  0.00    -0.086 HD
ATOM     10  H   UNL     1       5.167  -3.069   3.369  0.00  0.00    -0.081 HD
BRANCH   2  11
ATOM     11  C   UNL     1       3.112  -1.972   0.056  0.00  0.00    +0.017 C 
BRANCH  11  15
ATOM     12  C   UNL     1      -1.049  -1.020   0.213  0.00  0.00    +0.000 A 
ATOM     13  C   UNL     1      -0.113  -0.010   0.084  0.00  0.00    +0.000 A 
ATOM     14  C   UNL     1       1.233  -0.318   0.034  0.00  0.00    +0.003 A 
ATOM     15  C   UNL     1       1.645  -1.636   0.112  0.00  0.00    -0.049 A 
ATOM     16  C   UNL     1       0.709  -2.645   0.242  0.00  0.00    +0.003 A 
ATOM     17  C   UNL     1      -0.638  -2.337   0.291  0.00  0.00    +0.000 A 
ENDBRANCH  11  15
ENDBRANCH   2  11
ENDBRANCH   1   4
BRANCH   1  18
ATOM     18  C   UNL     1       7.187  -4.209   2.036  0.00  0.00    -0.063 A 
ATOM     19  C   UNL     1       6.217  -5.171   2.252  0.00  0.00    +0.002 A 
ATOM     20  C   UNL     1       6.290  -6.387   1.603  0.00  0.00    +0.009 A 
ATOM     21  C   UNL     1       7.344  -6.644   0.729  0.00  0.00    -0.018 A 
ATOM     22  C   UNL     1       8.318  -5.672   0.514  0.00  0.00    +0.009 A 
ATOM     23  C   UNL     1       8.232  -4.457   1.164  0.00  0.00    +0.002 A 
BRANCH  21  24
ATOM     24  C   UNL     1       7.429  -7.950   0.028  0.00  0.00    -0.018 A 
ATOM     25  C   UNL     1       6.451  -8.921   0.239  0.00  0.00    +0.008 A 
ATOM     26  C   UNL     1       6.535 -10.133  -0.416  0.00  0.00    +0.001 A 
ATOM     27  C   UNL     1       7.586 -10.386  -1.278  0.00  0.00    +0.000 A 
ATOM     28  C   UNL     1       8.559  -9.426  -1.490  0.00  0.00    +0.001 A 
ATOM     29  C   UNL     1       8.482  -8.207  -0.846  0.00  0.00    +0.008 A 
ENDBRANCH  21  24
ENDBRANCH   1  18
BRANCH   1  30
ATOM     30  C   UNL     1       7.631  -3.035   4.174  0.00  0.00    -0.121 C 
BRANCH  30  31
ATOM     31  N   UNL     1       7.714  -1.717   4.808  0.00  0.00    +0.491 NA
BRANCH  31  32
ATOM     32  S   UNL     1       8.259  -1.579   6.365  0.00  0.00    +0.066 S 
ATOM     33  O   UNL     1       7.296  -2.220   7.191  0.00  0.00    -0.159 OA
ATOM     34  O   UNL     1       9.627  -1.963   6.352  0.00  0.00    -0.159 OA
BRANCH  32  35
ATOM     35  O   UNL     1       8.225  -0.101   6.725  0.00  0.00    -0.362 OA
BRANCH  35  36
ATOM     36  C   UNL     1       6.977   0.381   6.966  0.00  0.00    +0.154 A 
ATOM     37  C   UNL     1       6.220   0.902   5.927  0.00  0.00    +0.048 A 
ATOM     38  C   UNL     1       4.952   1.390   6.175  0.00  0.00    +0.004 A 
ATOM     39  C   UNL     1       4.437   1.361   7.458  0.00  0.00    +0.000 A 
ATOM     40  C   UNL     1       5.190   0.843   8.496  0.00  0.00    +0.004 A 
ATOM     41  C   UNL     1       6.456   0.347   8.252  0.00  0.00    +0.048 A 
ENDBRANCH  35  36
ENDBRANCH  32  35
ENDBRANCH  31  32
ENDBRANCH  30  31
ENDBRANCH   1  30
TORSDOF 10
