REMARK  Name = ZINC05478865
REMARK  6 active torsions:
REMARK  status: ('A' for Active; 'I' for Inactive)
REMARK    1  A    between atoms: C_1  and  C_2
REMARK    2  A    between atoms: C_6  and  N_8
REMARK    3  A    between atoms: C_9  and  C_27
REMARK    4  A    between atoms: C_11  and  N_15
REMARK    5  A    between atoms: N_15  and  C_16
REMARK    6  A    between atoms: C_16  and  C_17
REMARK                            x       y       z     vdW  Elec       q    Type
REMARK                         _______ _______ _______ _____ _____    ______ ____
ROOT
ATOM      1  N   UNL     1      -8.775   2.008  -2.586  0.00  0.00    -0.255 N 
ATOM      2  C   UNL     1      -7.337   2.030  -2.891  0.00  0.00    +0.156 C 
ATOM      3  C   UNL     1      -6.656   2.162  -1.546  0.00  0.00    +0.035 C 
ATOM      4  C   UNL     1      -7.642   2.200  -0.626  0.00  0.00    +0.088 C 
ATOM      5  C   UNL     1      -8.900   2.113  -1.250  0.00  0.00    +0.246 C 
ATOM      6  O   UNL     1      -9.965   2.127  -0.658  0.00  0.00    -0.270 OA
ENDROOT
BRANCH   1  12
ATOM      7  C   UNL     1     -13.595   1.775  -3.519  0.00  0.00    +0.044 C 
ATOM      8  C   UNL     1     -12.164   1.782  -3.991  0.00  0.00    -0.049 A 
ATOM      9  C   UNL     1     -11.881   1.680  -5.341  0.00  0.00    +0.003 A 
ATOM     10  C   UNL     1     -10.570   1.687  -5.778  0.00  0.00    +0.002 A 
ATOM     11  C   UNL     1      -9.537   1.795  -4.867  0.00  0.00    +0.023 A 
ATOM     12  C   UNL     1      -9.818   1.898  -3.510  0.00  0.00    +0.038 A 
ATOM     13  C   UNL     1     -11.137   1.885  -3.074  0.00  0.00    +0.027 A 
ENDBRANCH   1  12
BRANCH   2  14
ATOM     14  C   UNL     1      -7.004   3.211  -3.766  0.00  0.00    -0.021 A 
ATOM     15  C   UNL     1      -7.658   4.415  -3.579  0.00  0.00    +0.006 A 
ATOM     16  C   UNL     1      -7.349   5.500  -4.378  0.00  0.00    +0.000 A 
ATOM     17  C   UNL     1      -6.395   5.378  -5.370  0.00  0.00    +0.000 A 
ATOM     18  C   UNL     1      -5.745   4.173  -5.560  0.00  0.00    +0.000 A 
ATOM     19  C   UNL     1      -6.049   3.090  -4.758  0.00  0.00    +0.006 A 
ENDBRANCH   2  14
BRANCH   3  20
ATOM     20  N   UNL     1      -5.311   2.225  -1.310  0.00  0.00    -0.338 N 
ATOM     21  H   UNL     1      -4.603   2.179  -2.150  0.00  0.00    +0.146 HD
BRANCH  20  22
ATOM     22  C   UNL     1      -4.814   2.354   0.062  0.00  0.00    +0.175 C 
BRANCH  22  23
ATOM     23  C   UNL     1      -3.308   2.402   0.048  0.00  0.00    +0.125 A 
ATOM     24  N   UNL     1      -2.564   3.541   0.047  0.00  0.00    -0.341 N 
ATOM     25  H   UNL     1      -3.061   4.522   0.057  0.00  0.00    +0.167 HD
ATOM     26  C   UNL     1      -1.236   3.164   0.031  0.00  0.00    +0.066 A 
ATOM     27  C   UNL     1      -0.034   3.859   0.023  0.00  0.00    +0.028 A 
ATOM     28  C   UNL     1       1.156   3.164   0.008  0.00  0.00    +0.002 A 
ATOM     29  C   UNL     1       1.160   1.776   0.001  0.00  0.00    +0.002 A 
ATOM     30  C   UNL     1      -0.013   1.076   0.008  0.00  0.00    +0.030 A 
ATOM     31  C   UNL     1      -1.231   1.759   0.017  0.00  0.00    +0.089 A 
ATOM     32  N   UNL     1      -2.529   1.359   0.035  0.00  0.00    -0.231 NA
ENDBRANCH  22  23
ENDBRANCH  20  22
ENDBRANCH   3  20
TORSDOF 5
