REMARK  Name = ZINC63159183
REMARK  4 active torsions:
REMARK  status: ('A' for Active; 'I' for Inactive)
REMARK    1  A    between atoms: C_1  and  N_2
REMARK    2  A    between atoms: N_2  and  C_3
REMARK    3  A    between atoms: C_3  and  C_4
REMARK    4  A    between atoms: N_7  and  C_10
REMARK                            x       y       z     vdW  Elec       q    Type
REMARK                         _______ _______ _______ _____ _____    ______ ____
ROOT
ATOM      1  C   UNL     1      -2.249  -5.999   1.355  0.00  0.00    +0.176 C 
ATOM      2  C   UNL     1      -3.691  -6.450   1.314  0.00  0.00    +0.001 A 
ATOM      3  C   UNL     1      -4.780  -6.179   2.112  0.00  0.00    +0.007 A 
ATOM      4  C   UNL     1      -6.007  -6.750   1.824  0.00  0.00    +0.002 A 
ATOM      5  C   UNL     1      -6.135  -7.593   0.735  0.00  0.00    +0.017 A 
ATOM      6  C   UNL     1      -5.045  -7.867  -0.066  0.00  0.00    +0.039 A 
ATOM      7  C   UNL     1      -3.806  -7.294   0.218  0.00  0.00    +0.053 A 
ATOM      8  N   UNL     1      -2.575  -7.414  -0.430  0.00  0.00    -0.283 N 
ATOM      9  C   UNL     1      -1.610  -6.691   0.170  0.00  0.00    +0.239 C 
ATOM     10  O   UNL     1      -0.450  -6.609  -0.173  0.00  0.00    -0.273 OA
ATOM     11 BR   UNL     1      -5.233  -9.022  -1.552  0.00  0.00    -0.048 Br
ATOM     12  H   UNL     1      -2.431  -7.957  -1.221  0.00  0.00    +0.155 HD
ENDROOT
BRANCH   1  16
ATOM     13  C   UNL     1      -1.355  -2.042   0.004  0.00  0.00    -0.026 C 
ATOM     14  C   UNL     1      -0.733  -2.553   1.307  0.00  0.00    +0.017 C 
ATOM     15  C   UNL     1      -0.771  -4.083   1.319  0.00  0.00    +0.085 C 
ATOM     16  N   UNL     1      -2.162  -4.540   1.208  0.00  0.00    -0.288 NA
ATOM     17  C   UNL     1      -2.765  -4.102  -0.058  0.00  0.00    +0.085 C 
ATOM     18  C   UNL     1      -2.787  -2.573  -0.111  0.00  0.00    +0.017 C 
BRANCH  13  19
ATOM     19  C   UNL     1      -1.376  -0.512   0.012  0.00  0.00    -0.079 C 
BRANCH  19  21
ATOM     20  C   UNL     1      -0.018   1.465   0.010  0.00  0.00    -0.100 C 
ATOM     21  N   UNL     1       0.002  -0.004   0.002  0.00  0.00    +0.377 N 
ATOM     22  H   UNL     1       0.474  -0.330  -0.828  0.00  0.00    -0.086 HD
ATOM     23  H   UNL     1       0.490  -0.338   0.820  0.00  0.00    -0.086 HD
ENDBRANCH  19  21
ENDBRANCH  13  19
ENDBRANCH   1  16
TORSDOF 3
