REMARK  Name = ZINC50361678
REMARK  4 active torsions:
REMARK  status: ('A' for Active; 'I' for Inactive)
REMARK    1  A    between atoms: N_9  and  C_12
REMARK    2  A    between atoms: C_12  and  C_14
REMARK    3  A    between atoms: C_12  and  C_16
REMARK    4  A    between atoms: C_14  and  N_15
REMARK                            x       y       z     vdW  Elec       q    Type
REMARK                         _______ _______ _______ _____ _____    ______ ____
ROOT
ATOM      1  C   UNL     1       1.851  -5.705  -2.001  0.00  0.00    +0.105 C 
ENDROOT
BRANCH   1  10
ATOM      2  C   UNL     1      -0.016   1.317   0.009  0.00  0.00    +0.120 A 
ATOM      3  C   UNL     1       1.182   1.950   0.001  0.00  0.00    +0.068 A 
ATOM      4  S   UNL     1       2.296   0.554  -0.017  0.00  0.00    -0.061 S 
ATOM      5  C   UNL     1       1.138  -0.668  -0.012  0.00  0.00    +0.161 A 
ATOM      6  N   UNL     1       0.002  -0.004   0.002  0.00  0.00    -0.233 NA
ATOM      7  N   UNL     1       1.335  -2.040  -0.022  0.00  0.00    -0.307 N 
ATOM      8  C   UNL     1       2.691  -2.608  -0.032  0.00  0.00    +0.122 C 
ATOM      9  C   UNL     1       2.782  -3.630  -1.170  0.00  0.00    +0.104 C 
ATOM     10  N   UNL     1       1.698  -4.611  -1.032  0.00  0.00    -0.291 NA
ATOM     11  C   UNL     1       0.382  -3.973  -1.161  0.00  0.00    +0.104 C 
ATOM     12  C   UNL     1       0.192  -2.966  -0.016  0.00  0.00    +0.122 C 
ENDBRANCH   1  10
BRANCH   1  13
ATOM     13  C   UNL     1       1.696  -5.162  -3.398  0.00  0.00    +0.123 A 
ATOM     14  C   UNL     1       2.425  -5.527  -4.469  0.00  0.00    +0.062 A 
ATOM     15  C   UNL     1       1.948  -4.774  -5.566  0.00  0.00    +0.070 A 
ATOM     16  C   UNL     1       0.955  -3.992  -5.100  0.00  0.00    +0.184 A 
ATOM     17  O   UNL     1       0.804  -4.236  -3.787  0.00  0.00    -0.450 OA
ATOM     18 BR   UNL     1      -0.060  -2.765  -6.121  0.00  0.00    -0.007 Br
ATOM     19 BR   UNL     1       2.582  -4.848  -7.346  0.00  0.00    -0.046 Br
ENDBRANCH   1  13
BRANCH   1  20
ATOM     20  C   UNL     1       0.779  -6.766  -1.745  0.00  0.00    -0.059 C 
BRANCH  20  21
ATOM     21  N   UNL     1       0.853  -7.209  -0.346  0.00  0.00    +0.379 N 
ATOM     22  H   UNL     1       0.699  -6.421   0.265  0.00  0.00    -0.090 HD
ATOM     23  H   UNL     1       0.147  -7.909  -0.177  0.00  0.00    -0.090 HD
ATOM     24  H   UNL     1       1.765  -7.601  -0.165  0.00  0.00    -0.090 HD
ENDBRANCH  20  21
ENDBRANCH   1  20
TORSDOF 4
