REMARK  Name = ZINC22032121
REMARK  6 active torsions:
REMARK  status: ('A' for Active; 'I' for Inactive)
REMARK    1  A    between atoms: C_4  and  C_7
REMARK    2  A    between atoms: C_7  and  C_9
REMARK    3  A    between atoms: C_9  and  C_11
REMARK    4  A    between atoms: C_9  and  N_24
REMARK    5  A    between atoms: C_11  and  C_13
REMARK    6  A    between atoms: C_11  and  N_18
REMARK                            x       y       z     vdW  Elec       q    Type
REMARK                         _______ _______ _______ _____ _____    ______ ____
ROOT
ATOM      1  C   UNL     1      -1.706   2.725  -1.482  0.00  0.00    +0.027 C 
ENDROOT
BRANCH   1   2
ATOM      2  N   UNL     1      -2.842   3.635  -1.683  0.00  0.00    +0.388 N 
ATOM      3  C   UNL     1      -3.903   3.378  -0.701  0.00  0.00    -0.078 C 
ATOM      4  C   UNL     1      -5.001   4.433  -0.846  0.00  0.00    -0.019 C 
ATOM      5  C   UNL     1      -5.571   4.377  -2.266  0.00  0.00    -0.004 C 
ATOM      6  C   UNL     1      -4.438   4.600  -3.271  0.00  0.00    -0.019 C 
ATOM      7  C   UNL     1      -3.355   3.540  -3.056  0.00  0.00    -0.078 C 
ATOM      8  H   UNL     1      -2.485   4.664  -1.529  0.00  0.00    -0.081 HD
ENDBRANCH   1   2
BRANCH   1   9
ATOM      9  C   UNL     1      -0.534   3.196  -2.303  0.00  0.00    +0.152 C 
ATOM     10  O   UNL     1      -0.540   4.309  -2.786  0.00  0.00    -0.294 OA
BRANCH   9  14
ATOM     11  C   UNL     1       2.787   0.631  -2.925  0.00  0.00    +0.000 A 
ATOM     12  C   UNL     1       2.830   1.937  -3.382  0.00  0.00    +0.001 A 
ATOM     13  C   UNL     1       1.755   2.777  -3.184  0.00  0.00    +0.011 A 
ATOM     14  C   UNL     1       0.618   2.306  -2.519  0.00  0.00    +0.016 A 
ATOM     15  C   UNL     1       0.584   0.987  -2.056  0.00  0.00    +0.011 A 
ATOM     16  C   UNL     1       1.665   0.158  -2.267  0.00  0.00    +0.001 A 
ENDBRANCH   9  14
ENDBRANCH   1   9
BRANCH   1  17
ATOM     17  C   UNL     1      -1.319   2.712  -0.002  0.00  0.00    +0.087 C 
BRANCH  17  18
ATOM     18  N   UNL     1      -1.586   4.032   0.586  0.00  0.00    -0.296 NA
ATOM     19  C   UNL     1      -0.959   5.097  -0.207  0.00  0.00    +0.085 C 
ATOM     20  C   UNL     1      -1.377   6.461   0.348  0.00  0.00    +0.015 C 
ATOM     21  C   UNL     1      -0.941   6.566   1.812  0.00  0.00    +0.002 C 
ATOM     22  C   UNL     1      -1.569   5.417   2.606  0.00  0.00    +0.015 C 
ATOM     23  C   UNL     1      -1.146   4.083   1.986  0.00  0.00    +0.085 C 
ENDBRANCH  17  18
BRANCH  17  24
ATOM     24  C   UNL     1      -2.131   1.668   0.721  0.00  0.00    +0.006 A 
ATOM     25  C   UNL     1      -1.943   0.327   0.773  0.00  0.00    +0.013 A 
ATOM     26  C   UNL     1      -2.828  -0.446   1.503  0.00  0.00    +0.008 A 
ATOM     27  C   UNL     1      -3.857   0.160   2.143  0.00  0.00    +0.045 A 
ATOM     28  S   UNL     1      -3.595   1.875   1.722  0.00  0.00    -0.100 S 
ENDBRANCH  17  24
ENDBRANCH   1  17
TORSDOF 6
