REMARK  Name = ZINC08845160
REMARK  12 active torsions:
REMARK  status: ('A' for Active; 'I' for Inactive)
REMARK    1  A    between atoms: C_1  and  C_2
REMARK    2  A    between atoms: C_4  and  C_34
REMARK    3  A    between atoms: C_5  and  O_33
REMARK    4  A    between atoms: C_6  and  C_8
REMARK    5  A    between atoms: N_16  and  C_29
REMARK    6  A    between atoms: C_17  and  C_19
REMARK    7  A    between atoms: C_21  and  O_27
REMARK    8  A    between atoms: C_22  and  O_26
REMARK    9  A    between atoms: O_27  and  C_28
REMARK   10  A    between atoms: C_29  and  C_30
REMARK   11  A    between atoms: C_30  and  C_31
REMARK   12  A    between atoms: C_31  and  O_32
REMARK                            x       y       z     vdW  Elec       q    Type
REMARK                         _______ _______ _______ _____ _____    ______ ____
ROOT
ATOM      1  C   UNL     1      -0.244  -2.516   2.494  0.00  0.00    +0.102 A 
ATOM      2  C   UNL     1       0.035  -2.123   3.807  0.00  0.00    +0.035 A 
ATOM      3  C   UNL     1       0.241  -3.292   4.514  0.00  0.00    +0.126 A 
ATOM      4  N   UNL     1       0.080  -4.311   3.619  0.00  0.00    -0.272 N 
ATOM      5  H   UNL     1       0.164  -5.254   3.828  0.00  0.00    +0.189 HD
ATOM      6  N   UNL     1      -0.205  -3.834   2.460  0.00  0.00    -0.173 NA
ATOM      7  C   UNL     1       0.540  -2.946   5.908  0.00  0.00    +0.265 C 
ATOM      8  O   UNL     1       0.770  -3.753   6.789  0.00  0.00    -0.268 OA
ATOM      9  N   UNL     1       0.525  -1.611   6.074  0.00  0.00    -0.285 N 
ATOM     10  C   UNL     1       0.209  -0.990   4.781  0.00  0.00    +0.141 C 
ENDROOT
BRANCH   1  16
ATOM     11  C   UNL     1      -1.094   2.070   0.714  0.00  0.00    +0.044 C 
ATOM     12  C   UNL     1      -0.947   0.587   0.490  0.00  0.00    -0.049 A 
ATOM     13  C   UNL     1      -1.087   0.065  -0.784  0.00  0.00    +0.010 A 
ATOM     14  C   UNL     1      -0.953  -1.293  -0.999  0.00  0.00    -0.008 A 
ATOM     15  C   UNL     1      -0.679  -2.141   0.063  0.00  0.00    +0.129 A 
ATOM     16  C   UNL     1      -0.537  -1.616   1.350  0.00  0.00    +0.044 A 
ATOM     17  C   UNL     1      -0.667  -0.245   1.555  0.00  0.00    +0.017 A 
ATOM     18  C   UNL     1      -1.107  -1.854  -2.389  0.00  0.00    +0.047 C 
BRANCH  15  19
ATOM     19  O   UNL     1      -0.549  -3.477  -0.147  0.00  0.00    -0.506 OA
ATOM     20  H   UNL     1       0.355  -3.757  -0.347  0.00  0.00    +0.292 HD
ENDBRANCH  15  19
ENDBRANCH   1  16
BRANCH  10  21
ATOM     21  C   UNL     1       1.343  -0.099   4.344  0.00  0.00    -0.018 A 
ATOM     22  C   UNL     1       2.646  -0.556   4.415  0.00  0.00    +0.055 A 
ATOM     23  C   UNL     1       3.690   0.262   4.014  0.00  0.00    +0.163 A 
ATOM     24  C   UNL     1       3.424   1.543   3.539  0.00  0.00    +0.173 A 
ATOM     25  C   UNL     1       2.116   1.995   3.470  0.00  0.00    +0.063 A 
ATOM     26  C   UNL     1       1.078   1.171   3.868  0.00  0.00    +0.025 A 
ATOM     27 BR   UNL     1       1.749   3.734   2.826  0.00  0.00    -0.046 Br
BRANCH  24  28
ATOM     28  O   UNL     1       4.446   2.349   3.144  0.00  0.00    -0.503 OA
ATOM     29  H   UNL     1       4.675   2.264   2.209  0.00  0.00    +0.292 HD
ENDBRANCH  24  28
BRANCH  23  30
ATOM     30  O   UNL     1       4.972  -0.186   4.084  0.00  0.00    -0.491 OA
ATOM     31  C   UNL     1       5.170  -1.515   4.570  0.00  0.00    +0.277 C 
ENDBRANCH  23  30
ENDBRANCH  10  21
BRANCH   9  32
ATOM     32  C   UNL     1       0.779  -0.899   7.329  0.00  0.00    +0.111 C 
BRANCH  32  33
ATOM     33  C   UNL     1       2.274  -0.595   7.449  0.00  0.00    +0.047 C 
BRANCH  33  34
ATOM     34  C   UNL     1       2.539   0.148   8.760  0.00  0.00    +0.157 C 
BRANCH  34  35
ATOM     35  O   UNL     1       3.935   0.432   8.872  0.00  0.00    -0.395 OA
ATOM     36  H   UNL     1       4.177   0.903   9.681  0.00  0.00    +0.209 HD
ENDBRANCH  34  35
ENDBRANCH  33  34
ENDBRANCH  32  33
ENDBRANCH   9  32
TORSDOF 9
