REMARK  Name = ZINC36609669
REMARK  15 active torsions:
REMARK  status: ('A' for Active; 'I' for Inactive)
REMARK    1  A    between atoms: C_1  and  C_2
REMARK    2  A    between atoms: C_2  and  C_3
REMARK    3  A    between atoms: C_2  and  C_4
REMARK    4  A    between atoms: C_2  and  C_5
REMARK    5  A    between atoms: C_5  and  C_6
REMARK    6  A    between atoms: C_6  and  C_7
REMARK    7  A    between atoms: C_6  and  C_8
REMARK    8  A    between atoms: C_6  and  N_9
REMARK    9  A    between atoms: C_10  and  C_12
REMARK   10  A    between atoms: C_12  and  C_14
REMARK   11  A    between atoms: C_12  and  N_23
REMARK   12  A    between atoms: C_17  and  N_20
REMARK   13  A    between atoms: N_23  and  C_24
REMARK   14  A    between atoms: C_30  and  C_32
REMARK   15  A    between atoms: C_33  and  C_34
REMARK                            x       y       z     vdW  Elec       q    Type
REMARK                         _______ _______ _______ _____ _____    ______ ____
ROOT
ATOM      1  C   UNL     1       5.334  -0.490  -4.195  0.00  0.00    +0.198 C 
ENDROOT
BRANCH   1   2
ATOM      2  C   UNL     1       5.262  -1.960  -4.519  0.00  0.00    -0.018 A 
ATOM      3  C   UNL     1       6.060  -2.858  -3.834  0.00  0.00    +0.008 A 
ATOM      4  C   UNL     1       5.994  -4.206  -4.131  0.00  0.00    +0.033 A 
ATOM      5  C   UNL     1       5.130  -4.657  -5.112  0.00  0.00    +0.126 A 
ATOM      6  C   UNL     1       4.332  -3.759  -5.795  0.00  0.00    +0.033 A 
ATOM      7  C   UNL     1       4.394  -2.410  -5.496  0.00  0.00    +0.008 A 
BRANCH   5   8
ATOM      8  N   UNL     1       5.059  -6.100  -5.431  0.00  0.00    +0.056 N 
ATOM      9  O   UNL     1       5.758  -6.886  -4.833  0.00  0.00    -0.126 OA
ATOM     10  O   UNL     1       4.304  -6.494  -6.288  0.00  0.00    -0.126 OA
ENDBRANCH   5   8
ENDBRANCH   1   2
BRANCH   1  12
ATOM     11  N   UNL     1       3.550  -0.597  -2.485  0.00  0.00    -0.308 N 
ATOM     12  C   UNL     1       4.815  -0.256  -2.799  0.00  0.00    +0.239 C 
ATOM     13  O   UNL     1       5.537   0.238  -1.959  0.00  0.00    -0.273 OA
ATOM     14  H   UNL     1       2.973  -0.993  -3.157  0.00  0.00    +0.149 HD
BRANCH  11  15
ATOM     15  C   UNL     1       3.045  -0.371  -1.129  0.00  0.00    +0.030 C 
ATOM     16  C   UNL     1       3.260   1.094  -0.743  0.00  0.00    +0.031 C 
ATOM     17  C   UNL     1       3.798  -1.272  -0.147  0.00  0.00    +0.031 C 
BRANCH  15  18
ATOM     18  C   UNL     1       1.552  -0.698  -1.079  0.00  0.00    +0.031 C 
BRANCH  18  20
ATOM     19  C   UNL     1       1.061  -1.052  -3.503  0.00  0.00    +0.010 C 
ATOM     20  C   UNL     1       0.860  -0.114  -2.312  0.00  0.00    -0.036 C 
ATOM     21  C   UNL     1       1.463   1.255  -2.634  0.00  0.00    +0.010 C 
ATOM     22  C   UNL     1      -0.636   0.041  -2.032  0.00  0.00    +0.010 C 
ENDBRANCH  18  20
ENDBRANCH  15  18
ENDBRANCH  11  15
ENDBRANCH   1  12
BRANCH   1  23
ATOM     23  N   UNL     1       6.725  -0.038  -4.280  0.00  0.00    -0.245 N 
ATOM     24  C   UNL     1       7.024   1.263  -4.099  0.00  0.00    +0.297 C 
ATOM     25  O   UNL     1       6.152   2.049  -3.777  0.00  0.00    -0.260 OA
BRANCH  23  26
ATOM     26  C   UNL     1       7.743  -0.958  -4.550  0.00  0.00    +0.038 A 
ATOM     27  C   UNL     1       7.805  -1.585  -5.788  0.00  0.00    +0.023 A 
ATOM     28  C   UNL     1       8.812  -2.492  -6.051  0.00  0.00    +0.002 A 
ATOM     29  C   UNL     1       9.758  -2.778  -5.083  0.00  0.00    +0.000 A 
ATOM     30  C   UNL     1       9.699  -2.156  -3.850  0.00  0.00    +0.002 A 
ATOM     31  C   UNL     1       8.698  -1.243  -3.582  0.00  0.00    +0.023 A 
ENDBRANCH  23  26
BRANCH  24  32
ATOM     32  C   UNL     1       8.368   1.722  -4.285  0.00  0.00    -0.002 C 
ATOM     33  C   UNL     1       9.469   2.099  -4.437  0.00  0.00    -0.057 C 
BRANCH  33  34
ATOM     34  C   UNL     1      10.813   2.558  -4.623  0.00  0.00    +0.025 A 
ATOM     35  C   UNL     1      11.817   1.659  -4.998  0.00  0.00    +0.017 A 
ATOM     36  C   UNL     1      13.108   2.109  -5.176  0.00  0.00    +0.001 A 
ATOM     37  C   UNL     1      13.412   3.446  -4.983  0.00  0.00    +0.000 A 
ATOM     38  C   UNL     1      12.424   4.341  -4.612  0.00  0.00    +0.001 A 
ATOM     39  C   UNL     1      11.127   3.908  -4.436  0.00  0.00    +0.017 A 
ENDBRANCH  33  34
ENDBRANCH  24  32
ENDBRANCH   1  23
TORSDOF 10
