REMARK  Name = ZINC38959489
REMARK  5 active torsions:
REMARK  status: ('A' for Active; 'I' for Inactive)
REMARK    1  A    between atoms: N_7  and  C_8
REMARK    2  A    between atoms: C_11  and  C_14
REMARK    3  A    between atoms: C_17  and  N_22
REMARK    4  A    between atoms: N_22  and  S_23
REMARK    5  A    between atoms: S_23  and  C_26
REMARK                            x       y       z     vdW  Elec       q    Type
REMARK                         _______ _______ _______ _____ _____    ______ ____
ROOT
ATOM      1  C   UNL     1      -0.030   1.321  -0.308  0.00  0.00    +0.002 A 
ATOM      2  C   UNL     1       1.144   2.054  -0.539  0.00  0.00    +0.002 A 
ATOM      3  C   UNL     1       2.372   1.488  -0.534  0.00  0.00    +0.028 A 
ATOM      4  C   UNL     1       2.521   0.101  -0.290  0.00  0.00    +0.064 A 
ATOM      5  N   UNL     1       3.721  -0.446  -0.285  0.00  0.00    -0.342 N 
ATOM      6  C   UNL     1       3.898  -1.750  -0.059  0.00  0.00    +0.107 C 
ATOM      7  N   UNL     1       5.104  -2.268  -0.060  0.00  0.00    -0.235 NA
ATOM      8  C   UNL     1       2.690  -2.622   0.199  0.00  0.00    +0.062 C 
ATOM      9  N   UNL     1       1.365  -1.982   0.188  0.00  0.00    -0.395 N 
ATOM     10  C   UNL     1       1.297  -0.698  -0.042  0.00  0.00    +0.058 A 
ATOM     11  C   UNL     1      -0.001  -0.009  -0.065  0.00  0.00    +0.027 A 
ATOM     12  H   UNL     1       0.561  -2.501   0.349  0.00  0.00    +0.158 HD
ATOM     13  H   UNL     1       4.496   0.113  -0.451  0.00  0.00    +0.167 HD
ENDROOT
BRANCH   7  14
ATOM     14  C   UNL     1       6.192  -1.458  -0.168  0.00  0.00    +0.066 A 
ATOM     15  C   UNL     1       6.382  -0.414   0.748  0.00  0.00    +0.028 A 
ATOM     16  C   UNL     1       7.474   0.397   0.639  0.00  0.00    +0.017 A 
ATOM     17  C   UNL     1       8.403   0.187  -0.387  0.00  0.00    +0.063 A 
ATOM     18  C   UNL     1       8.214  -0.856  -1.301  0.00  0.00    +0.017 A 
ATOM     19  C   UNL     1       7.126  -1.672  -1.191  0.00  0.00    +0.028 A 
BRANCH  17  20
ATOM     20  C   UNL     1       9.581   1.064  -0.503  0.00  0.00    +0.387 C 
ATOM     21  O   UNL     1       9.746   1.976   0.295  0.00  0.00    -0.241 OA
ATOM     22  O   UNL     1      10.394   0.881  -1.399  0.00  0.00    -0.241 OA
ENDBRANCH  17  20
ENDBRANCH   7  14
BRANCH   8  23
ATOM     23  N   UNL     1       2.868  -3.256   1.508  0.00  0.00    +0.492 NA
BRANCH  23  24
ATOM     24  S   UNL     1       1.710  -4.284   2.094  0.00  0.00    -0.050 S 
ATOM     25  O   UNL     1       0.550  -3.498   2.327  0.00  0.00    -0.191 OA
ATOM     26  O   UNL     1       1.703  -5.418   1.238  0.00  0.00    -0.191 OA
BRANCH  24  27
ATOM     27  C   UNL     1       2.262  -4.846   3.671  0.00  0.00    +0.103 A 
ATOM     28  C   UNL     1       2.037  -4.309   4.895  0.00  0.00    +0.032 A 
ATOM     29  C   UNL     1       2.575  -4.928   6.007  0.00  0.00    +0.009 A 
ATOM     30  C   UNL     1       3.312  -6.054   5.841  0.00  0.00    +0.047 A 
ATOM     31  S   UNL     1       3.256  -6.274   4.070  0.00  0.00    -0.081 S 
ENDBRANCH  24  27
ENDBRANCH  23  24
ENDBRANCH   8  23
TORSDOF 5
