REMARK  Name = ZINC13064835
REMARK  11 active torsions:
REMARK  status: ('A' for Active; 'I' for Inactive)
REMARK    1  A    between atoms: C_1  and  C_2
REMARK    2  A    between atoms: C_2  and  C_3
REMARK    3  A    between atoms: C_3  and  C_5
REMARK    4  A    between atoms: C_3  and  N_72
REMARK    5  A    between atoms: N_9  and  C_10
REMARK    6  A    between atoms: C_16  and  C_17
REMARK    7  A    between atoms: C_16  and  N_72
REMARK    8  A    between atoms: C_24  and  C_25
REMARK    9  A    between atoms: C_24  and  N_72
REMARK   10  A    between atoms: C_28  and  C_38
REMARK   11  A    between atoms: C_30  and  C_37
REMARK                            x       y       z     vdW  Elec       q    Type
REMARK                         _______ _______ _______ _____ _____    ______ ____
ROOT
ATOM      1  N   UNL     1      -0.081  -0.725   2.222  0.00  0.00    +0.392 N 
ATOM      2  H   UNL     1      -0.974  -0.529   2.690  0.00  0.00    -0.080 HD
ENDROOT
BRANCH   1   3
ATOM      3  C   UNL     1       0.981   0.085   2.856  0.00  0.00    +0.003 C 
BRANCH   3   4
ATOM      4  C   UNL     1       2.337  -0.340   2.357  0.00  0.00    +0.138 A 
ATOM      5  N   UNL     1       2.749  -1.569   2.158  0.00  0.00    -0.115 NA
ATOM      6  N   UNL     1       3.962  -1.518   1.728  0.00  0.00    -0.023 NA
ATOM      7  N   UNL     1       4.338  -0.289   1.654  0.00  0.00    -0.044 NA
ATOM      8  N   UNL     1       3.364   0.468   2.034  0.00  0.00    -0.228 N 
BRANCH   8   9
ATOM      9  C   UNL     1       3.374   1.931   2.100  0.00  0.00    +0.111 C 
ATOM     10  C   UNL     1       3.835   2.499   0.756  0.00  0.00    +0.027 C 
ATOM     11  C   UNL     1       3.846   4.028   0.826  0.00  0.00    +0.002 C 
ATOM     12  C   UNL     1       4.805   4.482   1.928  0.00  0.00    +0.000 C 
ATOM     13  C   UNL     1       4.344   3.913   3.272  0.00  0.00    +0.002 C 
ATOM     14  C   UNL     1       4.333   2.385   3.202  0.00  0.00    +0.027 C 
ENDBRANCH   8   9
ENDBRANCH   3   4
BRANCH   3  16
ATOM     15  C   UNL     1      -0.415   0.443   4.897  0.00  0.00    +0.002 C 
ATOM     16  C   UNL     1       0.911  -0.111   4.372  0.00  0.00    -0.011 C 
ENDBRANCH   3  16
ENDBRANCH   1   3
BRANCH   1  17
ATOM     17  C   UNL     1      -0.201  -0.370   0.792  0.00  0.00    -0.042 C 
BRANCH  17  18
ATOM     18  C   UNL     1      -0.877   0.972   0.681  0.00  0.00    -0.064 A 
ATOM     19  C   UNL     1      -2.257   1.049   0.638  0.00  0.00    +0.004 A 
ATOM     20  C   UNL     1      -2.878   2.279   0.541  0.00  0.00    +0.038 A 
ATOM     21  C   UNL     1      -2.118   3.435   0.477  0.00  0.00    +0.123 A 
ATOM     22  C   UNL     1      -0.736   3.356   0.515  0.00  0.00    +0.038 A 
ATOM     23  C   UNL     1      -0.117   2.125   0.617  0.00  0.00    +0.004 A 
ATOM     24  F   UNL     1      -2.724   4.638   0.378  0.00  0.00    -0.205 F 
ENDBRANCH  17  18
ENDBRANCH   1  17
BRANCH   1  25
ATOM     25  C   UNL     1       0.228  -2.163   2.362  0.00  0.00    -0.036 C 
BRANCH  25  26
ATOM     26  C   UNL     1      -1.040  -2.952   2.159  0.00  0.00    +0.001 A 
ATOM     27  C   UNL     1      -1.326  -3.469   0.939  0.00  0.00    +0.017 A 
ATOM     28  C   UNL     1      -2.566  -4.230   0.775  0.00  0.00    +0.002 A 
ATOM     29  C   UNL     1      -2.915  -4.787  -0.460  0.00  0.00    -0.041 A 
ATOM     30  C   UNL     1      -4.079  -5.492  -0.580  0.00  0.00    +0.007 A 
ATOM     31  C   UNL     1      -4.918  -5.661   0.513  0.00  0.00    -0.048 A 
ATOM     32  C   UNL     1      -4.595  -5.120   1.739  0.00  0.00    +0.029 A 
ATOM     33  C   UNL     1      -3.415  -4.398   1.885  0.00  0.00    +0.050 A 
ATOM     34  N   UNL     1      -3.066  -3.847   3.100  0.00  0.00    -0.322 N 
ATOM     35  H   UNL     1      -3.652  -3.965   3.864  0.00  0.00    +0.169 HD
ATOM     36  C   UNL     1      -1.922  -3.155   3.242  0.00  0.00    +0.251 A 
ATOM     37  O   UNL     1      -1.643  -2.685   4.332  0.00  0.00    -0.268 OA
ATOM     38  C   UNL     1      -6.197  -6.442   0.357  0.00  0.00    +0.044 C 
ATOM     39  C   UNL     1      -2.011  -4.611  -1.652  0.00  0.00    +0.044 C 
ENDBRANCH  25  26
ENDBRANCH   1  25
TORSDOF 8
