REMARK  Name = ZINC00866725
REMARK  8 active torsions:
REMARK  status: ('A' for Active; 'I' for Inactive)
REMARK    1  A    between atoms: C_1  and  C_2
REMARK    2  A    between atoms: C_2  and  C_3
REMARK    3  A    between atoms: C_4  and  C_33
REMARK    4  A    between atoms: C_6  and  N_10
REMARK    5  A    between atoms: C_7  and  C_8
REMARK    6  A    between atoms: C_11  and  C_13
REMARK    7  A    between atoms: C_18  and  C_29
REMARK    8  A    between atoms: C_21  and  C_24
REMARK                            x       y       z     vdW  Elec       q    Type
REMARK                         _______ _______ _______ _____ _____    ______ ____
ROOT
ATOM      1  C   UNL     1      -6.527  -2.400  -2.807  0.00  0.00    +0.149 A 
ATOM      2  C   UNL     1      -7.842  -2.879  -2.612  0.00  0.00    +0.078 A 
ATOM      3  C   UNL     1      -8.387  -3.076  -3.829  0.00  0.00    +0.119 A 
ATOM      4  N   UNL     1      -7.458  -2.739  -4.771  0.00  0.00    -0.238 N 
ATOM      5  N   UNL     1      -6.308  -2.314  -4.107  0.00  0.00    -0.164 NA
ATOM      6  C   UNL     1      -7.695  -2.828  -6.215  0.00  0.00    +0.215 C 
ATOM      7  C   UNL     1      -8.877  -3.771  -6.466  0.00  0.00    +0.063 C 
ATOM      8  C   UNL     1     -10.060  -3.373  -5.578  0.00  0.00    +0.111 C 
ATOM      9  N   UNL     1      -9.663  -3.537  -4.165  0.00  0.00    -0.322 N 
ATOM     10  H   UNL     1     -10.253  -3.941  -3.510  0.00  0.00    +0.148 HD
ENDROOT
BRANCH   8  11
ATOM     11  C   UNL     1     -11.242  -4.258  -5.881  0.00  0.00    +0.010 A 
ATOM     12  C   UNL     1     -12.324  -4.001  -6.656  0.00  0.00    +0.013 A 
ATOM     13  C   UNL     1     -13.296  -4.974  -6.793  0.00  0.00    +0.008 A 
ATOM     14  C   UNL     1     -13.139  -6.156  -6.150  0.00  0.00    +0.045 A 
ATOM     15  S   UNL     1     -11.575  -5.920  -5.321  0.00  0.00    -0.100 S 
ENDBRANCH   8  11
BRANCH   1  17
ATOM     16  N   UNL     1      -4.338  -1.596  -2.063  0.00  0.00    -0.274 N 
ATOM     17  C   UNL     1      -5.566  -2.050  -1.741  0.00  0.00    +0.269 C 
ATOM     18  O   UNL     1      -5.882  -2.171  -0.574  0.00  0.00    -0.268 OA
ATOM     19  H   UNL     1      -4.086  -1.499  -2.995  0.00  0.00    +0.156 HD
BRANCH  16  23
ATOM     20  C   UNL     1      -1.412  -0.526   0.013  0.00  0.00    -0.018 A 
ATOM     21  C   UNL     1      -2.074  -0.774   1.159  0.00  0.00    -0.007 A 
ATOM     22  S   UNL     1      -3.659  -1.356   0.597  0.00  0.00    -0.077 S 
ATOM     23  C   UNL     1      -3.436  -1.267  -1.063  0.00  0.00    +0.090 A 
ATOM     24  C   UNL     1      -2.143  -0.784  -1.206  0.00  0.00    +0.084 A 
ATOM     25  C   UNL     1      -1.589  -0.602   2.575  0.00  0.00    +0.052 C 
BRANCH  20  27
ATOM     26  C   UNL     1      -0.019   1.526   0.010  0.00  0.00    +0.009 C 
ATOM     27  C   UNL     1       0.002  -0.004   0.002  0.00  0.00    +0.034 C 
ENDBRANCH  20  27
BRANCH  24  28
ATOM     28  C   UNL     1      -1.563  -0.558  -2.495  0.00  0.00    +0.102 C 
ATOM     29  N   UNL     1      -1.102  -0.378  -3.518  0.00  0.00    -0.191 NA
ENDBRANCH  24  28
ENDBRANCH  16  23
ENDBRANCH   1  17
BRANCH   6  30
ATOM     30  C   UNL     1      -6.444  -3.375  -6.906  0.00  0.00    +0.412 C 
ATOM     31  F   UNL     1      -6.151  -4.647  -6.403  0.00  0.00    -0.168 F 
ATOM     32  F   UNL     1      -6.672  -3.459  -8.284  0.00  0.00    -0.168 F 
ATOM     33  F   UNL     1      -5.365  -2.518  -6.664  0.00  0.00    -0.168 F 
ENDBRANCH   6  30
TORSDOF 6
