REMARK  Name = ZINC42740467
REMARK  5 active torsions:
REMARK  status: ('A' for Active; 'I' for Inactive)
REMARK    1  A    between atoms: C_1  and  C_2
REMARK    2  A    between atoms: N_11  and  C_12
REMARK    3  A    between atoms: C_15  and  S_19
REMARK    4  A    between atoms: C_17  and  N_18
REMARK    5  A    between atoms: S_19  and  N_22
REMARK                            x       y       z     vdW  Elec       q    Type
REMARK                         _______ _______ _______ _____ _____    ______ ____
ROOT
ATOM      1  C   UNL     1       1.456   0.371   1.989  0.00  0.00    +0.051 A 
ATOM      2  C   UNL     1       0.867   1.045   3.048  0.00  0.00    +0.027 A 
ATOM      3  C   UNL     1       1.621   1.903   3.827  0.00  0.00    +0.030 A 
ATOM      4  C   UNL     1       2.963   2.092   3.554  0.00  0.00    +0.107 A 
ATOM      5  C   UNL     1       3.559   1.423   2.501  0.00  0.00    +0.053 A 
ATOM      6  C   UNL     1       2.812   0.557   1.717  0.00  0.00    +0.048 A 
ENDROOT
BRANCH   1  16
ATOM      7  C   UNL     1      -0.019   1.526   0.010  0.00  0.00    +0.033 C 
ATOM      8  C   UNL     1       0.002  -0.004   0.002  0.00  0.00    +0.101 C 
ATOM      9  C   UNL     1      -1.428  -0.541   0.033  0.00  0.00    -0.017 A 
ATOM     10  C   UNL     1      -2.439  -0.067  -0.801  0.00  0.00    +0.013 A 
ATOM     11  C   UNL     1      -3.683  -0.593  -0.722  0.00  0.00    +0.046 A 
ATOM     12  S   UNL     1      -3.485  -1.814   0.567  0.00  0.00    -0.101 S 
ATOM     13  C   UNL     1      -1.767  -1.530   0.903  0.00  0.00    -0.004 A 
ATOM     14  C   UNL     1      -0.893  -2.210   1.907  0.00  0.00    +0.061 C 
ATOM     15  C   UNL     1       0.575  -1.920   1.558  0.00  0.00    +0.111 C 
ATOM     16  N   UNL     1       0.695  -0.499   1.200  0.00  0.00    -0.321 N 
ENDBRANCH   1  16
BRANCH   6  17
ATOM     17  N   UNL     1       3.414  -0.126   0.653  0.00  0.00    -0.356 N 
ATOM     18  H   UNL     1       2.889  -0.728   0.104  0.00  0.00    +0.142 HD
ATOM     19  H   UNL     1       4.357   0.005   0.466  0.00  0.00    +0.142 HD
ENDBRANCH   6  17
BRANCH   4  20
ATOM     20  S   UNL     1       3.917   3.187   4.551  0.00  0.00    +0.056 S 
ATOM     21  O   UNL     1       5.017   3.607   3.755  0.00  0.00    -0.153 OA
ATOM     22  O   UNL     1       3.003   4.106   5.133  0.00  0.00    -0.153 OA
BRANCH  20  23
ATOM     23  N   UNL     1       4.547   2.294   5.795  0.00  0.00    -0.204 NA
ATOM     24  H   UNL     1       4.354   1.345   5.857  0.00  0.00    +0.144 HD
ATOM     25  H   UNL     1       5.109   2.719   6.462  0.00  0.00    +0.144 HD
ENDBRANCH  20  23
ENDBRANCH   4  20
TORSDOF 4
