REMARK  Name = ZINC10531727
REMARK  11 active torsions:
REMARK  status: ('A' for Active; 'I' for Inactive)
REMARK    1  A    between atoms: C_1  and  C_2
REMARK    2  A    between atoms: C_3  and  N_15
REMARK    3  A    between atoms: N_6  and  C_9
REMARK    4  A    between atoms: N_7  and  C_8
REMARK    5  A    between atoms: C_16  and  C_18
REMARK    6  A    between atoms: C_18  and  C_20
REMARK    7  A    between atoms: C_18  and  O_21
REMARK    8  A    between atoms: O_21  and  C_22
REMARK    9  A    between atoms: C_22  and  C_24
REMARK   10  A    between atoms: C_27  and  N_33
REMARK   11  A    between atoms: C_28  and  N_30
REMARK                            x       y       z     vdW  Elec       q    Type
REMARK                         _______ _______ _______ _____ _____    ______ ____
ROOT
ATOM      1  N   UNL     1       2.149  -8.029  -1.547  0.00  0.00    -0.277 N 
ATOM      2  C   UNL     1       1.908  -6.712  -1.399  0.00  0.00    +0.258 C 
ATOM      3  O   UNL     1       2.672  -5.898  -1.875  0.00  0.00    -0.271 OA
ATOM      4  H   UNL     1       1.500  -8.679  -1.233  0.00  0.00    +0.155 HD
ENDROOT
BRANCH   1   7
ATOM      5  C   UNL     1       4.186  -9.924  -0.252  0.00  0.00    +0.067 C 
ATOM      6  C   UNL     1       4.262  -9.295  -1.620  0.00  0.00    +0.059 A 
ATOM      7  C   UNL     1       3.342  -8.463  -2.158  0.00  0.00    +0.121 A 
ATOM      8  C   UNL     1       3.813  -8.103  -3.496  0.00  0.00    +0.293 A 
ATOM      9  O   UNL     1       3.249  -7.372  -4.290  0.00  0.00    -0.264 OA
ATOM     10  N   UNL     1       4.992  -8.731  -3.679  0.00  0.00    -0.216 N 
ATOM     11  N   UNL     1       5.274  -9.473  -2.526  0.00  0.00    -0.282 N 
ATOM     12  C   UNL     1       6.462 -10.305  -2.320  0.00  0.00    +0.171 C 
BRANCH  10  13
ATOM     13  C   UNL     1       5.791  -8.660  -4.825  0.00  0.00    +0.067 A 
ATOM     14  C   UNL     1       7.153  -8.409  -4.710  0.00  0.00    +0.028 A 
ATOM     15  C   UNL     1       7.940  -8.345  -5.843  0.00  0.00    +0.002 A 
ATOM     16  C   UNL     1       7.372  -8.518  -7.091  0.00  0.00    +0.000 A 
ATOM     17  C   UNL     1       6.016  -8.762  -7.210  0.00  0.00    +0.002 A 
ATOM     18  C   UNL     1       5.224  -8.834  -6.081  0.00  0.00    +0.028 A 
ENDBRANCH  10  13
ENDBRANCH   1   7
BRANCH   2  19
ATOM     19  C   UNL     1       0.691  -6.248  -0.641  0.00  0.00    +0.259 C 
ATOM     20  C   UNL     1       0.811  -6.670   0.825  0.00  0.00    +0.062 C 
BRANCH  19  21
ATOM     21  O   UNL     1       0.592  -4.802  -0.721  0.00  0.00    -0.449 OA
BRANCH  21  22
ATOM     22  C   UNL     1      -0.646  -4.270  -0.679  0.00  0.00    +0.340 C 
ATOM     23  O   UNL     1      -1.616  -4.995  -0.578  0.00  0.00    -0.245 OA
BRANCH  22  24
ATOM     24  C   UNL     1      -0.823  -2.809  -0.756  0.00  0.00    +0.061 A 
ATOM     25  C   UNL     1       0.292  -1.973  -0.873  0.00  0.00    +0.017 A 
ATOM     26  C   UNL     1       0.127  -0.619  -0.944  0.00  0.00    +0.026 A 
ATOM     27  C   UNL     1      -1.150  -0.066  -0.902  0.00  0.00    +0.055 A 
ATOM     28  C   UNL     1      -2.265  -0.890  -0.780  0.00  0.00    +0.147 A 
ATOM     29  C   UNL     1      -2.107  -2.256  -0.713  0.00  0.00    +0.049 A 
BRANCH  28  30
ATOM     30  N   UNL     1      -3.621  -0.298  -0.729  0.00  0.00    +0.058 N 
ATOM     31  O   UNL     1      -4.468  -0.778   0.004  0.00  0.00    -0.126 OA
ATOM     32  O   UNL     1      -3.890   0.668  -1.419  0.00  0.00    -0.126 OA
ENDBRANCH  28  30
BRANCH  27  33
ATOM     33  N   UNL     1      -1.311   1.313  -0.975  0.00  0.00    -0.356 N 
ATOM     34  H   UNL     1      -0.533   1.892  -0.997  0.00  0.00    +0.142 HD
ATOM     35  H   UNL     1      -2.201   1.696  -1.008  0.00  0.00    +0.142 HD
ENDBRANCH  27  33
ENDBRANCH  22  24
ENDBRANCH  21  22
ENDBRANCH  19  21
ENDBRANCH   2  19
TORSDOF 8
