REMARK  Name = ZINC51738892
REMARK  14 active torsions:
REMARK  status: ('A' for Active; 'I' for Inactive)
REMARK    1  A    between atoms: C_1  and  C_2
REMARK    2  A    between atoms: C_2  and  C_3
REMARK    3  A    between atoms: C_2  and  C_4
REMARK    4  A    between atoms: C_4  and  C_6
REMARK    5  A    between atoms: C_4  and  N_21
REMARK    6  A    between atoms: C_6  and  N_7
REMARK    7  A    between atoms: N_7  and  C_8
REMARK    8  A    between atoms: C_11  and  N_18
REMARK    9  A    between atoms: C_13  and  S_14
REMARK   10  A    between atoms: S_14  and  N_17
REMARK   11  A    between atoms: N_21  and  C_22
REMARK   12  A    between atoms: N_21  and  C_25
REMARK   13  A    between atoms: C_22  and  C_23
REMARK   14  A    between atoms: C_25  and  C_26
REMARK                            x       y       z     vdW  Elec       q    Type
REMARK                         _______ _______ _______ _____ _____    ______ ____
ROOT
ATOM      1  N   UNL     1      -3.129   0.658  -0.945  0.00  0.00    -0.344 N 
ATOM      2  H   UNL     1      -3.598   0.390  -0.139  0.00  0.00    +0.146 HD
ENDROOT
BRANCH   1   3
ATOM      3  C   UNL     1      -3.850   1.046  -2.076  0.00  0.00    +0.054 A 
ATOM      4  C   UNL     1      -3.184   1.339  -3.259  0.00  0.00    +0.027 A 
ATOM      5  C   UNL     1      -3.901   1.722  -4.376  0.00  0.00    +0.034 A 
ATOM      6  C   UNL     1      -5.279   1.815  -4.317  0.00  0.00    +0.128 A 
ATOM      7  C   UNL     1      -5.945   1.524  -3.140  0.00  0.00    +0.063 A 
ATOM      8  C   UNL     1      -5.235   1.135  -2.022  0.00  0.00    +0.128 A 
BRANCH   8   9
ATOM      9  S   UNL     1      -6.085   0.758  -0.525  0.00  0.00    +0.058 S 
ATOM     10  O   UNL     1      -5.433   1.485   0.507  0.00  0.00    -0.153 OA
ATOM     11  O   UNL     1      -7.472   0.901  -0.798  0.00  0.00    -0.153 OA
BRANCH   9  12
ATOM     12  N   UNL     1      -5.829  -0.847  -0.207  0.00  0.00    -0.203 NA
ATOM     13  H   UNL     1      -5.290  -1.381  -0.811  0.00  0.00    +0.144 HD
ATOM     14  H   UNL     1      -6.219  -1.253   0.583  0.00  0.00    +0.144 HD
ENDBRANCH   9  12
ENDBRANCH   8   9
BRANCH   6  15
ATOM     15  N   UNL     1      -6.044   2.226  -5.516  0.00  0.00    +0.056 N 
ATOM     16  O   UNL     1      -5.463   2.480  -6.545  0.00  0.00    -0.126 OA
ATOM     17  O   UNL     1      -7.249   2.307  -5.466  0.00  0.00    -0.126 OA
ENDBRANCH   6  15
ENDBRANCH   1   3
BRANCH   1  18
ATOM     18  C   UNL     1      -1.664   0.655  -0.975  0.00  0.00    +0.086 C 
BRANCH  18  19
ATOM     19  C   UNL     1      -1.125   0.357   0.426  0.00  0.00    -0.048 C 
BRANCH  19  21
ATOM     20  C   UNL     1       1.004   1.598   0.019  0.00  0.00    +0.005 C 
ATOM     21  C   UNL     1       0.399   0.238   0.371  0.00  0.00    -0.029 C 
ATOM     22  C   UNL     1       0.924  -0.217   1.734  0.00  0.00    +0.005 C 
ENDBRANCH  19  21
BRANCH  19  23
ATOM     23  N   UNL     1      -1.499   1.447   1.336  0.00  0.00    +0.387 N 
ATOM     24  H   UNL     1      -0.750   1.609   1.993  0.00  0.00    -0.080 HD
BRANCH  23  25
ATOM     25  C   UNL     1      -1.743   2.671   0.561  0.00  0.00    -0.051 C 
BRANCH  25  26
ATOM     26  C   UNL     1      -2.022   3.815   1.502  0.00  0.00    -0.053 C 
ATOM     27  C   UNL     1      -1.295   4.903   1.443  0.00  0.00    +0.002 C 
ENDBRANCH  25  26
ENDBRANCH  23  25
BRANCH  23  28
ATOM     28  C   UNL     1      -2.719   1.079   2.067  0.00  0.00    -0.051 C 
BRANCH  28  29
ATOM     29  C   UNL     1      -2.441  -0.119   2.938  0.00  0.00    -0.053 C 
ATOM     30  C   UNL     1      -2.669  -0.059   4.226  0.00  0.00    +0.002 C 
ENDBRANCH  28  29
ENDBRANCH  23  28
ENDBRANCH  19  23
ENDBRANCH  18  19
ENDBRANCH   1  18
TORSDOF 12
