REMARK  Name = ZINC20182455
REMARK  11 active torsions:
REMARK  status: ('A' for Active; 'I' for Inactive)
REMARK    1  A    between atoms: C_1  and  C_2
REMARK    2  A    between atoms: C_2  and  C_3
REMARK    3  A    between atoms: C_3  and  C_4
REMARK    4  A    between atoms: C_4  and  N_5
REMARK    5  A    between atoms: C_6  and  C_8
REMARK    6  A    between atoms: C_8  and  C_9
REMARK    7  A    between atoms: C_9  and  C_10
REMARK    8  A    between atoms: C_24  and  S_25
REMARK    9  A    between atoms: S_25  and  C_26
REMARK   10  A    between atoms: C_26  and  C_27
REMARK   11  A    between atoms: N_29  and  C_30
REMARK                            x       y       z     vdW  Elec       q    Type
REMARK                         _______ _______ _______ _____ _____    ______ ____
ROOT
ATOM      1  C   UNL     1      -0.475   3.674   0.088  0.00  0.00    +0.194 C 
ATOM      2  C   UNL     1       1.024   3.468   0.061  0.00  0.00    +0.251 C 
ATOM      3  O   UNL     1       1.882   4.325   0.049  0.00  0.00    -0.272 OA
ATOM      4  N   UNL     1       1.206   2.128   0.052  0.00  0.00    -0.200 N 
ATOM      5  C   UNL     1      -0.017   1.478   0.071  0.00  0.00    +0.139 C 
ATOM      6  N   UNL     1      -1.021   2.309   0.087  0.00  0.00    -0.255 NA
ATOM      7  C   UNL     1       0.003  -0.001   0.065  0.00  0.00    +0.041 A 
ATOM      8  C   UNL     1      -1.174  -0.743   0.083  0.00  0.00    +0.013 A 
ATOM      9  C   UNL     1      -1.109  -2.121   0.076  0.00  0.00    +0.001 A 
ATOM     10  C   UNL     1       0.118  -2.768   0.052  0.00  0.00    +0.002 A 
ATOM     11  C   UNL     1       1.294  -2.050   0.034  0.00  0.00    +0.028 A 
ATOM     12  C   UNL     1       1.252  -0.653   0.040  0.00  0.00    +0.077 A 
ATOM     13  N   UNL     1       2.390   0.086   0.023  0.00  0.00    -0.225 NA
ATOM     14  C   UNL     1       2.371   1.391   0.029  0.00  0.00    +0.169 C 
ENDROOT
BRANCH   1  15
ATOM     15  C   UNL     1      -0.891   4.421   1.357  0.00  0.00    +0.045 C 
BRANCH  15  16
ATOM     16  C   UNL     1      -2.390   4.725   1.301  0.00  0.00    +0.098 C 
BRANCH  16  18
ATOM     17  N   UNL     1      -4.083   5.835   2.722  0.00  0.00    -0.315 N 
ATOM     18  C   UNL     1      -2.799   5.462   2.550  0.00  0.00    +0.213 C 
ATOM     19  O   UNL     1      -1.974   5.718   3.401  0.00  0.00    -0.276 OA
ATOM     20  H   UNL     1      -4.831   5.602   1.951  0.00  0.00    +0.149 HD
BRANCH  17  21
ATOM     21  C   UNL     1      -4.481   6.551   3.937  0.00  0.00    +0.104 C 
BRANCH  21  22
ATOM     22  C   UNL     1      -5.979   6.855   3.882  0.00  0.00    +0.018 C 
BRANCH  22  24
ATOM     23  C   UNL     1      -7.894   7.907   5.095  0.00  0.00    +0.004 C 
ATOM     24  C   UNL     1      -6.395   7.603   5.150  0.00  0.00    -0.002 C 
ENDBRANCH  22  24
ENDBRANCH  21  22
ENDBRANCH  17  21
ENDBRANCH  16  18
ENDBRANCH  15  16
ENDBRANCH   1  15
BRANCH  14  25
ATOM     25  S   UNL     1       3.908   2.252   0.006  0.00  0.00    -0.080 S 
BRANCH  25  26
ATOM     26  C   UNL     1       5.054   0.851  -0.021  0.00  0.00    +0.173 C 
BRANCH  26  27
ATOM     27  C   UNL     1       6.471   1.361  -0.043  0.00  0.00    +0.228 C 
ATOM     28  O   UNL     1       6.686   2.555  -0.042  0.00  0.00    -0.275 OA
ATOM     29  N   UNL     1       7.500   0.491  -0.065  0.00  0.00    -0.283 N 
ATOM     30  H   UNL     1       7.309  -0.590   0.007  0.00  0.00    +0.155 HD
BRANCH  29  31
ATOM     31  C   UNL     1       8.814   0.963  -0.181  0.00  0.00    +0.069 A 
ATOM     32  C   UNL     1       9.177   2.164   0.414  0.00  0.00    +0.026 A 
ATOM     33  C   UNL     1      10.473   2.627   0.299  0.00  0.00    +0.002 A 
ATOM     34  C   UNL     1      11.411   1.895  -0.407  0.00  0.00    +0.003 A 
ATOM     35  C   UNL     1      11.055   0.699  -1.001  0.00  0.00    +0.040 A 
ATOM     36  C   UNL     1       9.759   0.227  -0.886  0.00  0.00    +0.144 A 
ATOM     37  F   UNL     1       9.413  -0.945  -1.462  0.00  0.00    -0.204 F 
ENDBRANCH  29  31
ENDBRANCH  26  27
ENDBRANCH  25  26
ENDBRANCH  14  25
TORSDOF 10
