REMARK  Name = ZINC03340923
REMARK  10 active torsions:
REMARK  status: ('A' for Active; 'I' for Inactive)
REMARK    1  A    between atoms: C_1  and  N_2
REMARK    2  A    between atoms: C_3  and  N_34
REMARK    3  A    between atoms: C_4  and  C_11
REMARK    4  A    between atoms: N_7  and  C_10
REMARK    5  A    between atoms: C_11  and  C_13
REMARK    6  A    between atoms: C_13  and  S_14
REMARK    7  A    between atoms: S_14  and  C_15
REMARK    8  A    between atoms: C_18  and  C_27
REMARK    9  A    between atoms: N_19  and  C_20
REMARK   10  A    between atoms: C_20  and  C_21
REMARK                            x       y       z     vdW  Elec       q    Type
REMARK                         _______ _______ _______ _____ _____    ______ ____
ROOT
ATOM      1  C   UNL     1      -2.372   6.367   0.437  0.00  0.00    +0.192 A 
ATOM      2  N   UNL     1      -1.325   7.161   0.487  0.00  0.00    -0.122 NA
ATOM      3  N   UNL     1      -1.702   8.389   0.471  0.00  0.00    -0.128 NA
ATOM      4  C   UNL     1      -3.012   8.456   0.411  0.00  0.00    +0.165 A 
ATOM      5  N   UNL     1      -3.481   7.163   0.382  0.00  0.00    -0.300 N 
ENDROOT
BRANCH   4   6
ATOM      6  C   UNL     1      -3.828   9.688   0.374  0.00  0.00    +0.019 A 
ATOM      7  C   UNL     1      -5.193   9.633   0.663  0.00  0.00    +0.013 A 
ATOM      8  C   UNL     1      -5.948  10.786   0.634  0.00  0.00    +0.021 A 
ATOM      9  C   UNL     1      -5.358  11.995   0.307  0.00  0.00    +0.041 A 
ATOM     10  C   UNL     1      -4.006  12.056   0.014  0.00  0.00    +0.021 A 
ATOM     11  C   UNL     1      -3.239  10.910   0.046  0.00  0.00    +0.013 A 
ATOM     12 CL   UNL     1      -6.317  13.442   0.265  0.00  0.00    -0.084 Cl
ENDBRANCH   4   6
BRANCH   1  13
ATOM     13  S   UNL     1      -2.348   4.606   0.436  0.00  0.00    -0.078 S 
BRANCH  13  14
ATOM     14  C   UNL     1      -0.564   4.315   0.518  0.00  0.00    +0.157 C 
BRANCH  14  15
ATOM     15  C   UNL     1      -0.296   2.832   0.528  0.00  0.00    +0.182 C 
ATOM     16  O   UNL     1      -1.222   2.047   0.484  0.00  0.00    -0.291 OA
BRANCH  15  20
ATOM     17  C   UNL     1       2.896  -0.861   0.914  0.00  0.00    +0.155 C 
ATOM     18  N   UNL     1       2.603   0.568   0.773  0.00  0.00    -0.284 N 
ATOM     19  C   UNL     1       1.302   0.982   0.724  0.00  0.00    +0.116 A 
ATOM     20  C   UNL     1       1.031   2.355   0.589  0.00  0.00    +0.120 A 
ATOM     21  C   UNL     1       2.172   3.276   0.508  0.00  0.00    +0.269 A 
ATOM     22  O   UNL     1       1.996   4.474   0.390  0.00  0.00    -0.267 OA
ATOM     23  N   UNL     1       3.419   2.765   0.566  0.00  0.00    -0.263 N 
ATOM     24  C   UNL     1       3.617   1.443   0.696  0.00  0.00    +0.333 A 
ATOM     25  O   UNL     1       4.757   1.024   0.745  0.00  0.00    -0.246 OA
ATOM     26  C   UNL     1       4.573   3.665   0.488  0.00  0.00    +0.157 C 
BRANCH  19  27
ATOM     27  N   UNL     1       0.286   0.081   0.805  0.00  0.00    -0.344 N 
ATOM     28  H   UNL     1       0.433  -0.841   0.540  0.00  0.00    +0.144 HD
ATOM     29  H   UNL     1      -0.585   0.360   1.128  0.00  0.00    +0.144 HD
ENDBRANCH  19  27
ENDBRANCH  15  20
ENDBRANCH  14  15
ENDBRANCH  13  14
ENDBRANCH   1  13
BRANCH   5  30
ATOM     30  C   UNL     1      -4.878   6.729   0.309  0.00  0.00    +0.157 C 
BRANCH  30  31
ATOM     31  C   UNL     1      -5.387   6.410   1.716  0.00  0.00    +0.138 C 
ATOM     32  C   UNL     1      -6.859   5.949   1.649  0.00  0.00    +0.035 C 
ATOM     33  C   UNL     1      -7.474   6.624   2.905  0.00  0.00    +0.031 C 
ATOM     34  C   UNL     1      -6.665   7.944   2.955  0.00  0.00    +0.160 C 
ATOM     35  O   UNL     1      -5.340   7.589   2.529  0.00  0.00    -0.375 OA
ENDBRANCH  30  31
ENDBRANCH   5  30
TORSDOF 8
