REMARK  Name = ZINC04555318
REMARK  10 active torsions:
REMARK  status: ('A' for Active; 'I' for Inactive)
REMARK    1  A    between atoms: C_1  and  C_2
REMARK    2  A    between atoms: C_2  and  O_3
REMARK    3  A    between atoms: O_3  and  C_4
REMARK    4  A    between atoms: C_7  and  C_12
REMARK    5  A    between atoms: C_9  and  O_10
REMARK    6  A    between atoms: O_10  and  C_11
REMARK    7  A    between atoms: C_23  and  C_24
REMARK    8  A    between atoms: C_23  and  C_25
REMARK    9  A    between atoms: C_23  and  N_55
REMARK   10  A    between atoms: C_26  and  O_28
REMARK                            x       y       z     vdW  Elec       q    Type
REMARK                         _______ _______ _______ _____ _____    ______ ____
ROOT
ATOM      1  C   UNL     1       1.166   3.490  -0.091  0.00  0.00    +0.224 C 
ATOM      2  N   UNL     1      -0.041   4.135   0.459  0.00  0.00    -0.313 N 
ATOM      3  C   UNL     1      -1.231   3.480   0.250  0.00  0.00    +0.080 A 
ATOM      4  C   UNL     1      -1.298   2.099   0.019  0.00  0.00    +0.067 A 
ATOM      5  C   UNL     1      -2.629   1.555  -0.169  0.00  0.00    -0.027 A 
ATOM      6  C   UNL     1      -3.643   2.451  -0.115  0.00  0.00    -0.021 A 
ATOM      7  S   UNL     1      -2.857   4.010   0.193  0.00  0.00    -0.080 S 
ATOM      8  C   UNL     1      -5.100   2.157  -0.285  0.00  0.00    -0.035 C 
ATOM      9  C   UNL     1      -4.412  -0.161  -0.133  0.00  0.00    -0.073 C 
ATOM     10  C   UNL     1      -2.928   0.082  -0.420  0.00  0.00    +0.018 C 
ATOM     11  C   UNL     1      -0.016   1.349   0.009  0.00  0.00    +0.220 C 
ATOM     12  N   UNL     1       1.091   2.038   0.003  0.00  0.00    -0.223 NA
ATOM     13  H   UNL     1       0.003   4.976   0.941  0.00  0.00    +0.149 HD
ATOM     14  N   UNL     1      -5.224   0.811  -0.894  0.00  0.00    +0.384 N 
ATOM     15  H   UNL     1      -4.880   0.849  -1.861  0.00  0.00    -0.081 HD
ENDROOT
BRANCH   1  19
ATOM     16  C   UNL     1       1.590   4.608  -4.197  0.00  0.00    +0.162 A 
ATOM     17  C   UNL     1       0.945   5.454  -3.309  0.00  0.00    +0.050 A 
ATOM     18  C   UNL     1       0.805   5.087  -1.984  0.00  0.00    +0.011 A 
ATOM     19  C   UNL     1       1.316   3.882  -1.538  0.00  0.00    -0.002 A 
ATOM     20  C   UNL     1       1.961   3.034  -2.419  0.00  0.00    +0.056 A 
ATOM     21  C   UNL     1       2.100   3.393  -3.750  0.00  0.00    +0.162 A 
BRANCH  21  22
ATOM     22  O   UNL     1       2.734   2.560  -4.618  0.00  0.00    -0.491 OA
ATOM     23  C   UNL     1       3.233   1.329  -4.089  0.00  0.00    +0.277 C 
ENDBRANCH  21  22
BRANCH  16  24
ATOM     24  O   UNL     1       1.724   4.965  -5.503  0.00  0.00    -0.489 OA
BRANCH  24  26
ATOM     25  C   UNL     1       1.422   6.452  -7.383  0.00  0.00    +0.048 C 
ATOM     26  C   UNL     1       1.176   6.226  -5.890  0.00  0.00    +0.226 C 
ENDBRANCH  24  26
ENDBRANCH  16  24
ENDBRANCH   1  19
BRANCH  14  27
ATOM     27  C   UNL     1      -6.641   0.389  -0.904  0.00  0.00    -0.074 C 
ATOM     28  C   UNL     1      -7.194   0.339   0.521  0.00  0.00    -0.014 C 
ATOM     29  C   UNL     1      -7.452   1.389  -1.731  0.00  0.00    -0.014 C 
ENDBRANCH  14  27
BRANCH  11  30
ATOM     30  O   UNL     1       0.002  -0.004   0.002  0.00  0.00    -0.492 OA
ATOM     31  H   UNL     1       0.891  -0.385  -0.009  0.00  0.00    +0.294 HD
ENDBRANCH  11  30
TORSDOF 6
