REMARK  Name = ZINC13400804
REMARK  6 active torsions:
REMARK  status: ('A' for Active; 'I' for Inactive)
REMARK    1  A    between atoms: C_1  and  C_2
REMARK    2  A    between atoms: C_5  and  S_8
REMARK    3  A    between atoms: S_8  and  O_11
REMARK    4  A    between atoms: O_11  and  C_12
REMARK    5  A    between atoms: C_16  and  C_36
REMARK    6  A    between atoms: C_28  and  C_35
REMARK                            x       y       z     vdW  Elec       q    Type
REMARK                         _______ _______ _______ _____ _____    ______ ____
ROOT
ATOM      1  C   UNL     1       2.145  -0.530  -3.711  0.00  0.00    +0.150 C 
ATOM      2  C   UNL     1       0.700  -1.033  -3.704  0.00  0.00    +0.034 C 
ATOM      3  C   UNL     1      -0.019  -0.498  -2.463  0.00  0.00    +0.010 C 
ATOM      4  C   UNL     1      -0.012   1.032  -2.491  0.00  0.00    -0.026 C 
ATOM      5  C   UNL     1       1.432   1.536  -2.500  0.00  0.00    -0.002 C 
ATOM      6  C   UNL     1       2.151   0.999  -3.739  0.00  0.00    +0.038 C 
ATOM      7  C   UNL     1       2.151   1.048  -1.241  0.00  0.00    +0.004 C 
ATOM      8  C   UNL     1       1.432   1.589  -0.003  0.00  0.00    +0.004 C 
ATOM      9  C   UNL     1      -0.013   1.086   0.008  0.00  0.00    -0.003 C 
ATOM     10  C   UNL     1      -0.733   1.566  -1.251  0.00  0.00    -0.001 C 
ATOM     11  C   UNL     1      -2.165   1.019  -1.226  0.00  0.00    +0.005 C 
ATOM     12  C   UNL     1      -2.892   1.612  -0.023  0.00  0.00    +0.015 C 
ATOM     13  C   UNL     1      -2.219   1.187   1.285  0.00  0.00    +0.029 C 
ATOM     14  C   UNL     1      -0.724   1.546   1.256  0.00  0.00    +0.006 C 
ATOM     15  C   UNL     1      -0.723   3.080   1.409  0.00  0.00    +0.012 C 
ATOM     16  C   UNL     1      -1.863   3.330   2.423  0.00  0.00    +0.075 C 
ATOM     17  C   UNL     1      -2.772   2.103   2.376  0.00  0.00    +0.139 C 
ATOM     18  O   UNL     1      -3.753   1.905   3.052  0.00  0.00    -0.297 OA
ATOM     19  C   UNL     1      -2.455  -0.294   1.589  0.00  0.00    +0.019 C 
ATOM     20  C   UNL     1      -0.732   1.522  -3.748  0.00  0.00    +0.012 C 
ENDROOT
BRANCH   1  21
ATOM     21  O   UNL     1       2.817  -1.031  -4.868  0.00  0.00    -0.231 OA
BRANCH  21  22
ATOM     22  S   UNL     1       3.604  -2.311  -4.622  0.00  0.00    +0.112 S 
ATOM     23  O   UNL     1       4.367  -2.551  -5.797  0.00  0.00    -0.142 OA
ATOM     24  O   UNL     1       4.201  -2.180  -3.339  0.00  0.00    -0.142 OA
BRANCH  22  29
ATOM     25  C   UNL     1      -0.395  -6.811  -4.213  0.00  0.00    +0.044 C 
ATOM     26  C   UNL     1       0.604  -5.687  -4.315  0.00  0.00    -0.050 A 
ATOM     27  C   UNL     1       1.141  -5.349  -5.543  0.00  0.00    +0.005 A 
ATOM     28  C   UNL     1       2.058  -4.319  -5.637  0.00  0.00    +0.030 A 
ATOM     29  C   UNL     1       2.436  -3.625  -4.503  0.00  0.00    +0.117 A 
ATOM     30  C   UNL     1       1.902  -3.966  -3.274  0.00  0.00    +0.030 A 
ATOM     31  C   UNL     1       0.983  -4.994  -3.180  0.00  0.00    +0.005 A 
ENDBRANCH  22  29
ENDBRANCH  21  22
ENDBRANCH   1  21
TORSDOF 3
