REMARK  Name = ZINC59014695
REMARK  10 active torsions:
REMARK  status: ('A' for Active; 'I' for Inactive)
REMARK    1  A    between atoms: C_1  and  C_2
REMARK    2  A    between atoms: C_2  and  O_3
REMARK    3  A    between atoms: O_3  and  C_4
REMARK    4  A    between atoms: C_7  and  C_10
REMARK    5  A    between atoms: N_11  and  N_12
REMARK    6  A    between atoms: C_15  and  S_18
REMARK    7  A    between atoms: S_18  and  C_19
REMARK    8  A    between atoms: C_19  and  C_20
REMARK    9  A    between atoms: C_23  and  C_28
REMARK   10  A    between atoms: C_25  and  C_27
REMARK                            x       y       z     vdW  Elec       q    Type
REMARK                         _______ _______ _______ _____ _____    ______ ____
ROOT
ATOM      1  N   UNL     1       1.867  -7.913   2.945  0.00  0.00    -0.205 N 
ATOM      2  C   UNL     1       2.519  -8.439   4.045  0.00  0.00    +0.232 A 
ATOM      3  N   UNL     1       3.070  -7.748   5.021  0.00  0.00    -0.186 NA
ATOM      4  C   UNL     1       3.609  -8.585   5.915  0.00  0.00    +0.211 A 
ATOM      5  N   UNL     1       3.407  -9.819   5.519  0.00  0.00    -0.144 NA
ATOM      6  N   UNL     1       2.696  -9.751   4.310  0.00  0.00    -0.245 N 
ATOM      7  H   UNL     1       1.487  -8.506   2.277  0.00  0.00    +0.177 HD
ATOM      8  H   UNL     1       2.395 -10.498   3.771  0.00  0.00    +0.192 HD
ENDROOT
BRANCH   1  10
ATOM      9  C   UNL     1       1.143  -6.031   1.761  0.00  0.00    +0.138 C 
ATOM     10  N   UNL     1       1.755  -6.525   2.794  0.00  0.00    -0.188 NA
BRANCH   9  14
ATOM     11  C   UNL     1       0.802  -1.824   1.306  0.00  0.00    +0.121 A 
ATOM     12  C   UNL     1       0.258  -2.670   0.348  0.00  0.00    +0.046 A 
ATOM     13  C   UNL     1       0.366  -4.037   0.492  0.00  0.00    +0.013 A 
ATOM     14  C   UNL     1       1.024  -4.570   1.603  0.00  0.00    -0.005 A 
ATOM     15  C   UNL     1       1.570  -3.715   2.563  0.00  0.00    +0.013 A 
ATOM     16  C   UNL     1       1.462  -2.350   2.409  0.00  0.00    +0.046 A 
BRANCH  11  17
ATOM     17  O   UNL     1       0.693  -0.477   1.160  0.00  0.00    -0.492 OA
BRANCH  17  19
ATOM     18  C   UNL     1      -0.019   1.526   0.010  0.00  0.00    +0.048 C 
ATOM     19  C   UNL     1       0.002  -0.004   0.002  0.00  0.00    +0.225 C 
ENDBRANCH  17  19
ENDBRANCH  11  17
ENDBRANCH   9  14
ENDBRANCH   1  10
BRANCH   4  20
ATOM     20  S   UNL     1       4.453  -8.106   7.385  0.00  0.00    -0.075 S 
BRANCH  20  21
ATOM     21  C   UNL     1       4.933  -9.680   8.148  0.00  0.00    +0.178 C 
BRANCH  21  22
ATOM     22  C   UNL     1       5.674  -9.411   9.432  0.00  0.00    +0.258 C 
ATOM     23  O   UNL     1       5.859  -8.273   9.796  0.00  0.00    -0.270 OA
ATOM     24  N   UNL     1       6.129 -10.438  10.176  0.00  0.00    -0.204 N 
ATOM     25  C   UNL     1       6.806 -10.339  11.355  0.00  0.00    +0.045 A 
ATOM     26  C   UNL     1       7.080 -11.593  11.774  0.00  0.00    +0.048 A 
ATOM     27  C   UNL     1       6.558 -12.489  10.830  0.00  0.00    +0.061 A 
ATOM     28  N   UNL     1       5.986 -11.800   9.879  0.00  0.00    -0.169 NA
ATOM     29  C   UNL     1       6.638 -13.992  10.903  0.00  0.00    +0.067 C 
ATOM     30  C   UNL     1       7.182  -9.062  12.062  0.00  0.00    +0.066 C 
ENDBRANCH  21  22
ENDBRANCH  20  21
ENDBRANCH   4  20
TORSDOF 7
