REMARK  Name = ZINC00831408
REMARK  9 active torsions:
REMARK  status: ('A' for Active; 'I' for Inactive)
REMARK    1  A    between atoms: C_1  and  C_2
REMARK    2  A    between atoms: C_7  and  N_8
REMARK    3  A    between atoms: C_9  and  C_11
REMARK    4  A    between atoms: C_11  and  C_13
REMARK    5  A    between atoms: C_11  and  N_24
REMARK    6  A    between atoms: C_13  and  C_14
REMARK    7  A    between atoms: C_25  and  C_27
REMARK    8  A    between atoms: C_27  and  C_28
REMARK    9  A    between atoms: C_27  and  C_34
REMARK                            x       y       z     vdW  Elec       q    Type
REMARK                         _______ _______ _______ _____ _____    ______ ____
ROOT
ATOM      1  C   UNL     1       6.021  -1.452  -2.729  0.00  0.00    +0.163 C 
ENDROOT
BRANCH   1   3
ATOM      2  N   UNL     1       5.780  -2.576  -4.920  0.00  0.00    -0.284 N 
ATOM      3  C   UNL     1       5.337  -2.424  -3.656  0.00  0.00    +0.238 C 
ATOM      4  O   UNL     1       4.388  -3.070  -3.264  0.00  0.00    -0.273 OA
ATOM      5  H   UNL     1       6.579  -2.111  -5.213  0.00  0.00    +0.155 HD
BRANCH   2  12
ATOM      6  C   UNL     1       5.734  -1.853  -7.671  0.00  0.00    +0.045 C 
ATOM      7  C   UNL     1       5.039  -3.089  -7.160  0.00  0.00    -0.029 A 
ATOM      8  C   UNL     1       4.354  -3.909  -8.036  0.00  0.00    +0.005 A 
ATOM      9  C   UNL     1       3.717  -5.044  -7.568  0.00  0.00    +0.000 A 
ATOM     10  C   UNL     1       3.764  -5.361  -6.223  0.00  0.00    +0.002 A 
ATOM     11  C   UNL     1       4.451  -4.548  -5.343  0.00  0.00    +0.023 A 
ATOM     12  C   UNL     1       5.087  -3.405  -5.809  0.00  0.00    +0.036 A 
ENDBRANCH   2  12
ENDBRANCH   1   3
BRANCH   1  13
ATOM     13  N   UNL     1       5.356  -1.472  -1.424  0.00  0.00    -0.303 N 
ATOM     14  C   UNL     1       4.266  -0.709  -1.211  0.00  0.00    +0.225 C 
ATOM     15  O   UNL     1       3.835  -0.005  -2.100  0.00  0.00    -0.275 OA
ATOM     16  H   UNL     1       5.701  -2.034  -0.713  0.00  0.00    +0.149 HD
BRANCH  14  17
ATOM     17  C   UNL     1       3.582  -0.729   0.132  0.00  0.00    +0.135 C 
BRANCH  17  18
ATOM     18  C   UNL     1       2.399   0.204   0.108  0.00  0.00    -0.031 A 
ATOM     19  C   UNL     1       1.119  -0.299   0.246  0.00  0.00    +0.005 A 
ATOM     20  C   UNL     1       0.034   0.557   0.224  0.00  0.00    +0.000 A 
ATOM     21  C   UNL     1       0.229   1.917   0.064  0.00  0.00    +0.000 A 
ATOM     22  C   UNL     1       1.509   2.420  -0.075  0.00  0.00    +0.000 A 
ATOM     23  C   UNL     1       2.594   1.563  -0.053  0.00  0.00    +0.005 A 
ENDBRANCH  17  18
BRANCH  17  24
ATOM     24  C   UNL     1       4.552  -0.283   1.196  0.00  0.00    -0.031 A 
ATOM     25  C   UNL     1       4.656  -0.993   2.377  0.00  0.00    +0.005 A 
ATOM     26  C   UNL     1       5.549  -0.587   3.351  0.00  0.00    +0.000 A 
ATOM     27  C   UNL     1       6.331   0.535   3.148  0.00  0.00    +0.000 A 
ATOM     28  C   UNL     1       6.223   1.248   1.969  0.00  0.00    +0.000 A 
ATOM     29  C   UNL     1       5.333   0.839   0.993  0.00  0.00    +0.005 A 
ENDBRANCH  17  24
ENDBRANCH  14  17
ENDBRANCH   1  13
BRANCH   1  30
ATOM     30  C   UNL     1       7.487  -1.853  -2.561  0.00  0.00    +0.069 C 
BRANCH  30  31
ATOM     31  C   UNL     1       8.201  -0.814  -1.735  0.00  0.00    -0.020 A 
ATOM     32  C   UNL     1       8.914   0.225  -2.200  0.00  0.00    +0.087 A 
ATOM     33  N   UNL     1       9.411   0.954  -1.154  0.00  0.00    -0.360 N 
ATOM     34  H   UNL     1       9.956   1.752  -1.241  0.00  0.00    +0.165 HD
ATOM     35  C   UNL     1       9.028   0.384   0.039  0.00  0.00    +0.047 A 
ATOM     36  C   UNL     1       8.253  -0.749  -0.273  0.00  0.00    +0.003 A 
ATOM     37  C   UNL     1       7.722  -1.532   0.753  0.00  0.00    +0.010 A 
ATOM     38  C   UNL     1       7.958  -1.196   2.056  0.00  0.00    +0.001 A 
ATOM     39  C   UNL     1       8.722  -0.080   2.369  0.00  0.00    +0.002 A 
ATOM     40  C   UNL     1       9.256   0.708   1.372  0.00  0.00    +0.026 A 
ENDBRANCH  30  31
ENDBRANCH   1  30
TORSDOF 8
