REMARK  Name = ZINC52426919
REMARK  2 active torsions:
REMARK  status: ('A' for Active; 'I' for Inactive)
REMARK    1  A    between atoms: C_11  and  N_14
REMARK    2  A    between atoms: N_14  and  C_15
REMARK                            x       y       z     vdW  Elec       q    Type
REMARK                         _______ _______ _______ _____ _____    ______ ____
ROOT
ATOM      1  N   UNL     1       4.529  -4.065   1.033  0.00  0.00    -0.339 N 
ATOM      2  H   UNL     1       5.295  -4.459   0.588  0.00  0.00    +0.146 HD
ENDROOT
BRANCH   1  13
ATOM      3  C   UNL     1      -0.017   1.382   0.010  0.00  0.00    +0.039 A 
ATOM      4  C   UNL     1       1.192   2.061   0.002  0.00  0.00    +0.116 A 
ATOM      5  N   UNL     1       2.320   1.371  -0.013  0.00  0.00    -0.223 NA
ATOM      6  C   UNL     1       2.303   0.046  -0.020  0.00  0.00    +0.218 A 
ATOM      7  N   UNL     1       1.165  -0.633  -0.013  0.00  0.00    -0.223 NA
ATOM      8  C   UNL     1       0.002  -0.004   0.002  0.00  0.00    +0.116 A 
ATOM      9  N   UNL     1       3.502  -0.645  -0.035  0.00  0.00    -0.298 N 
ATOM     10  C   UNL     1       4.782   0.077  -0.037  0.00  0.00    +0.108 C 
ATOM     11  C   UNL     1       5.642  -0.442   1.119  0.00  0.00    +0.021 C 
ATOM     12  C   UNL     1       5.778  -1.962   1.007  0.00  0.00    +0.025 C 
ATOM     13  C   UNL     1       4.394  -2.608   1.108  0.00  0.00    +0.088 C 
ATOM     14  C   UNL     1       3.520  -2.114  -0.043  0.00  0.00    +0.130 C 
ENDBRANCH   1  13
BRANCH   1  15
ATOM     15  C   UNL     1       3.560  -4.880   1.597  0.00  0.00    +0.038 A 
ATOM     16  C   UNL     1       2.452  -4.340   2.233  0.00  0.00    +0.041 A 
ATOM     17  C   UNL     1       1.499  -5.183   2.788  0.00  0.00    +0.085 A 
ATOM     18  N   UNL     1       1.612  -6.489   2.731  0.00  0.00    -0.361 N 
ATOM     19  C   UNL     1       2.654  -7.079   2.134  0.00  0.00    +0.050 A 
ATOM     20  C   UNL     1       3.667  -6.290   1.538  0.00  0.00    +0.019 A 
ATOM     21  C   UNL     1       4.754  -6.913   0.909  0.00  0.00    +0.013 A 
ATOM     22  C   UNL     1       4.822  -8.273   0.872  0.00  0.00    +0.021 A 
ATOM     23  C   UNL     1       3.824  -9.054   1.453  0.00  0.00    +0.043 A 
ATOM     24  C   UNL     1       2.760  -8.479   2.082  0.00  0.00    +0.046 A 
ATOM     25 CL   UNL     1       3.944 -10.784   1.385  0.00  0.00    -0.083 Cl
ATOM     26  H   UNL     1       0.923  -7.041   3.132  0.00  0.00    +0.165 HD
ENDBRANCH   1  15
TORSDOF 2
