REMARK  Name = ZINC08133603
REMARK  7 active torsions:
REMARK  status: ('A' for Active; 'I' for Inactive)
REMARK    1  A    between atoms: C_1  and  C_2
REMARK    2  A    between atoms: C_2  and  C_3
REMARK    3  A    between atoms: C_2  and  C_4
REMARK    4  A    between atoms: C_4  and  C_6
REMARK    5  A    between atoms: C_4  and  N_16
REMARK    6  A    between atoms: N_8  and  C_9
REMARK    7  A    between atoms: C_17  and  C_19
REMARK                            x       y       z     vdW  Elec       q    Type
REMARK                         _______ _______ _______ _____ _____    ______ ____
ROOT
ATOM      1  C   UNL     1      -2.624   7.716  -0.758  0.00  0.00    +0.161 C 
ENDROOT
BRANCH   1   2
ATOM      2  C   UNL     1      -2.883   8.185  -2.167  0.00  0.00    +0.234 C 
ATOM      3  O   UNL     1      -2.974   7.377  -3.067  0.00  0.00    -0.274 OA
ATOM      4  N   UNL     1      -3.013   9.501  -2.426  0.00  0.00    -0.311 N 
ATOM      5  H   UNL     1      -3.012  10.141  -1.697  0.00  0.00    +0.149 HD
BRANCH   4   6
ATOM      6  C   UNL     1      -3.155   9.965  -3.808  0.00  0.00    +0.073 C 
ATOM      7  C   UNL     1      -1.753  10.090  -4.439  0.00  0.00    +0.022 C 
ATOM      8  C   UNL     1      -1.900  10.057  -5.937  0.00  0.00    +0.002 C 
ATOM      9  C   UNL     1      -1.987  11.468  -6.550  0.00  0.00    +0.000 C 
ATOM     10  C   UNL     1      -2.874  12.423  -5.729  0.00  0.00    +0.000 C 
ATOM     11  C   UNL     1      -4.131  11.759  -5.235  0.00  0.00    +0.002 C 
ATOM     12  C   UNL     1      -3.877  11.228  -3.809  0.00  0.00    +0.022 C 
ENDBRANCH   4   6
ENDBRANCH   1   2
BRANCH   1  13
ATOM     13  N   UNL     1      -2.107   6.345  -0.786  0.00  0.00    -0.303 N 
ATOM     14  C   UNL     1      -1.348   5.890   0.230  0.00  0.00    +0.220 C 
ATOM     15  O   UNL     1      -1.093   6.615   1.168  0.00  0.00    -0.275 OA
ATOM     16  H   UNL     1      -2.312   5.766  -1.537  0.00  0.00    +0.149 HD
BRANCH  14  17
ATOM     17  C   UNL     1      -0.817   4.480   0.201  0.00  0.00    +0.048 C 
ATOM     18  C   UNL     1       0.068   4.294  -1.034  0.00  0.00    +0.019 C 
ATOM     19  C   UNL     1       0.607   2.862  -1.064  0.00  0.00    -0.009 C 
ATOM     20  C   UNL     1       1.431   2.602   0.199  0.00  0.00    +0.007 C 
ATOM     21  C   UNL     1       0.547   2.788   1.433  0.00  0.00    -0.009 C 
ATOM     22  C   UNL     1       0.007   4.219   1.463  0.00  0.00    +0.019 C 
ATOM     23  C   UNL     1      -0.623   1.803   1.375  0.00  0.00    +0.007 C 
ATOM     24  C   UNL     1      -1.447   2.064   0.113  0.00  0.00    -0.009 C 
ATOM     25  C   UNL     1      -0.563   1.878  -1.121  0.00  0.00    +0.007 C 
ATOM     26  C   UNL     1      -1.987   3.495   0.143  0.00  0.00    +0.019 C 
ENDBRANCH  14  17
ENDBRANCH   1  13
BRANCH   1  28
ATOM     27  C   UNL     1      -4.916   6.744  -0.551  0.00  0.00    +0.009 C 
ATOM     28  C   UNL     1      -3.929   7.753   0.040  0.00  0.00    +0.012 C 
ATOM     29  C   UNL     1      -3.645   7.394   1.500  0.00  0.00    +0.009 C 
ENDBRANCH   1  28
TORSDOF 5
