REMARK  Name = ZINC21263868
REMARK  11 active torsions:
REMARK  status: ('A' for Active; 'I' for Inactive)
REMARK    1  A    between atoms: C_1  and  C_2
REMARK    2  A    between atoms: C_5  and  C_7
REMARK    3  A    between atoms: C_7  and  N_8
REMARK    4  A    between atoms: N_8  and  C_9
REMARK    5  A    between atoms: N_8  and  C_15
REMARK    6  A    between atoms: C_15  and  N_17
REMARK    7  A    between atoms: N_17  and  C_18
REMARK    8  A    between atoms: C_20  and  C_26
REMARK    9  A    between atoms: C_20  and  C_27
REMARK   10  A    between atoms: C_22  and  C_24
REMARK   11  A    between atoms: C_22  and  C_25
REMARK                            x       y       z     vdW  Elec       q    Type
REMARK                         _______ _______ _______ _____ _____    ______ ____
ROOT
ATOM      1  C   UNL     1       0.222   5.697  -2.408  0.00  0.00    +0.134 C 
ATOM      2  S   UNL     1       0.657   4.857  -0.981  0.00  0.00    -0.019 S 
ENDROOT
BRANCH   1   3
ATOM      3  N   UNL     1      -0.068   5.012  -3.532  0.00  0.00    -0.324 N 
ATOM      4  H   UNL     1      -0.427   5.545  -4.424  0.00  0.00    +0.148 HD
BRANCH   3   5
ATOM      5  C   UNL     1       0.097   3.553  -3.565  0.00  0.00    +0.069 C 
ATOM      6  C   UNL     1      -0.831   2.966  -4.628  0.00  0.00    +0.009 C 
ATOM      7  C   UNL     1      -0.666   1.450  -4.699  0.00  0.00    -0.072 C 
ATOM      8  N   UNL     1       0.719   1.037  -4.793  0.00  0.00    +0.386 N 
ATOM      9  C   UNL     1       1.735   1.705  -4.007  0.00  0.00    -0.072 C 
ATOM     10  C   UNL     1       1.540   3.218  -3.942  0.00  0.00    +0.009 C 
ATOM     11  C   UNL     1       1.800   1.135  -2.585  0.00  0.00    -0.010 C 
ATOM     12  C   UNL     1       3.107   1.441  -4.668  0.00  0.00    -0.010 C 
ATOM     13  C   UNL     1      -1.402   0.960  -5.965  0.00  0.00    -0.010 C 
ATOM     14  C   UNL     1      -1.357   0.802  -3.493  0.00  0.00    -0.010 C 
ATOM     15  H   UNL     1       0.808  -0.018  -4.495  0.00  0.00    -0.084 HD
ATOM     16  H   UNL     1       1.067   1.156  -5.829  0.00  0.00    -0.084 HD
ENDBRANCH   3   5
ENDBRANCH   1   3
BRANCH   1  17
ATOM     17  N   UNL     1       0.170   7.044  -2.408  0.00  0.00    -0.302 N 
BRANCH  17  18
ATOM     18  C   UNL     1       0.595   7.793  -1.222  0.00  0.00    +0.076 C 
ATOM     19  C   UNL     1       2.042   7.432  -0.882  0.00  0.00    +0.022 C 
ATOM     20  C   UNL     1       2.485   8.214   0.356  0.00  0.00    +0.002 C 
ATOM     21  C   UNL     1       1.580   7.857   1.536  0.00  0.00    +0.000 C 
ATOM     22  C   UNL     1       0.133   8.218   1.196  0.00  0.00    +0.002 C 
ATOM     23  C   UNL     1      -0.311   7.436  -0.042  0.00  0.00    +0.022 C 
ENDBRANCH  17  18
BRANCH  17  24
ATOM     24  C   UNL     1      -0.312   7.759  -3.592  0.00  0.00    +0.181 C 
BRANCH  24  29
ATOM     25  C   UNL     1      -5.269   6.942  -4.037  0.00  0.00    +0.086 C 
ATOM     26  C   UNL     1      -3.958   7.597  -3.684  0.00  0.00    +0.102 A 
ATOM     27  C   UNL     1      -3.813   8.775  -3.052  0.00  0.00    +0.045 A 
ATOM     28  C   UNL     1      -2.423   9.004  -2.928  0.00  0.00    +0.046 A 
ATOM     29  C   UNL     1      -1.803   7.952  -3.491  0.00  0.00    +0.122 A 
ATOM     30  O   UNL     1      -2.738   7.105  -3.952  0.00  0.00    -0.463 OA
ENDBRANCH  24  29
ENDBRANCH  17  24
ENDBRANCH   1  17
TORSDOF 6
