REMARK  Name = ZINC37847771
REMARK  8 active torsions:
REMARK  status: ('A' for Active; 'I' for Inactive)
REMARK    1  A    between atoms: C_1  and  C_2
REMARK    2  A    between atoms: C_8  and  N_10
REMARK    3  A    between atoms: N_10  and  C_11
REMARK    4  A    between atoms: C_11  and  C_12
REMARK    5  A    between atoms: C_12  and  C_14
REMARK    6  A    between atoms: C_12  and  O_24
REMARK    7  A    between atoms: C_14  and  O_15
REMARK    8  A    between atoms: O_15  and  C_16
REMARK                            x       y       z     vdW  Elec       q    Type
REMARK                         _______ _______ _______ _____ _____    ______ ____
ROOT
ATOM      1  C   UNL     1       4.301  -0.055   2.345  0.00  0.00    +0.135 C 
ENDROOT
BRANCH   1   2
ATOM      2  O   UNL     1       4.933  -0.417   1.115  0.00  0.00    -0.390 OA
ATOM      3  H   UNL     1       4.980  -1.371   0.964  0.00  0.00    +0.210 HD
ENDBRANCH   1   2
BRANCH   1   4
ATOM      4  C   UNL     1       2.865  -0.584   2.356  0.00  0.00    -0.047 C 
BRANCH   4   5
ATOM      5  N   UNL     1       2.120  -0.002   1.231  0.00  0.00    +0.383 N 
ATOM      6  H   UNL     1       2.567  -0.259   0.363  0.00  0.00    -0.085 HD
ATOM      7  H   UNL     1       2.109   1.003   1.319  0.00  0.00    -0.085 HD
BRANCH   5  14
ATOM      8  C   UNL     1      -0.019   1.526   0.010  0.00  0.00    +0.006 C 
ATOM      9  C   UNL     1       0.002  -0.004   0.002  0.00  0.00    -0.028 C 
ATOM     10  C   UNL     1      -1.433  -0.534   0.013  0.00  0.00    +0.002 C 
ATOM     11  C   UNL     1      -2.149  -0.040   1.272  0.00  0.00    +0.000 C 
ATOM     12  C   UNL     1      -1.409  -0.547   2.511  0.00  0.00    -0.002 C 
ATOM     13  C   UNL     1       0.026  -0.018   2.500  0.00  0.00    -0.016 C 
ATOM     14  C   UNL     1       0.742  -0.511   1.242  0.00  0.00    -0.069 C 
ENDBRANCH   5  14
ENDBRANCH   4   5
ENDBRANCH   1   4
BRANCH   1  15
ATOM     15  C   UNL     1       5.077  -0.661   3.516  0.00  0.00    +0.258 C 
BRANCH  15  16
ATOM     16  O   UNL     1       6.381  -0.079   3.575  0.00  0.00    -0.489 OA
BRANCH  16  17
ATOM     17  C   UNL     1       7.205  -0.511   4.566  0.00  0.00    +0.122 A 
ATOM     18  C   UNL     1       6.769  -1.479   5.459  0.00  0.00    +0.047 A 
ATOM     19  C   UNL     1       7.607  -1.917   6.465  0.00  0.00    +0.025 A 
ATOM     20  C   UNL     1       8.881  -1.392   6.584  0.00  0.00    +0.059 A 
ATOM     21  C   UNL     1       9.319  -0.425   5.694  0.00  0.00    +0.063 A 
ATOM     22  C   UNL     1       8.484   0.012   4.682  0.00  0.00    +0.067 A 
ATOM     23 CL   UNL     1      10.918   0.233   5.845  0.00  0.00    -0.082 Cl
ATOM     24 CL   UNL     1       9.932  -1.944   7.851  0.00  0.00    -0.082 Cl
ENDBRANCH  16  17
ENDBRANCH  15  16
ENDBRANCH   1  15
TORSDOF 7
