REMARK  Name = ZINC08844419
REMARK  4 active torsions:
REMARK  status: ('A' for Active; 'I' for Inactive)
REMARK    1  A    between atoms: C_8  and  C_12
REMARK    2  A    between atoms: C_12  and  C_14
REMARK    3  A    between atoms: C_12  and  S_16
REMARK    4  A    between atoms: S_16  and  C_19
REMARK                            x       y       z     vdW  Elec       q    Type
REMARK                         _______ _______ _______ _____ _____    ______ ____
ROOT
ATOM      1  C   UNL     1       1.155   2.092   0.002  0.00  0.00    +0.002 A 
ATOM      2  C   UNL     1       2.380   1.426  -0.013  0.00  0.00    +0.002 A 
ATOM      3  C   UNL     1       2.438   0.067  -0.021  0.00  0.00    +0.030 A 
ATOM      4  C   UNL     1       1.248  -0.681  -0.013  0.00  0.00    +0.091 A 
ATOM      5  C   UNL     1       0.002  -0.004   0.002  0.00  0.00    +0.090 A 
ATOM      6  C   UNL     1      -0.017   1.402   0.010  0.00  0.00    +0.030 A 
ATOM      7  N   UNL     1      -1.134  -0.710   0.009  0.00  0.00    -0.244 NA
ATOM      8  C   UNL     1      -1.085  -2.022   0.001  0.00  0.00    +0.117 A 
ATOM      9  C   UNL     1       0.143  -2.691  -0.015  0.00  0.00    +0.154 A 
ATOM     10  N   UNL     1       1.272  -2.018  -0.022  0.00  0.00    -0.232 NA
ATOM     11 CL   UNL     1       0.176  -4.426  -0.025  0.00  0.00    -0.060 Cl
ENDROOT
BRANCH   8  12
ATOM     12  C   UNL     1      -2.366  -2.816   0.008  0.00  0.00    +0.289 C 
BRANCH  12  13
ATOM     13  S   UNL     1      -3.528  -2.100  -1.187  0.00  0.00    +0.025 S 
ATOM     14  O   UNL     1      -3.863  -0.772  -0.808  0.00  0.00    -0.167 OA
ATOM     15  O   UNL     1      -3.108  -2.391  -2.513  0.00  0.00    -0.167 OA
BRANCH  13  16
ATOM     16  C   UNL     1      -5.018  -3.017  -0.975  0.00  0.00    +0.127 A 
ATOM     17  C   UNL     1      -6.061  -2.771  -0.146  0.00  0.00    +0.035 A 
ATOM     18  C   UNL     1      -7.139  -3.636  -0.149  0.00  0.00    +0.009 A 
ATOM     19  C   UNL     1      -7.120  -4.706  -0.981  0.00  0.00    +0.047 A 
ATOM     20  S   UNL     1      -5.548  -4.507  -1.803  0.00  0.00    -0.078 S 
ENDBRANCH  13  16
ENDBRANCH  12  13
BRANCH  12  21
ATOM     21  C   UNL     1      -2.960  -2.777   1.354  0.00  0.00    +0.096 C 
ATOM     22  N   UNL     1      -3.418  -2.746   2.393  0.00  0.00    -0.194 NA
ENDBRANCH  12  21
ENDBRANCH   8  12
TORSDOF 4
