REMARK  Name = ZINC60411415
REMARK  4 active torsions:
REMARK  status: ('A' for Active; 'I' for Inactive)
REMARK    1  A    between atoms: C_5  and  C_11
REMARK    2  A    between atoms: N_13  and  N_14
REMARK    3  A    between atoms: N_17  and  C_18
REMARK    4  A    between atoms: C_18  and  C_19
REMARK                            x       y       z     vdW  Elec       q    Type
REMARK                         _______ _______ _______ _____ _____    ______ ____
ROOT
ATOM      1  C   UNL     1       5.978   0.637  -0.051  0.00  0.00    +0.295 C 
ATOM      2  O   UNL     1       6.628   1.666  -0.052  0.00  0.00    -0.265 OA
ATOM      3  N   UNL     1       6.605  -0.556  -0.063  0.00  0.00    -0.227 N 
ATOM      4  H   UNL     1       6.088  -1.376  -0.062  0.00  0.00    +0.173 HD
ENDROOT
BRANCH   1   9
ATOM      5  C   UNL     1      -0.017   1.384   0.010  0.00  0.00    +0.002 A 
ATOM      6  C   UNL     1       1.152   2.092   0.002  0.00  0.00    +0.012 A 
ATOM      7  C   UNL     1       2.373   1.414  -0.013  0.00  0.00    +0.022 A 
ATOM      8  C   UNL     1       3.773   1.836  -0.024  0.00  0.00    +0.063 A 
ATOM      9  C   UNL     1       4.510   0.696  -0.036  0.00  0.00    +0.192 A 
ATOM     10  O   UNL     1       3.690  -0.376  -0.035  0.00  0.00    -0.449 OA
ATOM     11  C   UNL     1       2.399   0.007  -0.021  0.00  0.00    +0.150 A 
ATOM     12  C   UNL     1       1.197  -0.693  -0.014  0.00  0.00    +0.061 A 
ATOM     13  C   UNL     1       0.002  -0.004   0.002  0.00  0.00    +0.019 A 
ATOM     14 BR   UNL     1       1.201  -2.584  -0.025  0.00  0.00    -0.046 Br
ENDBRANCH   1   9
BRANCH   3  15
ATOM     15  N   UNL     1       8.005  -0.611  -0.076  0.00  0.00    -0.218 N 
ATOM     16  C   UNL     1       8.632  -1.804  -0.089  0.00  0.00    +0.316 C 
ATOM     17  O   UNL     1       9.847  -1.852  -0.101  0.00  0.00    -0.251 OA
ATOM     18  N   UNL     1       7.913  -2.944  -0.088  0.00  0.00    -0.290 N 
ATOM     19  H   UNL     1       8.523   0.209  -0.077  0.00  0.00    +0.174 HD
ATOM     20  H   UNL     1       6.943  -2.905  -0.078  0.00  0.00    +0.151 HD
BRANCH  18  21
ATOM     21  C   UNL     1       8.594  -4.240  -0.101  0.00  0.00    +0.219 C 
BRANCH  21  22
ATOM     22  C   UNL     1       7.555  -5.363  -0.097  0.00  0.00    +0.405 C 
ATOM     23  F   UNL     1       6.743  -5.251  -1.231  0.00  0.00    -0.169 F 
ATOM     24  F   UNL     1       8.206  -6.601  -0.109  0.00  0.00    -0.169 F 
ATOM     25  F   UNL     1       6.765  -5.263   1.054  0.00  0.00    -0.169 F 
ENDBRANCH  21  22
ENDBRANCH  18  21
ENDBRANCH   3  15
TORSDOF 4
