REMARK  Name = ZINC37443597
REMARK  10 active torsions:
REMARK  status: ('A' for Active; 'I' for Inactive)
REMARK    1  A    between atoms: C_1  and  C_2
REMARK    2  A    between atoms: C_7  and  N_12
REMARK    3  A    between atoms: C_9  and  C_11
REMARK    4  A    between atoms: C_13  and  C_15
REMARK    5  A    between atoms: C_15  and  C_33
REMARK    6  A    between atoms: N_27  and  C_28
REMARK    7  A    between atoms: C_28  and  C_29
REMARK    8  A    between atoms: C_29  and  C_30
REMARK    9  A    between atoms: C_30  and  C_31
REMARK   10  A    between atoms: C_30  and  C_32
REMARK                            x       y       z     vdW  Elec       q    Type
REMARK                         _______ _______ _______ _____ _____    ______ ____
ROOT
ATOM      1  C   UNL     1       2.785  -4.239   3.627  0.00  0.00    +0.128 C 
ATOM      2  C   UNL     1       1.790  -4.957   4.537  0.00  0.00    +0.157 C 
ATOM      3  N   UNL     1       0.937  -3.964   5.197  0.00  0.00    -0.331 N 
ATOM      4  C   UNL     1      -0.348  -4.067   5.638  0.00  0.00    +0.088 A 
ATOM      5  C   UNL     1      -1.485  -4.902   5.757  0.00  0.00    +0.067 A 
ATOM      6  C   UNL     1      -2.441  -4.189   6.376  0.00  0.00    +0.198 A 
ATOM      7  O   UNL     1      -1.974  -2.960   6.654  0.00  0.00    -0.461 OA
ATOM      8  C   UNL     1      -0.702  -2.848   6.216  0.00  0.00    +0.153 A 
ATOM      9  C   UNL     1       0.403  -1.990   6.109  0.00  0.00    +0.079 A 
ATOM     10  C   UNL     1       1.397  -2.679   5.479  0.00  0.00    +0.109 A 
ATOM     11  C   UNL     1       2.750  -2.264   5.091  0.00  0.00    +0.264 C 
ATOM     12  O   UNL     1       3.233  -1.214   5.474  0.00  0.00    -0.268 OA
ATOM     13  N   UNL     1       3.432  -3.110   4.284  0.00  0.00    -0.281 N 
ATOM     14  C   UNL     1       3.859  -5.237   3.188  0.00  0.00    +0.043 C 
ENDROOT
BRANCH   1  16
ATOM     15  N   UNL     1       1.471  -2.526   2.420  0.00  0.00    -0.310 N 
ATOM     16  C   UNL     1       2.056  -3.740   2.406  0.00  0.00    +0.238 C 
ATOM     17  O   UNL     1       1.996  -4.431   1.411  0.00  0.00    -0.273 OA
ATOM     18  H   UNL     1       1.520  -1.974   3.216  0.00  0.00    +0.149 HD
BRANCH  15  24
ATOM     19  C   UNL     1      -0.019   1.526   0.010  0.00  0.00    +0.008 C 
ATOM     20  C   UNL     1       0.002  -0.004   0.002  0.00  0.00    -0.009 C 
ATOM     21  C   UNL     1      -1.433  -0.534   0.013  0.00  0.00    +0.003 C 
ATOM     22  C   UNL     1      -1.413  -2.063   0.004  0.00  0.00    +0.002 C 
ATOM     23  C   UNL     1      -0.673  -2.570   1.244  0.00  0.00    +0.022 C 
ATOM     24  C   UNL     1       0.763  -2.041   1.233  0.00  0.00    +0.076 C 
ATOM     25  C   UNL     1       0.742  -0.511   1.242  0.00  0.00    +0.009 C 
ATOM     26  C   UNL     1       0.026  -0.018   2.500  0.00  0.00    +0.009 C 
ENDBRANCH  15  24
ENDBRANCH   1  16
BRANCH  13  27
ATOM     27  C   UNL     1       4.863  -2.884   4.065  0.00  0.00    +0.109 C 
BRANCH  27  28
ATOM     28  C   UNL     1       5.055  -1.970   2.853  0.00  0.00    +0.022 C 
BRANCH  28  29
ATOM     29  C   UNL     1       6.550  -1.734   2.624  0.00  0.00    -0.016 C 
ATOM     30  C   UNL     1       6.747  -0.924   1.342  0.00  0.00    +0.007 C 
ATOM     31  C   UNL     1       7.132  -0.963   3.810  0.00  0.00    +0.007 C 
ENDBRANCH  28  29
ENDBRANCH  27  28
ENDBRANCH  13  27
TORSDOF 5
