REMARK  Name = ZINC20137596
REMARK  4 active torsions:
REMARK  status: ('A' for Active; 'I' for Inactive)
REMARK    1  A    between atoms: C_9  and  C_12
REMARK    2  A    between atoms: C_12  and  N_13
REMARK    3  A    between atoms: N_13  and  C_14
REMARK    4  A    between atoms: C_14  and  C_15
REMARK                            x       y       z     vdW  Elec       q    Type
REMARK                         _______ _______ _______ _____ _____    ______ ____
ROOT
ATOM      1  C   UNL     1      -4.189  -0.030   1.447  0.00  0.00    -0.034 C 
ENDROOT
BRANCH   1  10
ATOM      2  C   UNL     1      -6.835   0.821   7.177  0.00  0.00    +0.004 A 
ATOM      3  C   UNL     1      -6.169   1.970   6.792  0.00  0.00    +0.004 A 
ATOM      4  C   UNL     1      -5.512   2.015   5.577  0.00  0.00    +0.049 A 
ATOM      5  C   UNL     1      -5.519   0.908   4.741  0.00  0.00    +0.162 A 
ATOM      6  C   UNL     1      -6.187  -0.247   5.130  0.00  0.00    +0.162 A 
ATOM      7  C   UNL     1      -6.846  -0.286   6.350  0.00  0.00    +0.049 A 
ATOM      8  O   UNL     1      -6.204  -1.346   4.327  0.00  0.00    -0.485 OA
ATOM      9  C   UNL     1      -5.853  -1.144   2.954  0.00  0.00    +0.271 C 
ATOM     10  C   UNL     1      -4.586  -0.279   2.903  0.00  0.00    +0.194 C 
ATOM     11  O   UNL     1      -4.871   0.969   3.546  0.00  0.00    -0.484 OA
ENDBRANCH   1  10
BRANCH   1  12
ATOM     12  N   UNL     1      -2.927   0.722   1.405  0.00  0.00    +0.384 N 
ATOM     13  H   UNL     1      -3.058   1.685   1.920  0.00  0.00    -0.085 HD
ATOM     14  H   UNL     1      -2.138   0.142   1.907  0.00  0.00    -0.085 HD
BRANCH  12  15
ATOM     15  C   UNL     1      -2.513   0.979   0.020  0.00  0.00    -0.047 C 
BRANCH  15  16
ATOM     16  C   UNL     1      -1.219   1.751   0.017  0.00  0.00    -0.063 A 
ATOM     17  C   UNL     1      -1.237   3.133   0.030  0.00  0.00    +0.002 A 
ATOM     18  C   UNL     1      -0.050   3.841   0.022  0.00  0.00    +0.001 A 
ATOM     19  C   UNL     1       1.157   3.167   0.007  0.00  0.00    +0.015 A 
ATOM     20  C   UNL     1       1.176   1.784   0.000  0.00  0.00    +0.018 A 
ATOM     21  C   UNL     1      -0.013   1.076   0.008  0.00  0.00    +0.017 A 
ATOM     22 BR   UNL     1       2.826   0.861  -0.020  0.00  0.00    -0.050 Br
ENDBRANCH  15  16
ENDBRANCH  12  15
ENDBRANCH   1  12
TORSDOF 4
