REMARK  Name = ZINC31934185
REMARK  5 active torsions:
REMARK  status: ('A' for Active; 'I' for Inactive)
REMARK    1  A    between atoms: C_1  and  C_2
REMARK    2  A    between atoms: C_2  and  C_31
REMARK    3  A    between atoms: N_11  and  C_23
REMARK    4  A    between atoms: N_14  and  N_15
REMARK    5  A    between atoms: C_16  and  C_17
REMARK                            x       y       z     vdW  Elec       q    Type
REMARK                         _______ _______ _______ _____ _____    ______ ____
ROOT
ATOM      1  C   UNL     1       4.139   3.309  -5.094  0.00  0.00    +0.041 C 
ATOM      2  C   UNL     1       3.998   1.836  -4.707  0.00  0.00    +0.068 C 
ATOM      3  C   UNL     1       2.561   1.567  -4.252  0.00  0.00    +0.071 C 
ATOM      4  C   UNL     1       2.350   2.265  -2.910  0.00  0.00    -0.018 A 
ATOM      5  C   UNL     1       3.423   2.653  -2.186  0.00  0.00    +0.021 A 
ATOM      6  S   UNL     1       2.747   3.408  -0.735  0.00  0.00    -0.071 S 
ATOM      7  C   UNL     1       1.023   3.201  -1.105  0.00  0.00    +0.118 A 
ATOM      8  C   UNL     1       1.031   2.549  -2.351  0.00  0.00    +0.076 A 
ATOM      9  C   UNL     1      -0.254   2.248  -2.904  0.00  0.00    +0.268 A 
ATOM     10  O   UNL     1      -0.347   1.684  -3.981  0.00  0.00    -0.266 OA
ATOM     11  N   UNL     1      -1.359   2.602  -2.223  0.00  0.00    -0.247 N 
ATOM     12  C   UNL     1      -1.275   3.231  -1.012  0.00  0.00    +0.224 A 
ATOM     13  N   UNL     1      -0.105   3.519  -0.481  0.00  0.00    -0.207 NA
ATOM     14  N   UNL     1      -2.425   3.572  -0.343  0.00  0.00    -0.206 N 
ATOM     15  C   UNL     1       4.860   2.466  -2.561  0.00  0.00    +0.203 C 
ATOM     16  O   UNL     1       4.914   1.532  -3.652  0.00  0.00    -0.368 OA
ATOM     17  C   UNL     1       4.315   0.960  -5.921  0.00  0.00    +0.041 C 
ATOM     18  H   UNL     1      -3.404   3.256  -0.735  0.00  0.00    +0.177 HD
ENDROOT
BRANCH  11  19
ATOM     19  C   UNL     1      -2.620   2.316  -2.762  0.00  0.00    +0.053 A 
ATOM     20  C   UNL     1      -3.226   1.093  -2.505  0.00  0.00    +0.026 A 
ATOM     21  C   UNL     1      -4.471   0.816  -3.034  0.00  0.00    +0.002 A 
ATOM     22  C   UNL     1      -5.110   1.751  -3.828  0.00  0.00    +0.000 A 
ATOM     23  C   UNL     1      -4.508   2.967  -4.090  0.00  0.00    +0.002 A 
ATOM     24  C   UNL     1      -3.265   3.252  -3.559  0.00  0.00    +0.026 A 
ENDBRANCH  11  19
BRANCH  14  25
ATOM     25  N   UNL     1      -2.353   4.321   0.838  0.00  0.00    -0.188 NA
ATOM     26  C   UNL     1      -3.423   4.526   1.544  0.00  0.00    +0.138 C 
BRANCH  26  27
ATOM     27  C   UNL     1      -4.620   3.692   1.327  0.00  0.00    -0.005 A 
ATOM     28  C   UNL     1      -5.876   4.148   1.733  0.00  0.00    +0.009 A 
ATOM     29  C   UNL     1      -6.992   3.365   1.522  0.00  0.00    +0.001 A 
ATOM     30  C   UNL     1      -6.867   2.125   0.920  0.00  0.00    +0.000 A 
ATOM     31  C   UNL     1      -5.625   1.665   0.520  0.00  0.00    +0.001 A 
ATOM     32  C   UNL     1      -4.502   2.439   0.719  0.00  0.00    +0.009 A 
ENDBRANCH  26  27
ENDBRANCH  14  25
TORSDOF 3
