REMARK  Name = ZINC58071467
REMARK  12 active torsions:
REMARK  status: ('A' for Active; 'I' for Inactive)
REMARK    1  A    between atoms: C_1  and  C_2
REMARK    2  A    between atoms: C_2  and  C_3
REMARK    3  A    between atoms: C_3  and  C_26
REMARK    4  A    between atoms: N_6  and  C_10
REMARK    5  A    between atoms: C_10  and  C_11
REMARK    6  A    between atoms: N_13  and  N_14
REMARK    7  A    between atoms: N_14  and  C_15
REMARK    8  A    between atoms: C_15  and  N_17
REMARK    9  A    between atoms: N_17  and  C_18
REMARK   10  A    between atoms: C_22  and  C_25
REMARK   11  A    between atoms: C_23  and  C_24
REMARK   12  A    between atoms: C_26  and  C_27
REMARK                            x       y       z     vdW  Elec       q    Type
REMARK                         _______ _______ _______ _____ _____    ______ ____
ROOT
ATOM      1  C   UNL     1       1.104   0.478   5.559  0.00  0.00    +0.247 C 
ATOM      2  O   UNL     1       1.543  -0.627   5.319  0.00  0.00    -0.273 OA
ATOM      3  N   UNL     1       0.963   0.885   6.836  0.00  0.00    -0.234 N 
ATOM      4  H   UNL     1       0.613   1.769   7.027  0.00  0.00    +0.173 HD
ENDROOT
BRANCH   3   5
ATOM      5  N   UNL     1       1.324   0.031   7.886  0.00  0.00    -0.246 N 
ATOM      6  H   UNL     1       1.674  -0.853   7.695  0.00  0.00    +0.172 HD
BRANCH   5   7
ATOM      7  C   UNL     1       1.183   0.438   9.164  0.00  0.00    +0.147 C 
ATOM      8  S   UNL     1       1.623  -0.606  10.448  0.00  0.00    -0.017 S 
BRANCH   7   9
ATOM      9  N   UNL     1       0.696   1.665   9.430  0.00  0.00    -0.322 N 
ATOM     10  H   UNL     1       0.446   2.257   8.703  0.00  0.00    +0.148 HD
BRANCH   9  11
ATOM     11  C   UNL     1       0.543   2.107  10.819  0.00  0.00    +0.075 C 
ATOM     12  C   UNL     1       1.868   2.685  11.319  0.00  0.00    +0.022 C 
ATOM     13  C   UNL     1       1.708   3.147  12.769  0.00  0.00    +0.002 C 
ATOM     14  C   UNL     1       0.622   4.222  12.845  0.00  0.00    +0.003 C 
ATOM     15  C   UNL     1      -0.703   3.644  12.345  0.00  0.00    -0.009 C 
ATOM     16  C   UNL     1      -0.544   3.182  10.895  0.00  0.00    +0.009 C 
ATOM     17  C   UNL     1      -0.145   4.373  10.021  0.00  0.00    +0.009 C 
ATOM     18  C   UNL     1      -1.790   4.719  12.421  0.00  0.00    +0.008 C 
ENDBRANCH   9  11
ENDBRANCH   7   9
ENDBRANCH   5   7
ENDBRANCH   3   5
BRANCH   1  19
ATOM     19  C   UNL     1       0.716   1.397   4.428  0.00  0.00    +0.215 C 
BRANCH  19  23
ATOM     20  C   UNL     1       0.742  -0.511   1.242  0.00  0.00    +0.112 C 
ATOM     21  C   UNL     1       0.055  -0.034   2.505  0.00  0.00    +0.247 C 
ATOM     22  O   UNL     1      -1.076  -0.284   2.863  0.00  0.00    -0.273 OA
ATOM     23  N   UNL     1       0.962   0.727   3.149  0.00  0.00    -0.215 N 
ATOM     24  C   UNL     1       2.116   0.796   2.474  0.00  0.00    +0.310 C 
ATOM     25  O   UNL     1       3.085   1.423   2.854  0.00  0.00    -0.252 OA
ATOM     26  N   UNL     1       2.083   0.093   1.328  0.00  0.00    -0.285 N 
ATOM     27  H   UNL     1       2.802   0.001   0.683  0.00  0.00    +0.151 HD
BRANCH  20  29
ATOM     28  C   UNL     1      -0.019   1.526   0.010  0.00  0.00    +0.006 C 
ATOM     29  C   UNL     1       0.002  -0.004   0.002  0.00  0.00    +0.032 C 
ENDBRANCH  20  29
BRANCH  20  30
ATOM     30  C   UNL     1       0.839  -2.038   1.222  0.00  0.00    +0.032 C 
ATOM     31  C   UNL     1       1.582  -2.518   2.470  0.00  0.00    +0.006 C 
ENDBRANCH  20  30
ENDBRANCH  19  23
ENDBRANCH   1  19
TORSDOF 8
