REMARK  Name = ZINC02305822
REMARK  5 active torsions:
REMARK  status: ('A' for Active; 'I' for Inactive)
REMARK    1  A    between atoms: C_1  and  C_2
REMARK    2  A    between atoms: C_2  and  S_3
REMARK    3  A    between atoms: S_3  and  C_4
REMARK    4  A    between atoms: N_13  and  C_14
REMARK    5  A    between atoms: C_17  and  C_20
REMARK                            x       y       z     vdW  Elec       q    Type
REMARK                         _______ _______ _______ _____ _____    ______ ____
ROOT
ATOM      1  C   UNL     1      -0.410   5.245  -0.161  0.00  0.00    +0.198 A 
ATOM      2  N   UNL     1      -1.725   5.332  -0.131  0.00  0.00    -0.120 NA
ATOM      3  N   UNL     1      -2.244   4.036  -0.008  0.00  0.00    -0.109 NA
ATOM      4  C   UNL     1      -1.243   3.212   0.042  0.00  0.00    +0.245 A 
ATOM      5  N   UNL     1      -0.068   3.950   0.035  0.00  0.00    -0.255 N 
ATOM      6  C   UNL     1       1.148   3.315   0.199  0.00  0.00    +0.068 A 
ATOM      7  C   UNL     1       1.185   1.952   0.054  0.00  0.00    +0.048 A 
ATOM      8  C   UNL     1      -0.013   1.213   0.061  0.00  0.00    +0.264 A 
ATOM      9  O   UNL     1       0.003  -0.004   0.101  0.00  0.00    -0.267 OA
ATOM     10  N   UNL     1      -1.222   1.825   0.060  0.00  0.00    -0.245 N 
ATOM     11  C   UNL     1       2.515   1.272  -0.129  0.00  0.00    +0.007 C 
ATOM     12  C   UNL     1       2.390   0.024  -1.019  0.00  0.00    +0.012 C 
ATOM     13  C   UNL     1       3.167  -1.091  -0.276  0.00  0.00    +0.001 C 
ATOM     14  C   UNL     1       2.967  -0.736   1.217  0.00  0.00    +0.001 C 
ATOM     15  C   UNL     1       3.038   0.805   1.240  0.00  0.00    +0.012 C 
ATOM     16  C   UNL     1       3.538   2.208  -0.776  0.00  0.00    +0.047 C 
ATOM     17  C   UNL     1       3.594   3.509  -0.022  0.00  0.00    -0.037 A 
ATOM     18  C   UNL     1       2.395   4.046   0.458  0.00  0.00    +0.003 A 
ATOM     19  C   UNL     1       2.426   5.212   1.220  0.00  0.00    +0.010 A 
ATOM     20  C   UNL     1       3.625   5.863   1.430  0.00  0.00    +0.001 A 
ATOM     21  C   UNL     1       4.800   5.347   0.911  0.00  0.00    +0.000 A 
ATOM     22  C   UNL     1       4.784   4.161   0.196  0.00  0.00    +0.004 A 
ENDROOT
BRANCH  10  23
ATOM     23  C   UNL     1      -2.408   1.082   0.077  0.00  0.00    +0.053 A 
ATOM     24  C   UNL     1      -2.763   0.314  -1.024  0.00  0.00    +0.026 A 
ATOM     25  C   UNL     1      -3.931  -0.423  -1.002  0.00  0.00    +0.005 A 
ATOM     26  C   UNL     1      -4.752  -0.388   0.110  0.00  0.00    -0.050 A 
ATOM     27  C   UNL     1      -4.403   0.380   1.206  0.00  0.00    +0.005 A 
ATOM     28  C   UNL     1      -3.234   1.114   1.193  0.00  0.00    +0.026 A 
ATOM     29  C   UNL     1      -6.028  -1.189   0.128  0.00  0.00    +0.044 C 
ENDBRANCH  10  23
BRANCH   1  30
ATOM     30  S   UNL     1       0.678   6.601  -0.456  0.00  0.00    -0.086 S 
BRANCH  30  32
ATOM     31  C   UNL     1       0.392   9.287  -0.888  0.00  0.00    +0.016 C 
ATOM     32  C   UNL     1      -0.433   8.025  -0.625  0.00  0.00    +0.074 C 
ENDBRANCH  30  32
ENDBRANCH   1  30
TORSDOF 3
