REMARK  Name = ZINC03234663
REMARK  7 active torsions:
REMARK  status: ('A' for Active; 'I' for Inactive)
REMARK    1  A    between atoms: C_3  and  C_19
REMARK    2  A    between atoms: C_5  and  S_7
REMARK    3  A    between atoms: S_7  and  N_10
REMARK    4  A    between atoms: N_10  and  C_11
REMARK    5  A    between atoms: N_21  and  N_22
REMARK    6  A    between atoms: C_23  and  C_24
REMARK    7  A    between atoms: C_27  and  C_30
REMARK                            x       y       z     vdW  Elec       q    Type
REMARK                         _______ _______ _______ _____ _____    ______ ____
ROOT
ATOM      1  C   UNL     1       2.379  -0.236   0.196  0.00  0.00    +0.003 A 
ATOM      2  C   UNL     1       2.428   1.141   0.272  0.00  0.00    +0.013 A 
ATOM      3  C   UNL     1       1.242   1.878   0.277  0.00  0.00    +0.040 A 
ATOM      4  C   UNL     1       0.015   1.216   0.204  0.00  0.00    +0.042 A 
ATOM      5  C   UNL     1      -0.019  -0.161   0.129  0.00  0.00    +0.109 A 
ATOM      6  C   UNL     1       1.160  -0.886   0.124  0.00  0.00    +0.029 A 
ENDROOT
BRANCH   3   7
ATOM      7  C   UNL     1       1.286   3.353   0.358  0.00  0.00    +0.263 C 
ATOM      8  O   UNL     1       0.252   3.993   0.361  0.00  0.00    -0.268 OA
ATOM      9  N   UNL     1       2.472   3.989   0.428  0.00  0.00    -0.203 N 
ATOM     10  H   UNL     1       3.297   3.479   0.425  0.00  0.00    +0.178 HD
BRANCH   9  11
ATOM     11  N   UNL     1       2.514   5.388   0.504  0.00  0.00    -0.187 NA
ATOM     12  C   UNL     1       3.657   6.000   0.572  0.00  0.00    +0.138 C 
BRANCH  12  13
ATOM     13  C   UNL     1       3.701   7.471   0.652  0.00  0.00    -0.005 A 
ATOM     14  C   UNL     1       2.511   8.207   0.650  0.00  0.00    +0.011 A 
ATOM     15  C   UNL     1       2.552   9.570   0.731  0.00  0.00    +0.019 A 
ATOM     16  C   UNL     1       3.783  10.230   0.803  0.00  0.00    +0.052 A 
ATOM     17  C   UNL     1       4.972   9.494   0.800  0.00  0.00    +0.019 A 
ATOM     18  C   UNL     1       4.932   8.131   0.725  0.00  0.00    +0.011 A 
BRANCH  16  19
ATOM     19  C   UNL     1       3.825  11.659   0.881  0.00  0.00    +0.099 C 
ATOM     20  N   UNL     1       3.859  12.793   0.942  0.00  0.00    -0.191 NA
ENDBRANCH  16  19
ENDBRANCH  12  13
ENDBRANCH   9  11
ENDBRANCH   3   7
BRANCH   5  21
ATOM     21  S   UNL     1      -1.566  -0.998   0.037  0.00  0.00    +0.072 S 
ATOM     22  O   UNL     1      -1.345  -2.315   0.524  0.00  0.00    -0.150 OA
ATOM     23  O   UNL     1      -2.533  -0.128   0.608  0.00  0.00    -0.150 OA
BRANCH  21  24
ATOM     24  N   UNL     1      -1.950  -1.145  -1.567  0.00  0.00    -0.215 N 
ATOM     25  H   UNL     1      -2.761  -0.741  -1.911  0.00  0.00    +0.174 HD
BRANCH  24  26
ATOM     26  C   UNL     1      -1.103  -1.852  -2.425  0.00  0.00    +0.068 A 
ATOM     27  C   UNL     1      -0.430  -2.978  -1.968  0.00  0.00    +0.046 A 
ATOM     28  C   UNL     1       0.406  -3.674  -2.820  0.00  0.00    +0.043 A 
ATOM     29  C   UNL     1       0.572  -3.252  -4.128  0.00  0.00    +0.021 A 
ATOM     30  C   UNL     1      -0.097  -2.132  -4.586  0.00  0.00    +0.023 A 
ATOM     31  C   UNL     1      -0.938  -1.434  -3.741  0.00  0.00    +0.063 A 
ATOM     32 CL   UNL     1      -1.783  -0.032  -4.319  0.00  0.00    -0.082 Cl
ATOM     33 CL   UNL     1       1.248  -5.081  -2.250  0.00  0.00    -0.083 Cl
ENDBRANCH  24  26
ENDBRANCH  21  24
ENDBRANCH   5  21
TORSDOF 7
