REMARK  Name = ZINC45545779
REMARK  7 active torsions:
REMARK  status: ('A' for Active; 'I' for Inactive)
REMARK    1  A    between atoms: C_6  and  O_7
REMARK    2  A    between atoms: O_7  and  C_8
REMARK    3  A    between atoms: C_8  and  C_9
REMARK    4  A    between atoms: C_12  and  S_15
REMARK    5  A    between atoms: N_13  and  N_14
REMARK    6  A    between atoms: S_15  and  C_16
REMARK    7  A    between atoms: C_16  and  C_17
REMARK                            x       y       z     vdW  Elec       q    Type
REMARK                         _______ _______ _______ _____ _____    ______ ____
ROOT
ATOM      1  C   UNL     1      -2.455  -2.722   0.012  0.00  0.00    +0.189 A 
ATOM      2  N   UNL     1      -3.156  -3.027   1.067  0.00  0.00    -0.128 NA
ATOM      3  N   UNL     1      -4.292  -3.514   0.716  0.00  0.00    -0.121 NA
ATOM      4  C   UNL     1      -4.378  -3.546  -0.594  0.00  0.00    +0.209 A 
ATOM      5  N   UNL     1      -3.210  -3.036  -1.084  0.00  0.00    -0.225 N 
ENDROOT
BRANCH   5   6
ATOM      6  N   UNL     1      -2.866  -2.876  -2.396  0.00  0.00    -0.295 N 
ATOM      7  H   UNL     1      -2.403  -3.700  -2.752  0.00  0.00    +0.163 HD
ATOM      8  H   UNL     1      -3.673  -2.645  -2.956  0.00  0.00    +0.163 HD
ENDBRANCH   5   6
BRANCH   1   9
ATOM      9  C   UNL     1      -1.071  -2.126   0.001  0.00  0.00    +0.306 C 
BRANCH   9  10
ATOM     10  O   UNL     1      -1.165  -0.700   0.010  0.00  0.00    -0.484 OA
BRANCH  10  16
ATOM     11  C   UNL     1      -0.017   1.383   0.010  0.00  0.00    +0.048 A 
ATOM     12  C   UNL     1       1.171   2.089   0.002  0.00  0.00    +0.042 A 
ATOM     13  C   UNL     1       2.379   1.413  -0.013  0.00  0.00    +0.124 A 
ATOM     14  C   UNL     1       2.399   0.029  -0.021  0.00  0.00    +0.042 A 
ATOM     15  C   UNL     1       1.213  -0.680  -0.014  0.00  0.00    +0.048 A 
ATOM     16  C   UNL     1       0.002  -0.004   0.002  0.00  0.00    +0.121 A 
ATOM     17  F   UNL     1       3.539   2.105  -0.020  0.00  0.00    -0.205 F 
ENDBRANCH  10  16
ENDBRANCH   9  10
ENDBRANCH   1   9
BRANCH   4  18
ATOM     18  S   UNL     1      -5.745  -4.129  -1.541  0.00  0.00    -0.077 S 
BRANCH  18  19
ATOM     19  C   UNL     1      -6.952  -4.652  -0.292  0.00  0.00    +0.151 C 
BRANCH  19  20
ATOM     20  C   UNL     1      -8.187  -5.180  -0.976  0.00  0.00    +0.121 A 
ATOM     21  N   UNL     1      -9.215  -5.618  -0.203  0.00  0.00    -0.310 N 
ATOM     22  H   UNL     1      -9.138  -5.584   0.763  0.00  0.00    +0.170 HD
ATOM     23  C   UNL     1     -10.346  -6.101  -0.770  0.00  0.00    +0.259 A 
ATOM     24  O   UNL     1     -11.274  -6.496  -0.089  0.00  0.00    -0.267 OA
ATOM     25  C   UNL     1     -10.409  -6.128  -2.239  0.00  0.00    +0.066 A 
ATOM     26  C   UNL     1     -11.526  -6.606  -2.919  0.00  0.00    +0.035 A 
ATOM     27  C   UNL     1     -11.532  -6.609  -4.298  0.00  0.00    +0.042 A 
ATOM     28  C   UNL     1     -10.433  -6.141  -5.010  0.00  0.00    +0.022 A 
ATOM     29  C   UNL     1      -9.320  -5.666  -4.355  0.00  0.00    +0.030 A 
ATOM     30  C   UNL     1      -9.291  -5.652  -2.959  0.00  0.00    +0.078 A 
ATOM     31  N   UNL     1      -8.216  -5.187  -2.274  0.00  0.00    -0.233 NA
ATOM     32 CL   UNL     1     -12.921  -7.203  -5.152  0.00  0.00    -0.084 Cl
ENDBRANCH  19  20
ENDBRANCH  18  19
ENDBRANCH   4  18
TORSDOF 7
