REMARK  Name = ZINC63589421
REMARK  10 active torsions:
REMARK  status: ('A' for Active; 'I' for Inactive)
REMARK    1  A    between atoms: C_1  and  O_2
REMARK    2  A    between atoms: O_2  and  C_3
REMARK    3  A    between atoms: C_5  and  N_11
REMARK    4  A    between atoms: C_7  and  O_9
REMARK    5  A    between atoms: O_9  and  C_10
REMARK    6  A    between atoms: N_13  and  C_14
REMARK    7  A    between atoms: C_14  and  C_15
REMARK    8  A    between atoms: C_15  and  C_16
REMARK    9  A    between atoms: N_25  and  C_26
REMARK   10  A    between atoms: C_26  and  C_28
REMARK                            x       y       z     vdW  Elec       q    Type
REMARK                         _______ _______ _______ _____ _____    ______ ____
ROOT
ATOM      1  N   UNL     1       1.460  -3.936   2.211  0.00  0.00    -0.328 N 
ATOM      2  C   UNL     1       2.127  -4.640   3.172  0.00  0.00    +0.194 C 
ATOM      3  N   UNL     1       2.216  -5.999   3.085  0.00  0.00    -0.357 N 
ATOM      4  N   UNL     1       2.688  -4.004   4.189  0.00  0.00    -0.143 NA
ATOM      5  H   UNL     1       2.624  -6.505   3.804  0.00  0.00    +0.162 HD
ATOM      6  H   UNL     1       0.979  -4.406   1.512  0.00  0.00    +0.169 HD
ENDROOT
BRANCH   1   9
ATOM      7  C   UNL     1       2.600  -0.473   2.714  0.00  0.00    +0.126 A 
ATOM      8  C   UNL     1       2.591  -1.859   2.692  0.00  0.00    +0.071 A 
ATOM      9  C   UNL     1       1.470  -2.538   2.234  0.00  0.00    +0.049 A 
ATOM     10  C   UNL     1       0.358  -1.828   1.800  0.00  0.00    +0.071 A 
ATOM     11  C   UNL     1       0.369  -0.442   1.823  0.00  0.00    +0.126 A 
ATOM     12  C   UNL     1       1.488   0.236   2.285  0.00  0.00    +0.091 A 
BRANCH   7  14
ATOM     13  C   UNL     1       3.635   1.620   3.164  0.00  0.00    +0.277 C 
ATOM     14  O   UNL     1       3.697   0.192   3.163  0.00  0.00    -0.495 OA
ENDBRANCH   7  14
BRANCH  11  15
ATOM     15  O   UNL     1      -0.719   0.253   1.398  0.00  0.00    -0.495 OA
ATOM     16  C   UNL     1      -0.638   1.679   1.450  0.00  0.00    +0.277 C 
ENDBRANCH  11  15
ENDBRANCH   1   9
BRANCH   4  17
ATOM     17  C   UNL     1       3.284  -4.699   5.167  0.00  0.00    +0.270 C 
ATOM     18  O   UNL     1       4.201  -5.458   4.904  0.00  0.00    -0.268 OA
BRANCH  17  19
ATOM     19  C   UNL     1       2.829  -4.546   6.566  0.00  0.00    +0.043 A 
ATOM     20  C   UNL     1       1.776  -3.682   6.868  0.00  0.00    +0.017 A 
ATOM     21  C   UNL     1       1.353  -3.540   8.172  0.00  0.00    +0.050 A 
ATOM     22  C   UNL     1       1.971  -4.255   9.189  0.00  0.00    +0.166 A 
ATOM     23  C   UNL     1       3.025  -5.120   8.893  0.00  0.00    +0.167 A 
ATOM     24  C   UNL     1       3.450  -5.269   7.587  0.00  0.00    +0.062 A 
ATOM     25  O   UNL     1       3.455  -5.695  10.054  0.00  0.00    -0.453 OA
ATOM     26  C   UNL     1       2.929  -4.869  11.110  0.00  0.00    +0.466 C 
ATOM     27  O   UNL     1       1.744  -4.291  10.533  0.00  0.00    -0.453 OA
ENDBRANCH  17  19
ENDBRANCH   4  17
BRANCH   3  28
ATOM     28  C   UNL     1       1.695  -6.692   1.904  0.00  0.00    +0.120 C 
BRANCH  28  29
ATOM     29  C   UNL     1       1.918  -8.198   2.058  0.00  0.00    +0.054 C 
BRANCH  29  30
ATOM     30  C   UNL     1       1.382  -8.912   0.843  0.00  0.00    -0.040 C 
ATOM     31  C   UNL     1       2.080  -9.291  -0.251  0.00  0.00    -0.001 A 
ATOM     32  C   UNL     1       3.493  -9.156  -0.625  0.00  0.00    +0.010 A 
ATOM     33  C   UNL     1       3.906  -9.646  -1.816  0.00  0.00    +0.001 A 
ATOM     34  C   UNL     1       3.021 -10.277  -2.701  0.00  0.00    +0.002 A 
ATOM     35  C   UNL     1       1.708 -10.438  -2.428  0.00  0.00    +0.026 A 
ATOM     36  C   UNL     1       1.165  -9.961  -1.203  0.00  0.00    +0.043 A 
ATOM     37  N   UNL     1      -0.051  -9.995  -0.715  0.00  0.00    -0.380 N 
ATOM     38  C   UNL     1      -0.044  -9.355   0.605  0.00  0.00    +0.144 C 
ATOM     39  H   UNL     1      -0.825 -10.383  -1.153  0.00  0.00    +0.160 HD
ENDBRANCH  29  30
ENDBRANCH  28  29
ENDBRANCH   3  28
TORSDOF 8
