REMARK  Name = ZINC39210463
REMARK  8 active torsions:
REMARK  status: ('A' for Active; 'I' for Inactive)
REMARK    1  A    between atoms: C_1  and  C_2
REMARK    2  A    between atoms: C_2  and  O_3
REMARK    3  A    between atoms: O_3  and  C_4
REMARK    4  A    between atoms: C_7  and  C_10
REMARK    5  A    between atoms: C_17  and  C_25
REMARK    6  A    between atoms: C_19  and  C_23
REMARK    7  A    between atoms: C_20  and  N_22
REMARK    8  A    between atoms: C_30  and  C_31
REMARK                            x       y       z     vdW  Elec       q    Type
REMARK                         _______ _______ _______ _____ _____    ______ ____
ROOT
ATOM      1  C   UNL     1       0.880  -5.667   0.406  0.00  0.00    +0.075 C 
ATOM      2  N   UNL     1       0.829  -6.055  -0.846  0.00  0.00    -0.188 NA
ATOM      3  N   UNL     1       0.955  -7.462  -0.975  0.00  0.00    -0.230 N 
ATOM      4  C   UNL     1       1.727  -7.852   0.207  0.00  0.00    +0.286 C 
ATOM      5  C   UNL     1       1.044  -6.902   1.243  0.00  0.00    +0.110 C 
ATOM      6  C   UNL     1       2.008  -6.824   2.413  0.00  0.00    +0.063 C 
ATOM      7  C   UNL     1       2.316  -8.257   2.805  0.00  0.00    +0.091 C 
ATOM      8  C   UNL     1       2.065  -9.303   1.980  0.00  0.00    +0.194 C 
ATOM      9  O   UNL     1       1.573  -9.163   0.713  0.00  0.00    -0.455 OA
ATOM     10  H   UNL     1       0.611  -8.033  -1.679  0.00  0.00    +0.172 HD
ENDROOT
BRANCH   1  14
ATOM     11  C   UNL     1       0.646  -1.671   1.821  0.00  0.00    +0.121 A 
ATOM     12  C   UNL     1       0.353  -2.726   2.675  0.00  0.00    +0.046 A 
ATOM     13  C   UNL     1       0.427  -4.025   2.220  0.00  0.00    +0.013 A 
ATOM     14  C   UNL     1       0.799  -4.279   0.897  0.00  0.00    -0.002 A 
ATOM     15  C   UNL     1       1.093  -3.214   0.042  0.00  0.00    +0.013 A 
ATOM     16  C   UNL     1       1.010  -1.919   0.504  0.00  0.00    +0.046 A 
BRANCH  11  17
ATOM     17  O   UNL     1       0.571  -0.392   2.275  0.00  0.00    -0.492 OA
BRANCH  17  19
ATOM     18  C   UNL     1       0.162   1.286   3.965  0.00  0.00    +0.048 C 
ATOM     19  C   UNL     1       0.191  -0.209   3.640  0.00  0.00    +0.225 C 
ENDBRANCH  17  19
ENDBRANCH  11  17
ENDBRANCH   1  14
BRANCH   6  20
ATOM     20  C   UNL     1       3.291  -6.105   1.990  0.00  0.00    +0.092 C 
ATOM     21  C   UNL     1       2.966  -4.825   1.246  0.00  0.00    +0.118 C 
ATOM     22  N   UNL     1       3.465  -4.963   0.061  0.00  0.00    -0.161 NA
ATOM     23  N   UNL     1       4.100  -6.189  -0.111  0.00  0.00    -0.153 NA
ATOM     24  C   UNL     1       4.052  -6.927   0.969  0.00  0.00    +0.080 C 
BRANCH  24  25
ATOM     25  C   UNL     1       4.616  -8.272   1.154  0.00  0.00    -0.001 A 
ATOM     26  C   UNL     1       5.127  -8.654   2.399  0.00  0.00    +0.012 A 
ATOM     27  C   UNL     1       5.654  -9.917   2.566  0.00  0.00    +0.039 A 
ATOM     28  C   UNL     1       5.678 -10.807   1.504  0.00  0.00    +0.123 A 
ATOM     29  C   UNL     1       5.173 -10.435   0.267  0.00  0.00    +0.039 A 
ATOM     30  C   UNL     1       4.638  -9.178   0.088  0.00  0.00    +0.012 A 
ATOM     31  F   UNL     1       6.197 -12.043   1.674  0.00  0.00    -0.205 F 
ENDBRANCH  24  25
ENDBRANCH   6  20
BRANCH   8  32
ATOM     32  N   UNL     1       2.326 -10.571   2.436  0.00  0.00    -0.329 N 
ATOM     33  H   UNL     1       2.681 -10.702   3.330  0.00  0.00    +0.145 HD
ATOM     34  H   UNL     1       2.155 -11.336   1.865  0.00  0.00    +0.145 HD
ENDBRANCH   8  32
BRANCH   7  35
ATOM     35  C   UNL     1       2.891  -8.514   4.091  0.00  0.00    +0.100 C 
ATOM     36  N   UNL     1       3.347  -8.717   5.112  0.00  0.00    -0.191 NA
ENDBRANCH   7  35
TORSDOF 7
