REMARK  Name = ZINC63270597
REMARK  3 active torsions:
REMARK  status: ('A' for Active; 'I' for Inactive)
REMARK    1  A    between atoms: C_1  and  N_2
REMARK    2  A    between atoms: N_5  and  C_8
REMARK    3  A    between atoms: C_8  and  C_9
REMARK                            x       y       z     vdW  Elec       q    Type
REMARK                         _______ _______ _______ _____ _____    ______ ____
ROOT
ATOM      1  C   UNL     1       2.367  -4.437   1.071  0.00  0.00    +0.231 C 
ATOM      2  O   UNL     1       2.882  -3.626   1.812  0.00  0.00    -0.274 OA
ATOM      3  N   UNL     1       2.588  -5.753   1.256  0.00  0.00    -0.280 N 
ATOM      4  C   UNL     1       1.856  -6.732   0.444  0.00  0.00    +0.113 C 
ATOM      5  C   UNL     1       2.857  -7.641  -0.292  0.00  0.00    +0.052 C 
ATOM      6  C   UNL     1       3.894  -8.056   0.722  0.00  0.00    -0.034 C 
ATOM      7  C   UNL     1       4.348  -9.251   1.079  0.00  0.00    -0.001 A 
ATOM      8  C   UNL     1       4.089 -10.597   0.545  0.00  0.00    +0.010 A 
ATOM      9  C   UNL     1       4.717 -11.624   1.176  0.00  0.00    +0.001 A 
ATOM     10  C   UNL     1       5.566 -11.449   2.272  0.00  0.00    +0.002 A 
ATOM     11  C   UNL     1       5.868 -10.246   2.824  0.00  0.00    +0.026 A 
ATOM     12  C   UNL     1       5.273  -9.089   2.242  0.00  0.00    +0.043 A 
ATOM     13  N   UNL     1       5.402  -7.832   2.550  0.00  0.00    -0.375 N 
ATOM     14  C   UNL     1       4.630  -7.041   1.591  0.00  0.00    +0.143 C 
ATOM     15  C   UNL     1       3.562  -6.189   2.261  0.00  0.00    +0.165 C 
ATOM     16  C   UNL     1       2.897  -6.932   3.374  0.00  0.00    +0.008 A 
ATOM     17  C   UNL     1       2.162  -8.098   3.388  0.00  0.00    +0.008 A 
ATOM     18  C   UNL     1       1.676  -8.524   4.619  0.00  0.00    +0.000 A 
ATOM     19  C   UNL     1       1.920  -7.809   5.774  0.00  0.00    +0.002 A 
ATOM     20  C   UNL     1       2.658  -6.636   5.769  0.00  0.00    +0.023 A 
ATOM     21  C   UNL     1       3.151  -6.197   4.540  0.00  0.00    +0.039 A 
ATOM     22  N   UNL     1       3.906  -5.075   4.246  0.00  0.00    -0.283 N 
ATOM     23  C   UNL     1       4.194  -4.989   2.930  0.00  0.00    +0.248 C 
ATOM     24  O   UNL     1       4.836  -4.115   2.387  0.00  0.00    -0.273 OA
ATOM     25  H   UNL     1       4.195  -4.427   4.908  0.00  0.00    +0.155 HD
ATOM     26  H   UNL     1       5.920  -7.479   3.290  0.00  0.00    +0.160 HD
ENDROOT
BRANCH   1  27
ATOM     27  C   UNL     1       1.479  -3.973  -0.054  0.00  0.00    +0.180 C 
BRANCH  27  32
ATOM     28  C   UNL     1      -0.012   1.461  -0.024  0.00  0.00    -0.096 C 
ATOM     29  N   UNL     1       0.013  -0.008  -0.037  0.00  0.00    +0.379 N 
ATOM     30  C   UNL     1       0.730  -0.474  -1.232  0.00  0.00    -0.064 C 
ATOM     31  C   UNL     1       0.741  -2.004  -1.256  0.00  0.00    +0.066 C 
ATOM     32  N   UNL     1       1.399  -2.506  -0.041  0.00  0.00    -0.298 NA
ATOM     33  C   UNL     1       0.706  -2.027   1.163  0.00  0.00    +0.066 C 
ATOM     34  C   UNL     1       0.697  -0.496   1.168  0.00  0.00    -0.064 C 
ATOM     35  H   UNL     1      -0.932  -0.360  -0.054  0.00  0.00    -0.082 HD
ENDBRANCH  27  32
ENDBRANCH   1  27
TORSDOF 2
