REMARK  Name = ZINC02727716
REMARK  12 active torsions:
REMARK  status: ('A' for Active; 'I' for Inactive)
REMARK    1  A    between atoms: C_1  and  C_2
REMARK    2  A    between atoms: C_4  and  C_32
REMARK    3  A    between atoms: C_5  and  C_17
REMARK    4  A    between atoms: C_7  and  C_8
REMARK    5  A    between atoms: C_8  and  S_9
REMARK    6  A    between atoms: S_9  and  C_10
REMARK    7  A    between atoms: C_19  and  C_30
REMARK    8  A    between atoms: C_20  and  N_29
REMARK    9  A    between atoms: C_22  and  C_28
REMARK   10  A    between atoms: C_23  and  C_24
REMARK   11  A    between atoms: C_24  and  O_26
REMARK   12  A    between atoms: O_26  and  C_27
REMARK                            x       y       z     vdW  Elec       q    Type
REMARK                         _______ _______ _______ _____ _____    ______ ____
ROOT
ATOM      1  C   UNL     1      -1.493   8.108   2.390  0.00  0.00    +0.044 C 
ATOM      2  C   UNL     1      -1.844   8.940   1.183  0.00  0.00    -0.046 A 
ATOM      3  C   UNL     1      -1.984  10.310   1.305  0.00  0.00    +0.007 A 
ATOM      4  C   UNL     1      -2.311  11.072   0.199  0.00  0.00    -0.046 A 
ATOM      5  C   UNL     1      -2.493  10.465  -1.030  0.00  0.00    -0.031 A 
ATOM      6  C   UNL     1      -2.347   9.096  -1.153  0.00  0.00    +0.009 A 
ATOM      7  C   UNL     1      -2.020   8.334  -0.046  0.00  0.00    -0.034 A 
ATOM      8  C   UNL     1      -2.469  12.565   0.332  0.00  0.00    +0.044 C 
ENDROOT
BRANCH   5   9
ATOM      9  C   UNL     1      -2.849  11.296  -2.236  0.00  0.00    +0.105 C 
ATOM     10  C   UNL     1      -1.719  11.248  -3.228  0.00  0.00    +0.098 C 
ATOM     11  C   UNL     1      -1.809  10.484  -4.344  0.00  0.00    +0.198 C 
ATOM     12  O   UNL     1      -2.899   9.741  -4.608  0.00  0.00    -0.445 OA
ATOM     13  C   UNL     1      -4.054  10.024  -3.988  0.00  0.00    +0.115 C 
ATOM     14  C   UNL     1      -4.103  10.752  -2.865  0.00  0.00    +0.087 C 
ATOM     15  C   UNL     1      -5.341   9.505  -4.576  0.00  0.00    +0.087 C 
BRANCH  11  16
ATOM     16  N   UNL     1      -0.760  10.467  -5.228  0.00  0.00    -0.328 N 
ATOM     17  H   UNL     1       0.033  10.998  -5.050  0.00  0.00    +0.145 HD
ATOM     18  H   UNL     1      -0.810   9.925  -6.031  0.00  0.00    +0.145 HD
ENDBRANCH  11  16
BRANCH  14  19
ATOM     19  C   UNL     1      -5.356  11.013  -2.259  0.00  0.00    +0.339 C 
ATOM     20  O   UNL     1      -6.376  10.578  -2.760  0.00  0.00    -0.245 OA
BRANCH  19  21
ATOM     21  O   UNL     1      -5.419  11.745  -1.127  0.00  0.00    -0.465 OA
ATOM     22  C   UNL     1      -6.716  11.970  -0.571  0.00  0.00    +0.280 C 
ENDBRANCH  19  21
ENDBRANCH  14  19
BRANCH  10  23
ATOM     23  C   UNL     1      -0.536  12.018  -2.992  0.00  0.00    +0.101 C 
ATOM     24  N   UNL     1       0.403  12.630  -2.804  0.00  0.00    -0.191 NA
ENDBRANCH  10  23
ENDBRANCH   5   9
BRANCH   7  25
ATOM     25  C   UNL     1      -1.862   6.841  -0.180  0.00  0.00    +0.109 C 
BRANCH  25  26
ATOM     26  S   UNL     1      -0.137   6.449  -0.582  0.00  0.00    -0.121 S 
BRANCH  26  27
ATOM     27  C   UNL     1      -0.116   4.692  -0.704  0.00  0.00    +0.008 A 
ATOM     28  C   UNL     1       1.068   4.029  -1.006  0.00  0.00    +0.016 A 
ATOM     29  C   UNL     1       1.081   2.651  -1.099  0.00  0.00    +0.016 A 
ATOM     30  C   UNL     1      -0.082   1.931  -0.893  0.00  0.00    +0.018 A 
ATOM     31  C   UNL     1      -1.264   2.588  -0.598  0.00  0.00    +0.016 A 
ATOM     32  C   UNL     1      -1.282   3.965  -0.497  0.00  0.00    +0.016 A 
ATOM     33 BR   UNL     1      -0.059   0.044  -1.023  0.00  0.00    -0.050 Br
ENDBRANCH  26  27
ENDBRANCH  25  26
ENDBRANCH   7  25
TORSDOF 8
