REMARK  Name = ZINC02176358
REMARK  7 active torsions:
REMARK  status: ('A' for Active; 'I' for Inactive)
REMARK    1  A    between atoms: C_1  and  C_2
REMARK    2  A    between atoms: C_5  and  N_8
REMARK    3  A    between atoms: C_12  and  C_13
REMARK    4  A    between atoms: C_16  and  C_19
REMARK    5  A    between atoms: C_19  and  C_20
REMARK    6  A    between atoms: C_19  and  C_21
REMARK    7  A    between atoms: N_24  and  C_27
REMARK                            x       y       z     vdW  Elec       q    Type
REMARK                         _______ _______ _______ _____ _____    ______ ____
ROOT
ATOM      1  N   UNL     1       2.320   3.917   0.983  0.00  0.00    -0.217 N 
ATOM      2  C   UNL     1       1.145   3.333   0.674  0.00  0.00    +0.262 C 
ATOM      3  O   UNL     1       0.088   3.865   0.957  0.00  0.00    -0.269 OA
ATOM      4  C   UNL     1       1.176   2.025  -0.012  0.00  0.00    +0.101 C 
ATOM      5  C   UNL     1       0.016   1.363  -0.356  0.00  0.00    +0.026 C 
ATOM      6  C   UNL     1       2.506   1.460  -0.320  0.00  0.00    +0.262 C 
ATOM      7  O   UNL     1       2.615   0.389  -0.887  0.00  0.00    -0.269 OA
ATOM      8  N   UNL     1       3.597   2.164   0.047  0.00  0.00    -0.217 N 
ATOM      9  C   UNL     1       3.491   3.345   0.672  0.00  0.00    +0.158 C 
ATOM     10  S   UNL     1       4.932   4.166   1.098  0.00  0.00    -0.017 S 
ENDROOT
BRANCH   1  15
ATOM     11  C   UNL     1       2.308   8.932   3.640  0.00  0.00    +0.044 C 
ATOM     12  C   UNL     1       2.311   7.600   2.935  0.00  0.00    -0.050 A 
ATOM     13  C   UNL     1       2.195   7.549   1.558  0.00  0.00    +0.005 A 
ATOM     14  C   UNL     1       2.197   6.330   0.908  0.00  0.00    +0.024 A 
ATOM     15  C   UNL     1       2.317   5.155   1.639  0.00  0.00    +0.043 A 
ATOM     16  C   UNL     1       2.427   5.210   3.022  0.00  0.00    +0.024 A 
ATOM     17  C   UNL     1       2.430   6.432   3.666  0.00  0.00    +0.005 A 
ENDBRANCH   1  15
BRANCH   5  18
ATOM     18  C   UNL     1       0.076   0.170  -1.205  0.00  0.00    -0.024 A 
ATOM     19  C   UNL     1       0.812   0.190  -2.397  0.00  0.00    +0.008 A 
ATOM     20  C   UNL     1       0.868  -0.938  -3.187  0.00  0.00    +0.004 A 
ATOM     21  C   UNL     1       0.190  -2.085  -2.811  0.00  0.00    -0.045 A 
ATOM     22  C   UNL     1      -0.545  -2.112  -1.638  0.00  0.00    +0.004 A 
ATOM     23  C   UNL     1      -0.607  -0.996  -0.833  0.00  0.00    +0.008 A 
BRANCH  21  24
ATOM     24  C   UNL     1       0.252  -3.312  -3.684  0.00  0.00    +0.013 C 
ATOM     25  C   UNL     1      -0.312  -2.982  -5.068  0.00  0.00    +0.012 C 
ATOM     26  C   UNL     1       1.706  -3.767  -3.822  0.00  0.00    +0.012 C 
ENDBRANCH  21  24
ENDBRANCH   5  18
BRANCH   8  27
ATOM     27  C   UNL     1       4.869   1.650  -0.234  0.00  0.00    +0.043 A 
ATOM     28  C   UNL     1       5.553   2.067  -1.368  0.00  0.00    +0.024 A 
ATOM     29  C   UNL     1       6.810   1.562  -1.640  0.00  0.00    +0.002 A 
ATOM     30  C   UNL     1       7.382   0.634  -0.789  0.00  0.00    +0.000 A 
ATOM     31  C   UNL     1       6.701   0.213   0.338  0.00  0.00    +0.002 A 
ATOM     32  C   UNL     1       5.447   0.718   0.618  0.00  0.00    +0.024 A 
ENDBRANCH   8  27
TORSDOF 4
