REMARK  Name = ZINC36821689
REMARK  14 active torsions:
REMARK  status: ('A' for Active; 'I' for Inactive)
REMARK    1  A    between atoms: C_1  and  C_2
REMARK    2  A    between atoms: C_2  and  O_3
REMARK    3  A    between atoms: O_3  and  C_4
REMARK    4  A    between atoms: C_4  and  C_6
REMARK    5  A    between atoms: C_7  and  C_14
REMARK    6  A    between atoms: C_8  and  C_12
REMARK    7  A    between atoms: C_9  and  N_11
REMARK    8  A    between atoms: C_14  and  S_15
REMARK    9  A    between atoms: S_15  and  C_16
REMARK   10  A    between atoms: C_20  and  C_24
REMARK   11  A    between atoms: C_21  and  C_23
REMARK   12  A    between atoms: N_27  and  C_28
REMARK   13  A    between atoms: C_28  and  C_29
REMARK   14  A    between atoms: C_28  and  C_30
REMARK                            x       y       z     vdW  Elec       q    Type
REMARK                         _______ _______ _______ _____ _____    ______ ____
ROOT
ATOM      1  C   UNL     1       0.641  -4.029  -1.541  0.00  0.00    +0.115 C 
ENDROOT
BRANCH   1   3
ATOM      2  C   UNL     1       0.473  -1.540  -1.942  0.00  0.00    +0.103 A 
ATOM      3  C   UNL     1       0.955  -2.778  -2.320  0.00  0.00    +0.003 A 
ATOM      4  C   UNL     1       1.745  -2.801  -3.459  0.00  0.00    +0.084 A 
ATOM      5  C   UNL     1       1.980  -1.590  -4.112  0.00  0.00    +0.082 A 
ATOM      6  S   UNL     1       1.137  -0.463  -3.195  0.00  0.00    -0.066 S 
BRANCH   5   7
ATOM      7  N   UNL     1       2.726  -1.370  -5.248  0.00  0.00    -0.352 N 
ATOM      8  H   UNL     1       3.165  -2.113  -5.691  0.00  0.00    +0.143 HD
ATOM      9  H   UNL     1       2.812  -0.472  -5.605  0.00  0.00    +0.143 HD
ENDBRANCH   5   7
BRANCH   2  10
ATOM     10  C   UNL     1      -0.350  -1.210  -0.835  0.00  0.00    +0.346 C 
ATOM     11  O   UNL     1      -0.717  -2.081  -0.069  0.00  0.00    -0.244 OA
BRANCH  10  12
ATOM     12  O   UNL     1      -0.726   0.070  -0.632  0.00  0.00    -0.461 OA
BRANCH  12  14
ATOM     13  C   UNL     1      -1.876   1.825   0.568  0.00  0.00    +0.048 C 
ATOM     14  C   UNL     1      -1.555   0.330   0.503  0.00  0.00    +0.229 C 
ENDBRANCH  12  14
ENDBRANCH  10  12
ENDBRANCH   2  10
BRANCH   4  15
ATOM     15  C   UNL     1       2.302  -4.027  -3.948  0.00  0.00    +0.102 C 
ATOM     16  N   UNL     1       2.744  -4.998  -4.337  0.00  0.00    -0.191 NA
ENDBRANCH   4  15
ENDBRANCH   1   3
BRANCH   1  17
ATOM     17  S   UNL     1      -0.878  -4.779  -2.189  0.00  0.00    -0.083 S 
BRANCH  17  18
ATOM     18  C   UNL     1      -1.107  -6.211  -1.187  0.00  0.00    +0.173 A 
ATOM     19  N   UNL     1      -0.243  -6.480  -0.230  0.00  0.00    -0.216 NA
ATOM     20  C   UNL     1      -0.390  -7.551   0.540  0.00  0.00    +0.117 A 
ATOM     21  C   UNL     1      -1.464  -8.446   0.377  0.00  0.00    +0.075 A 
ATOM     22  C   UNL     1      -1.474  -9.565   1.303  0.00  0.00    -0.026 A 
ATOM     23  C   UNL     1      -0.498  -9.668   2.217  0.00  0.00    -0.008 A 
ATOM     24  S   UNL     1       0.524  -8.244   1.894  0.00  0.00    -0.073 S 
ATOM     25  C   UNL     1      -0.310 -10.733   3.267  0.00  0.00    +0.052 C 
ATOM     26  C   UNL     1      -2.570 -10.598   1.238  0.00  0.00    +0.045 C 
ATOM     27  C   UNL     1      -2.385  -8.129  -0.670  0.00  0.00    +0.263 A 
ATOM     28  O   UNL     1      -3.346  -8.847  -0.885  0.00  0.00    -0.267 OA
ATOM     29  N   UNL     1      -2.181  -7.024  -1.410  0.00  0.00    -0.285 N 
BRANCH  29  30
ATOM     30  C   UNL     1      -3.125  -6.690  -2.479  0.00  0.00    +0.087 C 
ATOM     31  C   UNL     1      -3.187  -7.843  -3.483  0.00  0.00    +0.031 C 
ATOM     32  C   UNL     1      -4.514  -6.461  -1.880  0.00  0.00    +0.031 C 
ENDBRANCH  29  30
ENDBRANCH  17  18
ENDBRANCH   1  17
TORSDOF 9
