REMARK  Name = ZINC40020669
REMARK  5 active torsions:
REMARK  status: ('A' for Active; 'I' for Inactive)
REMARK    1  A    between atoms: C_1  and  C_2
REMARK    2  A    between atoms: N_15  and  C_25
REMARK    3  A    between atoms: C_16  and  C_18
REMARK    4  A    between atoms: C_25  and  C_26
REMARK    5  A    between atoms: C_26  and  O_27
REMARK                            x       y       z     vdW  Elec       q    Type
REMARK                         _______ _______ _______ _____ _____    ______ ____
ROOT
ATOM      1  C   UNL     1      -0.277   1.238  -0.686  0.00  0.00    +0.044 C 
ATOM      2  C   UNL     1      -0.190  -0.263  -0.586  0.00  0.00    -0.050 A 
ATOM      3  C   UNL     1      -0.112  -1.030  -1.740  0.00  0.00    +0.007 A 
ATOM      4  C   UNL     1      -0.035  -2.403  -1.671  0.00  0.00    +0.047 A 
ATOM      5  C   UNL     1      -0.033  -3.041  -0.430  0.00  0.00    +0.139 A 
ATOM      6  C   UNL     1      -0.106  -2.254   0.731  0.00  0.00    +0.065 A 
ATOM      7  C   UNL     1      -0.182  -0.865   0.642  0.00  0.00    +0.018 A 
ATOM      8  C   UNL     1      -0.088  -2.923   2.056  0.00  0.00    +0.199 A 
ATOM      9  O   UNL     1      -0.315  -2.340   3.101  0.00  0.00    -0.287 OA
ATOM     10  C   UNL     1       0.227  -4.354   1.987  0.00  0.00    +0.072 A 
ATOM     11  C   UNL     1       0.277  -5.007   0.788  0.00  0.00    +0.199 A 
ATOM     12  O   UNL     1       0.036  -4.391  -0.386  0.00  0.00    -0.450 OA
ATOM     13  C   UNL     1       0.623  -6.416   1.044  0.00  0.00    +0.283 C 
ATOM     14  O   UNL     1       0.751  -7.268   0.187  0.00  0.00    -0.267 OA
ATOM     15  N   UNL     1       0.777  -6.623   2.368  0.00  0.00    -0.282 N 
ATOM     16  C   UNL     1       0.538  -5.346   3.059  0.00  0.00    +0.145 C 
ENDROOT
BRANCH  16  17
ATOM     17  C   UNL     1       1.772  -4.925   3.815  0.00  0.00    -0.022 A 
ATOM     18  C   UNL     1       3.018  -5.052   3.228  0.00  0.00    +0.007 A 
ATOM     19  C   UNL     1       4.150  -4.666   3.921  0.00  0.00    +0.020 A 
ATOM     20  C   UNL     1       4.037  -4.153   5.201  0.00  0.00    +0.041 A 
ATOM     21  C   UNL     1       2.790  -4.027   5.787  0.00  0.00    +0.020 A 
ATOM     22  C   UNL     1       1.658  -4.408   5.091  0.00  0.00    +0.007 A 
ATOM     23 CL   UNL     1       5.459  -3.669   6.071  0.00  0.00    -0.084 Cl
ENDBRANCH  16  17
BRANCH  15  24
ATOM     24  C   UNL     1       1.121  -7.897   3.005  0.00  0.00    +0.137 C 
BRANCH  24  25
ATOM     25  C   UNL     1      -0.159  -8.602   3.458  0.00  0.00    +0.175 C 
BRANCH  25  26
ATOM     26  O   UNL     1      -0.936  -8.960   2.313  0.00  0.00    -0.393 OA
ATOM     27  H   UNL     1      -1.763  -9.413   2.525  0.00  0.00    +0.209 HD
ENDBRANCH  25  26
ENDBRANCH  24  25
ENDBRANCH  15  24
TORSDOF 4
