REMARK  Name = ZINC38681026
REMARK  14 active torsions:
REMARK  status: ('A' for Active; 'I' for Inactive)
REMARK    1  A    between atoms: C_1  and  C_2
REMARK    2  A    between atoms: C_6  and  O_8
REMARK    3  A    between atoms: O_8  and  C_9
REMARK    4  A    between atoms: C_9  and  C_10
REMARK    5  A    between atoms: C_10  and  O_12
REMARK    6  A    between atoms: O_12  and  C_13
REMARK    7  A    between atoms: C_20  and  N_38
REMARK    8  A    between atoms: C_21  and  C_36
REMARK    9  A    between atoms: C_22  and  C_24
REMARK   10  A    between atoms: C_27  and  O_32
REMARK   11  A    between atoms: C_28  and  O_30
REMARK   12  A    between atoms: O_30  and  C_31
REMARK   13  A    between atoms: O_32  and  C_33
REMARK   14  A    between atoms: C_33  and  C_34
REMARK                            x       y       z     vdW  Elec       q    Type
REMARK                         _______ _______ _______ _____ _____    ______ ____
ROOT
ATOM      1  C   UNL     1       0.148  -6.694   5.060  0.00  0.00    +0.135 A 
ATOM      2  C   UNL     1       0.100  -5.903   6.199  0.00  0.00    +0.047 A 
ATOM      3  C   UNL     1       0.148  -6.488   7.449  0.00  0.00    +0.012 A 
ATOM      4  C   UNL     1       0.244  -7.863   7.571  0.00  0.00    +0.008 A 
ATOM      5  C   UNL     1       0.293  -8.658   6.437  0.00  0.00    +0.138 A 
ATOM      6  C   UNL     1       0.239  -8.071   5.179  0.00  0.00    +0.093 A 
ATOM      7  O   UNL     1       0.388 -10.007   6.537  0.00  0.00    -0.441 OA
ATOM      8  C   UNL     1       0.054 -10.619   7.686  0.00  0.00    +0.199 C 
ATOM      9  C   UNL     1      -0.008  -9.951   8.862  0.00  0.00    +0.098 C 
ATOM     10  C   UNL     1       0.296  -8.482   8.943  0.00  0.00    +0.098 C 
ENDROOT
BRANCH  10  11
ATOM     11  C   UNL     1       1.673  -8.288   9.526  0.00  0.00    -0.031 A 
ATOM     12  C   UNL     1       2.777  -8.807   8.875  0.00  0.00    +0.008 A 
ATOM     13  C   UNL     1       4.041  -8.632   9.406  0.00  0.00    +0.050 A 
ATOM     14  C   UNL     1       4.204  -7.935  10.593  0.00  0.00    +0.162 A 
ATOM     15  C   UNL     1       3.092  -7.413  11.248  0.00  0.00    +0.162 A 
ATOM     16  C   UNL     1       1.828  -7.588  10.708  0.00  0.00    +0.054 A 
BRANCH  15  17
ATOM     17  O   UNL     1       3.247  -6.728  12.412  0.00  0.00    -0.491 OA
ATOM     18  C   UNL     1       2.062  -6.220  13.029  0.00  0.00    +0.277 C 
ENDBRANCH  15  17
BRANCH  14  19
ATOM     19  O   UNL     1       5.447  -7.762  11.117  0.00  0.00    -0.484 OA
BRANCH  19  20
ATOM     20  C   UNL     1       6.541  -8.326  10.391  0.00  0.00    +0.256 C 
BRANCH  20  21
ATOM     21  C   UNL     1       7.829  -8.036  11.118  0.00  0.00    +0.006 C 
ATOM     22  C   UNL     1       8.719  -8.984  11.277  0.00  0.00    +0.007 C 
ENDBRANCH  20  21
ENDBRANCH  19  20
ENDBRANCH  14  19
ENDBRANCH  10  11
BRANCH   8  23
ATOM     23  N   UNL     1      -0.233 -11.961   7.666  0.00  0.00    -0.328 N 
ATOM     24  H   UNL     1      -0.193 -12.454   6.831  0.00  0.00    +0.145 HD
ATOM     25  H   UNL     1      -0.475 -12.418   8.487  0.00  0.00    +0.145 HD
ENDBRANCH   8  23
BRANCH   9  26
ATOM     26  C   UNL     1      -0.370 -10.659  10.052  0.00  0.00    +0.101 C 
ATOM     27  N   UNL     1      -0.658 -11.221  10.997  0.00  0.00    -0.191 NA
ENDBRANCH   9  26
BRANCH   1  28
ATOM     28  O   UNL     1       0.101  -6.120   3.829  0.00  0.00    -0.423 OA
BRANCH  28  29
ATOM     29  C   UNL     1       1.217  -5.536   3.363  0.00  0.00    +0.350 C 
ATOM     30  O   UNL     1       2.195  -5.453   4.067  0.00  0.00    -0.247 OA
BRANCH  29  31
ATOM     31  C   UNL     1       1.249  -4.983   1.961  0.00  0.00    +0.349 C 
BRANCH  31  32
ATOM     32  O   UNL     1       2.535  -4.417   1.702  0.00  0.00    -0.481 OA
BRANCH  32  38
ATOM     33  C   UNL     1       5.486  -2.134  -1.445  0.00  0.00    +0.044 C 
ATOM     34  C   UNL     1       4.156  -2.750  -1.097  0.00  0.00    -0.047 A 
ATOM     35  C   UNL     1       3.134  -2.760  -2.029  0.00  0.00    +0.003 A 
ATOM     36  C   UNL     1       1.913  -3.325  -1.712  0.00  0.00    +0.004 A 
ATOM     37  C   UNL     1       1.709  -3.881  -0.464  0.00  0.00    +0.045 A 
ATOM     38  C   UNL     1       2.732  -3.872   0.473  0.00  0.00    +0.122 A 
ATOM     39  C   UNL     1       3.960  -3.309   0.151  0.00  0.00    +0.049 A 
ENDBRANCH  32  38
ENDBRANCH  31  32
ENDBRANCH  29  31
ENDBRANCH  28  29
ENDBRANCH   1  28
TORSDOF 12
