REMARK  Name = ZINC16000786
REMARK  3 active torsions:
REMARK  status: ('A' for Active; 'I' for Inactive)
REMARK    1  A    between atoms: C_1  and  C_2
REMARK    2  A    between atoms: N_24  and  C_27
REMARK    3  A    between atoms: C_30  and  N_34
REMARK                            x       y       z     vdW  Elec       q    Type
REMARK                         _______ _______ _______ _____ _____    ______ ____
ROOT
ATOM      1  C   UNL     1       4.326   2.097  -0.024  0.00  0.00    +0.047 C 
ATOM      2  C   UNL     1       3.550   0.805  -0.025  0.00  0.00    -0.011 A 
ATOM      3  C   UNL     1       4.221  -0.402  -0.037  0.00  0.00    +0.046 A 
ATOM      4  C   UNL     1       3.516  -1.592  -0.037  0.00  0.00    +0.020 A 
ATOM      5  C   UNL     1       2.132  -1.573  -0.026  0.00  0.00    +0.006 A 
ATOM      6  C   UNL     1       1.460  -0.372  -0.013  0.00  0.00    -0.027 A 
ATOM      7  C   UNL     1       2.158   0.833  -0.013  0.00  0.00    +0.040 A 
ATOM      8  N   UNL     1       1.266   1.907   0.000  0.00  0.00    -0.286 N 
ATOM      9  C   UNL     1      -0.018   1.501   0.010  0.00  0.00    +0.212 C 
ATOM     10  O   UNL     1      -1.002   2.212   0.019  0.00  0.00    -0.277 OA
ATOM     11  C   UNL     1       0.002  -0.004   0.002  0.00  0.00    +0.053 C 
ATOM     12  C   UNL     1      -0.784  -0.609  -1.109  0.00  0.00    +0.089 C 
ATOM     13  C   UNL     1      -0.930  -2.078  -0.533  0.00  0.00    +0.074 C 
ATOM     14  C   UNL     1      -1.460  -1.740   0.835  0.00  0.00    -0.054 C 
ATOM     15  N   UNL     1      -0.651  -0.535   1.232  0.00  0.00    +0.395 N 
ATOM     16  C   UNL     1      -1.596   0.449   1.790  0.00  0.00    -0.076 C 
ATOM     17  C   UNL     1      -2.893   0.248   0.996  0.00  0.00    -0.020 C 
ATOM     18  C   UNL     1      -2.927  -1.276   0.752  0.00  0.00    -0.016 C 
ATOM     19  C   UNL     1      -1.659  -2.672  -1.669  0.00  0.00    +0.228 C 
ATOM     20  O   UNL     1      -2.539  -3.505  -1.625  0.00  0.00    -0.275 OA
ATOM     21  N   UNL     1      -1.126  -2.079  -2.783  0.00  0.00    -0.209 N 
ATOM     22  C   UNL     1      -0.400  -0.955  -2.484  0.00  0.00    +0.229 C 
ATOM     23  O   UNL     1       0.387  -0.372  -3.200  0.00  0.00    -0.275 OA
ATOM     24 CL   UNL     1       5.956  -0.425  -0.051  0.00  0.00    -0.083 Cl
ATOM     25  H   UNL     1       1.647   2.938   0.002  0.00  0.00    +0.155 HD
ATOM     26  H   UNL     1       0.123  -0.754   1.982  0.00  0.00    -0.079 HD
ENDROOT
BRANCH  21  27
ATOM     27  C   UNL     1      -1.302  -2.569  -4.086  0.00  0.00    +0.062 A 
ATOM     28  C   UNL     1      -2.381  -2.142  -4.849  0.00  0.00    +0.027 A 
ATOM     29  C   UNL     1      -2.552  -2.625  -6.131  0.00  0.00    +0.034 A 
ATOM     30  C   UNL     1      -1.652  -3.534  -6.656  0.00  0.00    +0.128 A 
ATOM     31  C   UNL     1      -0.577  -3.962  -5.899  0.00  0.00    +0.054 A 
ATOM     32  C   UNL     1      -0.396  -3.478  -4.617  0.00  0.00    +0.065 A 
ATOM     33 CL   UNL     1       0.958  -4.010  -3.669  0.00  0.00    -0.082 Cl
BRANCH  30  34
ATOM     34  N   UNL     1      -1.839  -4.050  -8.030  0.00  0.00    +0.056 N 
ATOM     35  O   UNL     1      -2.786  -3.674  -8.698  0.00  0.00    -0.126 OA
ATOM     36  O   UNL     1      -1.047  -4.851  -8.494  0.00  0.00    -0.126 OA
ENDBRANCH  30  34
ENDBRANCH  21  27
TORSDOF 2
