REMARK  Name = ZINC39687114
REMARK  11 active torsions:
REMARK  status: ('A' for Active; 'I' for Inactive)
REMARK    1  A    between atoms: C_1  and  C_2
REMARK    2  A    between atoms: C_2  and  C_3
REMARK    3  A    between atoms: C_3  and  C_4
REMARK    4  A    between atoms: C_4  and  C_5
REMARK    5  A    between atoms: C_5  and  C_7
REMARK    6  A    between atoms: C_5  and  C_8
REMARK    7  A    between atoms: C_12  and  C_21
REMARK    8  A    between atoms: N_23  and  C_24
REMARK    9  A    between atoms: C_24  and  C_26
REMARK   10  A    between atoms: C_24  and  C_27
REMARK   11  A    between atoms: C_27  and  C_28
REMARK                            x       y       z     vdW  Elec       q    Type
REMARK                         _______ _______ _______ _____ _____    ______ ____
ROOT
ATOM      1  C   UNL     1       1.849  -4.202   2.436  0.00  0.00    +0.218 C 
ATOM      2  O   UNL     1       1.562  -4.855   1.455  0.00  0.00    -0.275 OA
ATOM      3  N   UNL     1       2.340  -4.814   3.532  0.00  0.00    -0.300 N 
ATOM      4  C   UNL     1       2.643  -4.210   4.851  0.00  0.00    +0.121 C 
ATOM      5  C   UNL     1       2.191  -5.270   5.880  0.00  0.00    +0.100 C 
ATOM      6  C   UNL     1       2.231  -6.603   5.113  0.00  0.00    -0.004 C 
ATOM      7  C   UNL     1       2.693  -6.245   3.693  0.00  0.00    +0.115 C 
ATOM      8  C   UNL     1       0.840  -7.228   5.067  0.00  0.00    -0.010 C 
ATOM      9  C   UNL     1       0.917  -8.579   4.350  0.00  0.00    -0.082 C 
ATOM     10  N   UNL     1       1.849  -9.461   5.062  0.00  0.00    +0.379 N 
ATOM     11  C   UNL     1       3.204  -8.896   5.021  0.00  0.00    -0.082 C 
ATOM     12  C   UNL     1       3.224  -7.559   5.767  0.00  0.00    -0.010 C 
ATOM     13  H   UNL     1       1.554  -9.555   6.022  0.00  0.00    -0.086 HD
ATOM     14  H   UNL     1       1.852 -10.370   4.623  0.00  0.00    -0.086 HD
ENDROOT
BRANCH   5  15
ATOM     15  C   UNL     1       3.141  -5.306   7.049  0.00  0.00    +0.218 C 
ATOM     16  O   UNL     1       4.314  -5.044   6.885  0.00  0.00    -0.275 OA
ATOM     17  N   UNL     1       2.687  -5.629   8.276  0.00  0.00    -0.312 N 
ATOM     18  H   UNL     1       1.749  -5.838   8.407  0.00  0.00    +0.149 HD
BRANCH  17  19
ATOM     19  C   UNL     1       3.611  -5.663   9.413  0.00  0.00    +0.074 C 
ATOM     20  C   UNL     1       3.754  -4.256   9.996  0.00  0.00    +0.028 C 
BRANCH  19  21
ATOM     21  C   UNL     1       3.064  -6.607  10.486  0.00  0.00    +0.060 C 
BRANCH  21  22
ATOM     22  C   UNL     1       3.038  -8.015   9.950  0.00  0.00    -0.010 A 
ATOM     23  C   UNL     1       1.883  -8.518   9.381  0.00  0.00    +0.006 A 
ATOM     24  C   UNL     1       1.859  -9.809   8.889  0.00  0.00    +0.000 A 
ATOM     25  C   UNL     1       2.990 -10.601   8.966  0.00  0.00    +0.003 A 
ATOM     26  C   UNL     1       4.146 -10.101   9.534  0.00  0.00    +0.038 A 
ATOM     27  C   UNL     1       4.173  -8.805  10.023  0.00  0.00    +0.127 A 
ATOM     28  F   UNL     1       5.304  -8.313  10.574  0.00  0.00    -0.205 F 
ENDBRANCH  21  22
ENDBRANCH  19  21
ENDBRANCH  17  19
ENDBRANCH   5  15
BRANCH   1  29
ATOM     29  C   UNL     1       1.657  -2.708   2.430  0.00  0.00    +0.072 C 
ATOM     30  C   UNL     1       0.249  -2.372   2.925  0.00  0.00    +0.017 C 
BRANCH  29  31
ATOM     31  C   UNL     1       1.838  -2.176   1.006  0.00  0.00    +0.012 C 
BRANCH  31  32
ATOM     32  C   UNL     1       1.767  -0.648   1.020  0.00  0.00    +0.000 C 
BRANCH  32  34
ATOM     33  C   UNL     1       1.877   1.412  -0.390  0.00  0.00    +0.004 C 
ATOM     34  C   UNL     1       1.948  -0.116  -0.403  0.00  0.00    -0.003 C 
ENDBRANCH  32  34
ENDBRANCH  31  32
ENDBRANCH  29  31
ENDBRANCH   1  29
TORSDOF 8
