REMARK  Name = ZINC09408728
REMARK  7 active torsions:
REMARK  status: ('A' for Active; 'I' for Inactive)
REMARK    1  A    between atoms: C_1  and  C_2
REMARK    2  A    between atoms: C_5  and  C_32
REMARK    3  A    between atoms: C_6  and  N_8
REMARK    4  A    between atoms: C_13  and  N_63
REMARK    5  A    between atoms: C_19  and  N_21
REMARK    6  A    between atoms: N_21  and  S_22
REMARK    7  A    between atoms: S_22  and  C_25
REMARK                            x       y       z     vdW  Elec       q    Type
REMARK                         _______ _______ _______ _____ _____    ______ ____
ROOT
ATOM      1  C   UNL     1      -5.297  -2.056   0.058  0.00  0.00    -0.050 C 
ATOM      2  C   UNL     1      -6.471  -1.076   0.099  0.00  0.00    -0.014 C 
ATOM      3  C   UNL     1      -7.787  -1.856   0.101  0.00  0.00    -0.001 C 
ATOM      4  C   UNL     1      -7.839  -2.765   1.331  0.00  0.00    +0.001 C 
ATOM      5  C   UNL     1      -6.665  -3.746   1.290  0.00  0.00    +0.019 C 
ATOM      6  C   UNL     1      -5.349  -2.965   1.287  0.00  0.00    +0.063 C 
ENDROOT
BRANCH   1  12
ATOM      7  N   UNL     1      -2.426   1.042   0.020  0.00  0.00    -0.333 N 
ATOM      8  C   UNL     1      -2.564   0.247   1.247  0.00  0.00    +0.086 C 
ATOM      9  C   UNL     1      -3.925  -0.454   1.247  0.00  0.00    -0.059 C 
ATOM     10  C   UNL     1      -3.896  -0.511  -1.172  0.00  0.00    -0.059 C 
ATOM     11  C   UNL     1      -2.535   0.190  -1.172  0.00  0.00    +0.086 C 
ATOM     12  N   UNL     1      -4.012  -1.325   0.056  0.00  0.00    +0.385 N 
ATOM     13  H   UNL     1      -3.242  -2.003   0.081  0.00  0.00    -0.081 HD
BRANCH   7  19
ATOM     14  C   UNL     1       2.488   1.048  -0.016  0.00  0.00    +0.044 C 
ATOM     15  C   UNL     1       1.173   1.783   0.000  0.00  0.00    -0.049 A 
ATOM     16  C   UNL     1       1.155   3.166   0.007  0.00  0.00    +0.004 A 
ATOM     17  C   UNL     1      -0.049   3.845   0.022  0.00  0.00    +0.005 A 
ATOM     18  C   UNL     1      -1.239   3.144   0.030  0.00  0.00    -0.029 A 
ATOM     19  C   UNL     1      -1.225   1.755   0.017  0.00  0.00    +0.033 A 
ATOM     20  C   UNL     1      -0.013   1.076   0.008  0.00  0.00    +0.026 A 
ATOM     21  C   UNL     1      -2.551   3.884   0.047  0.00  0.00    +0.045 C 
ENDBRANCH   7  19
ENDBRANCH   1  12
BRANCH   6  22
ATOM     22  N   UNL     1      -4.224  -3.904   1.248  0.00  0.00    -0.188 NA
ATOM     23  H   UNL     1      -3.912  -4.252   0.398  0.00  0.00    +0.148 HD
BRANCH  22  24
ATOM     24  S   UNL     1      -3.487  -4.372   2.655  0.00  0.00    +0.059 S 
ATOM     25  O   UNL     1      -2.467  -5.292   2.292  0.00  0.00    -0.153 OA
ATOM     26  O   UNL     1      -3.216  -3.183   3.386  0.00  0.00    -0.153 OA
BRANCH  24  27
ATOM     27  C   UNL     1      -4.674  -5.278   3.590  0.00  0.00    +0.105 A 
ATOM     28  C   UNL     1      -5.496  -4.620   4.486  0.00  0.00    +0.030 A 
ATOM     29  C   UNL     1      -6.431  -5.330   5.215  0.00  0.00    +0.022 A 
ATOM     30  C   UNL     1      -6.537  -6.700   5.056  0.00  0.00    +0.041 A 
ATOM     31  C   UNL     1      -5.711  -7.358   4.163  0.00  0.00    +0.022 A 
ATOM     32  C   UNL     1      -4.780  -6.647   3.431  0.00  0.00    +0.030 A 
ATOM     33 CL   UNL     1      -7.707  -7.593   5.977  0.00  0.00    -0.084 Cl
ENDBRANCH  24  27
ENDBRANCH  22  24
ENDBRANCH   6  22
TORSDOF 5
