REMARK  Name = ZINC01107291
REMARK  7 active torsions:
REMARK  status: ('A' for Active; 'I' for Inactive)
REMARK    1  A    between atoms: C_1  and  C_2
REMARK    2  A    between atoms: C_2  and  C_31
REMARK    3  A    between atoms: C_6  and  C_14
REMARK    4  A    between atoms: C_8  and  C_12
REMARK    5  A    between atoms: C_9  and  N_11
REMARK    6  A    between atoms: C_17  and  C_19
REMARK    7  A    between atoms: C_23  and  N_25
REMARK                            x       y       z     vdW  Elec       q    Type
REMARK                         _______ _______ _______ _____ _____    ______ ____
ROOT
ATOM      1  C   UNL     1      -4.307  -1.039   2.741  0.00  0.00    +0.012 C 
ATOM      2  C   UNL     1      -5.467  -0.301   3.413  0.00  0.00    -0.021 C 
ATOM      3  C   UNL     1      -6.654  -0.226   2.451  0.00  0.00    +0.081 C 
ATOM      4  C   UNL     1      -6.256   0.540   1.210  0.00  0.00    +0.115 C 
ATOM      5  C   UNL     1      -5.341   1.524   1.275  0.00  0.00    +0.049 C 
ATOM      6  C   UNL     1      -4.954   2.296   0.037  0.00  0.00    +0.137 C 
ATOM      7  C   UNL     1      -5.348   1.528  -1.194  0.00  0.00    +0.101 C 
ATOM      8  C   UNL     1      -6.265   0.533  -1.116  0.00  0.00    +0.198 C 
ATOM      9  O   UNL     1      -6.849   0.209   0.048  0.00  0.00    -0.445 OA
ATOM     10  C   UNL     1      -4.717   1.865   2.490  0.00  0.00    +0.164 C 
ATOM     11  O   UNL     1      -3.908   2.771   2.512  0.00  0.00    -0.292 OA
ATOM     12  C   UNL     1      -5.034   1.127   3.763  0.00  0.00    +0.086 C 
ATOM     13  C   UNL     1      -5.878  -1.041   4.687  0.00  0.00    +0.012 C 
ENDROOT
BRANCH   6  14
ATOM     14  C   UNL     1      -3.463   2.518   0.031  0.00  0.00    +0.118 A 
ATOM     15  C   UNL     1      -2.847   3.716   0.035  0.00  0.00    +0.046 A 
ATOM     16  C   UNL     1      -1.460   3.467   0.028  0.00  0.00    +0.050 A 
ATOM     17  C   UNL     1      -1.305   2.116   0.020  0.00  0.00    +0.135 A 
ATOM     18  O   UNL     1      -2.528   1.554   0.017  0.00  0.00    -0.459 OA
BRANCH  17  19
ATOM     19  C   UNL     1      -0.017   1.391   0.010  0.00  0.00    +0.019 A 
ATOM     20  C   UNL     1       1.186   2.100   0.002  0.00  0.00    +0.012 A 
ATOM     21  C   UNL     1       2.385   1.417  -0.014  0.00  0.00    +0.003 A 
ATOM     22  C   UNL     1       2.396   0.034  -0.021  0.00  0.00    +0.033 A 
ATOM     23  C   UNL     1       1.208  -0.674  -0.013  0.00  0.00    +0.127 A 
ATOM     24  C   UNL     1       0.002  -0.004   0.002  0.00  0.00    +0.044 A 
BRANCH  23  25
ATOM     25  N   UNL     1       1.230  -2.154  -0.022  0.00  0.00    +0.056 N 
ATOM     26  O   UNL     1       0.184  -2.779  -0.015  0.00  0.00    -0.126 OA
ATOM     27  O   UNL     1       2.294  -2.748  -0.035  0.00  0.00    -0.126 OA
ENDBRANCH  23  25
ENDBRANCH  17  19
ENDBRANCH   6  14
BRANCH   8  28
ATOM     28  N   UNL     1      -6.605  -0.158  -2.253  0.00  0.00    -0.328 N 
ATOM     29  H   UNL     1      -6.189   0.069  -3.100  0.00  0.00    +0.145 HD
ATOM     30  H   UNL     1      -7.260  -0.872  -2.209  0.00  0.00    +0.145 HD
ENDBRANCH   8  28
BRANCH   7  31
ATOM     31  C   UNL     1      -4.752   1.850  -2.455  0.00  0.00    +0.101 C 
ATOM     32  N   UNL     1      -4.279   2.105  -3.456  0.00  0.00    -0.191 NA
ENDBRANCH   7  31
TORSDOF 5
