REMARK  Name = ZINC20850088
REMARK  7 active torsions:
REMARK  status: ('A' for Active; 'I' for Inactive)
REMARK    1  A    between atoms: C_1  and  C_2
REMARK    2  A    between atoms: C_2  and  C_34
REMARK    3  A    between atoms: C_6  and  C_24
REMARK    4  A    between atoms: C_11  and  S_13
REMARK    5  A    between atoms: S_13  and  C_14
REMARK    6  A    between atoms: C_14  and  C_15
REMARK    7  A    between atoms: C_15  and  C_17
REMARK                            x       y       z     vdW  Elec       q    Type
REMARK                         _______ _______ _______ _____ _____    ______ ____
ROOT
ATOM      1  C   UNL     1       8.529   3.190   1.203  0.00  0.00    +0.011 C 
ATOM      2  C   UNL     1       8.575   2.973  -0.311  0.00  0.00    -0.023 C 
ATOM      3  C   UNL     1       7.490   1.977  -0.722  0.00  0.00    +0.058 C 
ATOM      4  C   UNL     1       6.130   2.529  -0.365  0.00  0.00    +0.020 C 
ATOM      5  C   UNL     1       5.900   3.859  -0.362  0.00  0.00    +0.041 C 
ATOM      6  C   UNL     1       4.549   4.442  -0.009  0.00  0.00    +0.175 C 
ATOM      7  N   UNL     1       3.537   3.393  -0.013  0.00  0.00    -0.220 N 
ATOM      8  C   UNL     1       3.834   2.070  -0.026  0.00  0.00    +0.219 A 
ATOM      9  N   UNL     1       2.712   1.402  -0.017  0.00  0.00    -0.187 NA
ATOM     10  C   UNL     1       1.681   2.259  -0.002  0.00  0.00    +0.211 A 
ATOM     11  N   UNL     1       2.147   3.490  -0.005  0.00  0.00    -0.141 NA
ATOM     12  N   UNL     1       5.145   1.623  -0.051  0.00  0.00    -0.287 N 
ATOM     13  C   UNL     1       6.922   4.769  -0.691  0.00  0.00    +0.164 C 
ATOM     14  O   UNL     1       6.678   5.959  -0.702  0.00  0.00    -0.292 OA
ATOM     15  C   UNL     1       8.309   4.300  -1.031  0.00  0.00    +0.086 C 
ATOM     16  C   UNL     1       9.949   2.434  -0.714  0.00  0.00    +0.011 C 
ATOM     17  H   UNL     1       5.408   0.579   0.170  0.00  0.00    +0.155 HD
ENDROOT
BRANCH   6  18
ATOM     18  C   UNL     1       4.617   5.067   1.360  0.00  0.00    -0.018 A 
ATOM     19  C   UNL     1       4.929   4.290   2.460  0.00  0.00    +0.007 A 
ATOM     20  C   UNL     1       4.996   4.864   3.715  0.00  0.00    +0.020 A 
ATOM     21  C   UNL     1       4.741   6.215   3.873  0.00  0.00    +0.041 A 
ATOM     22  C   UNL     1       4.423   6.991   2.772  0.00  0.00    +0.020 A 
ATOM     23  C   UNL     1       4.361   6.417   1.516  0.00  0.00    +0.007 A 
ATOM     24 CL   UNL     1       4.819   6.936   5.450  0.00  0.00    -0.084 Cl
ENDBRANCH   6  18
BRANCH  10  25
ATOM     25  S   UNL     1      -0.022   1.810   0.012  0.00  0.00    -0.076 S 
BRANCH  25  26
ATOM     26  C   UNL     1       0.002  -0.004   0.002  0.00  0.00    +0.157 C 
BRANCH  26  27
ATOM     27  C   UNL     1      -1.412  -0.526   0.013  0.00  0.00    +0.173 C 
ATOM     28  O   UNL     1      -2.344   0.250   0.026  0.00  0.00    -0.291 OA
BRANCH  27  29
ATOM     29  C   UNL     1      -1.661  -1.976   0.007  0.00  0.00    +0.018 A 
ATOM     30  C   UNL     1      -0.589  -2.873  -0.014  0.00  0.00    +0.011 A 
ATOM     31  C   UNL     1      -0.830  -4.231  -0.014  0.00  0.00    +0.001 A 
ATOM     32  C   UNL     1      -2.130  -4.706  -0.004  0.00  0.00    +0.000 A 
ATOM     33  C   UNL     1      -3.197  -3.824   0.012  0.00  0.00    +0.001 A 
ATOM     34  C   UNL     1      -2.972  -2.464   0.017  0.00  0.00    +0.011 A 
ENDBRANCH  27  29
ENDBRANCH  26  27
ENDBRANCH  25  26
ENDBRANCH  10  25
TORSDOF 5
