REMARK  Name = ZINC14135862
REMARK  10 active torsions:
REMARK  status: ('A' for Active; 'I' for Inactive)
REMARK    1  A    between atoms: C_1  and  C_2
REMARK    2  A    between atoms: C_5  and  O_27
REMARK    3  A    between atoms: C_6  and  C_8
REMARK    4  A    between atoms: C_8  and  C_10
REMARK    5  A    between atoms: C_8  and  N_11
REMARK    6  A    between atoms: N_11  and  C_12
REMARK    7  A    between atoms: C_12  and  C_14
REMARK    8  A    between atoms: C_12  and  C_20
REMARK    9  A    between atoms: N_25  and  C_26
REMARK   10  A    between atoms: O_27  and  C_28
REMARK                            x       y       z     vdW  Elec       q    Type
REMARK                         _______ _______ _______ _____ _____    ______ ____
ROOT
ATOM      1  C   UNL     1      -2.482   0.853   0.018  0.00  0.00    +0.172 C 
ENDROOT
BRANCH   1   2
ATOM      2  C   UNL     1      -1.187   1.624   0.017  0.00  0.00    +0.242 C 
ATOM      3  O   UNL     1      -1.204   2.836   0.023  0.00  0.00    -0.273 OA
ATOM      4  N   UNL     1      -0.011   0.966   0.007  0.00  0.00    -0.239 N 
ATOM      5  C   UNL     1       1.147   1.655   0.000  0.00  0.00    +0.306 C 
ATOM      6  O   UNL     1       1.130   2.871   0.007  0.00  0.00    -0.252 OA
ATOM      7  N   UNL     1       2.323   0.998  -0.015  0.00  0.00    -0.302 N 
ATOM      8  C   UNL     1       3.582   1.747  -0.023  0.00  0.00    +0.129 C 
ATOM      9  H   UNL     1       0.004  -0.134   0.006  0.00  0.00    +0.159 HD
ATOM     10  H   UNL     1       2.338  -0.102  -0.021  0.00  0.00    +0.150 HD
ENDBRANCH   1   2
BRANCH   1  11
ATOM     11  C   UNL     1      -2.556  -0.008  -1.216  0.00  0.00    -0.022 A 
ATOM     12  C   UNL     1      -2.935   0.547  -2.424  0.00  0.00    +0.005 A 
ATOM     13  C   UNL     1      -2.998  -0.241  -3.558  0.00  0.00    +0.000 A 
ATOM     14  C   UNL     1      -2.692  -1.587  -3.482  0.00  0.00    +0.000 A 
ATOM     15  C   UNL     1      -2.318  -2.144  -2.273  0.00  0.00    +0.000 A 
ATOM     16  C   UNL     1      -2.250  -1.354  -1.140  0.00  0.00    +0.005 A 
ENDBRANCH   1  11
BRANCH   1  17
ATOM     17  N   UNL     1      -3.611   1.792   0.029  0.00  0.00    -0.295 NA
ATOM     18  H   UNL     1      -3.824   2.099  -1.006  0.00  0.00    +0.124 HD
BRANCH  17  19
ATOM     19  C   UNL     1      -4.808   1.170   0.611  0.00  0.00    +0.085 C 
ATOM     20  C   UNL     1      -5.554   0.387  -0.472  0.00  0.00    +0.029 C 
BRANCH  19  26
ATOM     21  C   UNL     1      -6.412   5.909   0.624  0.00  0.00    +0.044 C 
ATOM     22  C   UNL     1      -6.478   4.508   1.176  0.00  0.00    -0.050 A 
ATOM     23  C   UNL     1      -7.366   4.208   2.192  0.00  0.00    +0.007 A 
ATOM     24  C   UNL     1      -7.429   2.925   2.700  0.00  0.00    +0.046 A 
ATOM     25  C   UNL     1      -6.600   1.937   2.188  0.00  0.00    +0.125 A 
ATOM     26  C   UNL     1      -5.710   2.240   1.168  0.00  0.00    +0.011 A 
ATOM     27  C   UNL     1      -5.648   3.527   0.668  0.00  0.00    +0.012 A 
BRANCH  25  28
ATOM     28  O   UNL     1      -6.660   0.674   2.686  0.00  0.00    -0.495 OA
ATOM     29  C   UNL     1      -7.599   0.433   3.735  0.00  0.00    +0.277 C 
ENDBRANCH  25  28
ENDBRANCH  19  26
ENDBRANCH  17  19
ENDBRANCH   1  17
TORSDOF 6
