REMARK  Name = ZINC53007935
REMARK  5 active torsions:
REMARK  status: ('A' for Active; 'I' for Inactive)
REMARK    1  A    between atoms: C_1  and  C_2
REMARK    2  A    between atoms: C_5  and  N_20
REMARK    3  A    between atoms: C_6  and  C_8
REMARK    4  A    between atoms: N_10  and  C_11
REMARK    5  A    between atoms: N_20  and  N_21
REMARK                            x       y       z     vdW  Elec       q    Type
REMARK                         _______ _______ _______ _____ _____    ______ ____
ROOT
ATOM      1  C   UNL     1      -0.713  -2.943   2.459  0.00  0.00    +0.250 C 
ATOM      2  O   UNL     1      -1.180  -4.066   2.466  0.00  0.00    -0.270 OA
ATOM      3  N   UNL     1      -0.206  -2.417   3.591  0.00  0.00    -0.279 N 
ATOM      4  H   UNL     1       0.119  -1.503   3.599  0.00  0.00    +0.155 HD
ENDROOT
BRANCH   3   5
ATOM      5  C   UNL     1      -0.148  -3.190   4.758  0.00  0.00    +0.071 A 
ATOM      6  C   UNL     1       0.254  -4.519   4.693  0.00  0.00    +0.065 A 
ATOM      7  C   UNL     1       0.311  -5.279   5.846  0.00  0.00    +0.042 A 
ATOM      8  C   UNL     1      -0.033  -4.718   7.064  0.00  0.00    +0.044 A 
ATOM      9  C   UNL     1      -0.435  -3.396   7.131  0.00  0.00    +0.042 A 
ATOM     10  C   UNL     1      -0.488  -2.629   5.982  0.00  0.00    +0.065 A 
ATOM     11 CL   UNL     1      -0.986  -0.968   6.069  0.00  0.00    -0.082 Cl
ATOM     12 CL   UNL     1       0.039  -5.677   8.509  0.00  0.00    -0.083 Cl
ATOM     13 CL   UNL     1       0.686  -5.223   3.166  0.00  0.00    -0.082 Cl
ENDBRANCH   3   5
BRANCH   1  19
ATOM     14  C   UNL     1       0.632   1.155  -0.042  0.00  0.00    +0.044 C 
ATOM     15  C   UNL     1      -0.057  -0.185   0.001  0.00  0.00    -0.050 A 
ATOM     16  C   UNL     1      -0.679  -0.677  -1.135  0.00  0.00    +0.005 A 
ATOM     17  C   UNL     1      -1.313  -1.902  -1.110  0.00  0.00    +0.025 A 
ATOM     18  C   UNL     1      -1.331  -2.652   0.059  0.00  0.00    +0.053 A 
ATOM     19  C   UNL     1      -0.701  -2.158   1.212  0.00  0.00    +0.059 A 
ATOM     20  C   UNL     1      -0.059  -0.917   1.168  0.00  0.00    +0.018 A 
BRANCH  18  21
ATOM     21  N   UNL     1      -1.970  -3.885   0.087  0.00  0.00    -0.282 N 
ATOM     22  H   UNL     1      -1.914  -4.442   0.880  0.00  0.00    +0.166 HD
BRANCH  21  23
ATOM     23  N   UNL     1      -2.675  -4.314  -1.001  0.00  0.00    -0.256 NA
ATOM     24  H   UNL     1      -2.096  -4.324  -1.827  0.00  0.00    +0.140 HD
ATOM     25  H   UNL     1      -3.081  -5.223  -0.833  0.00  0.00    +0.140 HD
ENDBRANCH  21  23
ENDBRANCH  18  21
ENDBRANCH   1  19
TORSDOF 4
