REMARK  Name = ZINC59248708
REMARK  4 active torsions:
REMARK  status: ('A' for Active; 'I' for Inactive)
REMARK    1  A    between atoms: C_3  and  C_8
REMARK    2  A    between atoms: N_10  and  N_11
REMARK    3  A    between atoms: C_12  and  C_13
REMARK    4  A    between atoms: N_17  and  C_18
REMARK                            x       y       z     vdW  Elec       q    Type
REMARK                         _______ _______ _______ _____ _____    ______ ____
ROOT
ATOM      1  N   UNL     1       6.036   2.217  -0.045  0.00  0.00    -0.186 NA
ATOM      2  C   UNL     1       7.170   1.580  -0.059  0.00  0.00    +0.156 C 
ENDROOT
BRANCH   2   3
ATOM      3  C   UNL     1       8.431   2.328  -0.067  0.00  0.00    +0.066 A 
ATOM      4  C   UNL     1       8.565   3.699  -0.056  0.00  0.00    +0.029 A 
ATOM      5  C   UNL     1       9.938   3.982  -0.070  0.00  0.00    +0.020 A 
ATOM      6  C   UNL     1      10.604   2.806  -0.089  0.00  0.00    +0.092 A 
ATOM      7  N   UNL     1       9.697   1.788  -0.083  0.00  0.00    -0.315 N 
BRANCH   7   8
ATOM      8  C   UNL     1      10.003   0.420  -0.092  0.00  0.00    +0.047 A 
ATOM      9  C   UNL     1       9.406  -0.433   0.827  0.00  0.00    +0.027 A 
ATOM     10  C   UNL     1       9.709  -1.780   0.815  0.00  0.00    +0.017 A 
ATOM     11  C   UNL     1      10.606  -2.280  -0.112  0.00  0.00    +0.018 A 
ATOM     12  C   UNL     1      11.203  -1.433  -1.028  0.00  0.00    +0.017 A 
ATOM     13  C   UNL     1      10.900  -0.086  -1.024  0.00  0.00    +0.027 A 
ATOM     14 BR   UNL     1      11.019  -4.126  -0.125  0.00  0.00    -0.050 Br
ENDBRANCH   7   8
ENDBRANCH   2   3
BRANCH   1  17
ATOM     15  C   UNL     1       3.656   2.162  -0.022  0.00  0.00    +0.263 C 
ATOM     16  O   UNL     1       3.642   3.378  -0.015  0.00  0.00    -0.268 OA
ATOM     17  N   UNL     1       4.831   1.502  -0.036  0.00  0.00    -0.203 N 
ATOM     18  H   UNL     1       4.843   0.532  -0.042  0.00  0.00    +0.178 HD
BRANCH  15  21
ATOM     19  C   UNL     1      -0.017   1.379   0.010  0.00  0.00    +0.002 A 
ATOM     20  C   UNL     1       1.167   2.088   0.002  0.00  0.00    +0.013 A 
ATOM     21  C   UNL     1       2.385   1.408  -0.013  0.00  0.00    +0.040 A 
ATOM     22  C   UNL     1       2.398   0.012  -0.021  0.00  0.00    +0.033 A 
ATOM     23  C   UNL     1       1.207  -0.686  -0.013  0.00  0.00    +0.042 A 
ATOM     24  C   UNL     1       0.002  -0.004   0.002  0.00  0.00    +0.020 A 
ATOM     25 CL   UNL     1       1.220  -2.422  -0.023  0.00  0.00    -0.084 Cl
ENDBRANCH  15  21
ENDBRANCH   1  17
TORSDOF 4
