REMARK  Name = ZINC36494092
REMARK  14 active torsions:
REMARK  status: ('A' for Active; 'I' for Inactive)
REMARK    1  A    between atoms: C_1  and  C_2
REMARK    2  A    between atoms: C_5  and  C_8
REMARK    3  A    between atoms: C_8  and  C_10
REMARK    4  A    between atoms: C_8  and  N_17
REMARK    5  A    between atoms: N_12  and  C_13
REMARK    6  A    between atoms: C_13  and  C_14
REMARK    7  A    between atoms: C_13  and  C_15
REMARK    8  A    between atoms: C_13  and  C_16
REMARK    9  A    between atoms: N_17  and  C_18
REMARK   10  A    between atoms: C_18  and  C_19
REMARK   11  A    between atoms: C_24  and  C_26
REMARK   12  A    between atoms: C_32  and  O_34
REMARK   13  A    between atoms: O_34  and  C_35
REMARK   14  A    between atoms: C_35  and  C_36
REMARK                            x       y       z     vdW  Elec       q    Type
REMARK                         _______ _______ _______ _____ _____    ______ ____
ROOT
ATOM      1  N   UNL     1       1.277  -5.553   0.891  0.00  0.00    -0.277 N 
ATOM      2  C   UNL     1       1.881  -6.758   0.858  0.00  0.00    +0.237 C 
ATOM      3  O   UNL     1       2.413  -7.141  -0.162  0.00  0.00    -0.274 OA
ENDROOT
BRANCH   2   4
ATOM      4  C   UNL     1       1.895  -7.628   2.088  0.00  0.00    +0.165 C 
ATOM      5  C   UNL     1       0.571  -8.412   2.191  0.00  0.00    +0.033 C 
ATOM      6  C   UNL     1       1.028  -9.800   2.715  0.00  0.00    +0.021 C 
ATOM      7  C   UNL     1       2.392  -9.967   2.001  0.00  0.00    +0.112 C 
ATOM      8  N   UNL     1       2.983  -8.613   1.991  0.00  0.00    -0.256 N 
ATOM      9  C   UNL     1       4.297  -8.326   1.906  0.00  0.00    +0.404 C 
ATOM     10  O   UNL     1       4.668  -7.168   1.906  0.00  0.00    -0.226 OA
BRANCH   9  11
ATOM     11  O   UNL     1       5.199  -9.321   1.822  0.00  0.00    -0.445 OA
BRANCH  11  12
ATOM     12  C   UNL     1       6.575  -8.945   1.735  0.00  0.00    +0.269 C 
BRANCH  12  13
ATOM     13  C   UNL     1       7.431 -10.182   1.649  0.00  0.00    -0.010 A 
ATOM     14  C   UNL     1       7.901 -10.779   2.804  0.00  0.00    +0.007 A 
ATOM     15  C   UNL     1       8.685 -11.915   2.724  0.00  0.00    +0.000 A 
ATOM     16  C   UNL     1       8.999 -12.453   1.491  0.00  0.00    +0.000 A 
ATOM     17  C   UNL     1       8.528 -11.857   0.336  0.00  0.00    +0.000 A 
ATOM     18  C   UNL     1       7.740 -10.724   0.415  0.00  0.00    +0.007 A 
ENDBRANCH  12  13
ENDBRANCH  11  12
ENDBRANCH   9  11
ENDBRANCH   2   4
BRANCH   1  19
ATOM     19  C   UNL     1       1.175  -4.751  -0.330  0.00  0.00    +0.193 C 
BRANCH  19  24
ATOM     20  C   UNL     1       3.561   0.436   0.563  0.00  0.00    +0.044 C 
ATOM     21  C   UNL     1       2.939  -0.917   0.331  0.00  0.00    -0.050 A 
ATOM     22  C   UNL     1       3.687  -2.064   0.520  0.00  0.00    +0.004 A 
ATOM     23  C   UNL     1       3.116  -3.304   0.306  0.00  0.00    +0.006 A 
ATOM     24  C   UNL     1       1.797  -3.398  -0.096  0.00  0.00    -0.018 A 
ATOM     25  C   UNL     1       1.049  -2.251  -0.285  0.00  0.00    +0.006 A 
ATOM     26  C   UNL     1       1.618  -1.011  -0.067  0.00  0.00    +0.004 A 
ENDBRANCH  19  24
BRANCH  19  27
ATOM     27  C   UNL     1      -0.277  -4.579  -0.698  0.00  0.00    +0.238 C 
ATOM     28  O   UNL     1      -1.143  -4.865   0.101  0.00  0.00    -0.273 OA
ATOM     29  N   UNL     1      -0.612  -4.108  -1.915  0.00  0.00    -0.309 N 
ATOM     30  H   UNL     1       0.081  -3.879  -2.554  0.00  0.00    +0.149 HD
BRANCH  29  31
ATOM     31  C   UNL     1      -2.023  -3.941  -2.273  0.00  0.00    +0.026 C 
ATOM     32  C   UNL     1      -2.683  -2.960  -1.302  0.00  0.00    +0.031 C 
ATOM     33  C   UNL     1      -2.126  -3.395  -3.698  0.00  0.00    +0.031 C 
ATOM     34  C   UNL     1      -2.733  -5.294  -2.192  0.00  0.00    +0.031 C 
ENDBRANCH  29  31
ENDBRANCH  19  27
ENDBRANCH   1  19
BRANCH   1  35
ATOM     35  C   UNL     1       0.724  -5.046   2.150  0.00  0.00    +0.183 C 
BRANCH  35  36
ATOM     36  C   UNL     1       1.818  -4.392   2.953  0.00  0.00    +0.122 A 
ATOM     37  C   UNL     1       1.838  -3.109   3.357  0.00  0.00    +0.046 A 
ATOM     38  C   UNL     1       3.041  -2.925   4.076  0.00  0.00    +0.041 A 
ATOM     39  C   UNL     1       3.685  -4.106   4.068  0.00  0.00    +0.195 A 
ATOM     40  O   UNL     1       2.936  -4.993   3.392  0.00  0.00    -0.466 OA
ENDBRANCH  35  36
ENDBRANCH   1  35
TORSDOF 10
