REMARK  Name = ZINC19502335
REMARK  10 active torsions:
REMARK  status: ('A' for Active; 'I' for Inactive)
REMARK    1  A    between atoms: C_1  and  C_2
REMARK    2  A    between atoms: C_2  and  C_3
REMARK    3  A    between atoms: C_3  and  C_4
REMARK    4  A    between atoms: C_4  and  C_5
REMARK    5  A    between atoms: C_9  and  C_11
REMARK    6  A    between atoms: C_11  and  N_12
REMARK    7  A    between atoms: C_21  and  C_24
REMARK    8  A    between atoms: C_24  and  N_25
REMARK    9  A    between atoms: N_25  and  C_26
REMARK   10  A    between atoms: N_25  and  C_27
REMARK                            x       y       z     vdW  Elec       q    Type
REMARK                         _______ _______ _______ _____ _____    ______ ____
ROOT
ATOM      1  N   UNL     1       1.952  -5.048   6.008  0.00  0.00    -0.289 NA
ATOM      2  C   UNL     1       0.921  -5.670   5.171  0.00  0.00    +0.123 C 
ATOM      3  C   UNL     1       1.425  -7.019   4.696  0.00  0.00    +0.008 A 
ATOM      4  C   UNL     1       1.715  -7.221   3.362  0.00  0.00    +0.008 A 
ATOM      5  C   UNL     1       2.158  -8.461   2.938  0.00  0.00    +0.001 A 
ATOM      6  C   UNL     1       2.305  -9.493   3.846  0.00  0.00    +0.004 A 
ATOM      7  C   UNL     1       2.021  -9.289   5.183  0.00  0.00    +0.046 A 
ATOM      8  C   UNL     1       1.586  -8.042   5.610  0.00  0.00    +0.125 A 
ATOM      9  O   UNL     1       1.351  -7.816   6.932  0.00  0.00    -0.489 OA
ATOM     10  C   UNL     1       2.289  -6.948   7.581  0.00  0.00    +0.171 C 
ATOM     11  C   UNL     1       1.894  -5.498   7.396  0.00  0.00    +0.127 C 
ENDROOT
BRANCH   1  12
ATOM     12  C   UNL     1       1.884  -3.583   5.927  0.00  0.00    +0.141 C 
BRANCH  12  17
ATOM     13  C   UNL     1       1.919  -2.413   2.506  0.00  0.00    +0.086 A 
ATOM     14  N   UNL     1       3.238  -2.658   2.667  0.00  0.00    -0.334 N 
ATOM     15  H   UNL     1       3.933  -2.529   2.003  0.00  0.00    +0.168 HD
ATOM     16  C   UNL     1       3.411  -3.121   3.944  0.00  0.00    +0.129 A 
ATOM     17  C   UNL     1       2.192  -3.143   4.518  0.00  0.00    +0.067 A 
ATOM     18  N   UNL     1       1.301  -2.701   3.618  0.00  0.00    -0.345 N 
ATOM     19 CL   UNL     1       4.911  -3.591   4.681  0.00  0.00    -0.062 Cl
ATOM     20  H   UNL     1       0.347  -2.611   3.770  0.00  0.00    +0.167 HD
BRANCH  13  21
ATOM     21  C   UNL     1       1.270  -1.889   1.251  0.00  0.00    +0.072 C 
BRANCH  21  22
ATOM     22  C   UNL     1       1.252  -0.359   1.288  0.00  0.00    +0.007 C 
BRANCH  22  24
ATOM     23  C   UNL     1       0.575   1.703   0.050  0.00  0.00    +0.004 C 
ATOM     24  C   UNL     1       0.593   0.174   0.013  0.00  0.00    -0.003 C 
ENDBRANCH  22  24
ENDBRANCH  21  22
ENDBRANCH  13  21
ENDBRANCH  12  17
ENDBRANCH   1  12
BRANCH  10  25
ATOM     25  C   UNL     1       2.325  -7.273   9.076  0.00  0.00    -0.033 C 
BRANCH  25  26
ATOM     26  N   UNL     1       2.756  -8.664   9.264  0.00  0.00    +0.378 N 
ATOM     27  C   UNL     1       4.150  -8.809   8.823  0.00  0.00    -0.096 C 
ATOM     28  C   UNL     1       2.653  -9.021  10.685  0.00  0.00    -0.096 C 
ATOM     29  H   UNL     1       2.166  -9.276   8.720  0.00  0.00    -0.082 HD
ENDBRANCH  25  26
ENDBRANCH  10  25
TORSDOF 7
