REMARK  Name = ZINC39919345
REMARK  5 active torsions:
REMARK  status: ('A' for Active; 'I' for Inactive)
REMARK    1  A    between atoms: C_1  and  S_2
REMARK    2  A    between atoms: S_2  and  C_3
REMARK    3  A    between atoms: C_6  and  C_9
REMARK    4  A    between atoms: C_24  and  N_28
REMARK    5  A    between atoms: C_25  and  C_26
REMARK                            x       y       z     vdW  Elec       q    Type
REMARK                         _______ _______ _______ _____ _____    ______ ____
ROOT
ATOM      1  C   UNL     1       2.998  -1.452   5.038  0.00  0.00    +0.084 C 
ATOM      2  C   UNL     1       2.096  -2.297   5.943  0.00  0.00    +0.154 C 
ATOM      3  C   UNL     1       2.079  -3.681   5.316  0.00  0.00    +0.129 C 
ATOM      4  C   UNL     1       0.857  -4.204   4.923  0.00  0.00    +0.035 A 
ATOM      5  C   UNL     1       0.759  -5.489   4.351  0.00  0.00    +0.013 A 
ATOM      6  C   UNL     1      -0.459  -5.971   3.984  0.00  0.00    +0.001 A 
ATOM      7  C   UNL     1      -1.617  -5.220   4.159  0.00  0.00    +0.002 A 
ATOM      8  C   UNL     1      -1.587  -3.971   4.702  0.00  0.00    +0.024 A 
ATOM      9  C   UNL     1      -0.364  -3.409   5.104  0.00  0.00    +0.044 A 
ATOM     10  N   UNL     1      -0.334  -2.178   5.630  0.00  0.00    -0.284 N 
ATOM     11  C   UNL     1       0.774  -1.572   6.060  0.00  0.00    +0.229 C 
ATOM     12  O   UNL     1       0.733  -0.451   6.533  0.00  0.00    -0.275 OA
ATOM     13  O   UNL     1       3.239  -4.324   5.160  0.00  0.00    -0.444 OA
ATOM     14  C   UNL     1       4.292  -3.581   4.745  0.00  0.00    +0.198 C 
ATOM     15  C   UNL     1       4.232  -2.234   4.679  0.00  0.00    +0.095 C 
ATOM     16  H   UNL     1      -1.171  -1.696   5.711  0.00  0.00    +0.155 HD
ENDROOT
BRANCH   1  20
ATOM     17  C   UNL     1       0.877  -0.427   1.472  0.00  0.00    +0.008 A 
ATOM     18  C   UNL     1       1.349   0.574   2.313  0.00  0.00    +0.015 A 
ATOM     19  C   UNL     1       2.035   0.239   3.464  0.00  0.00    +0.005 A 
ATOM     20  C   UNL     1       2.250  -1.090   3.781  0.00  0.00    -0.038 A 
ATOM     21  C   UNL     1       1.782  -2.088   2.946  0.00  0.00    +0.005 A 
ATOM     22  C   UNL     1       1.090  -1.761   1.796  0.00  0.00    +0.015 A 
BRANCH  17  24
ATOM     23  C   UNL     1      -0.022   1.810   0.012  0.00  0.00    +0.090 C 
ATOM     24  S   UNL     1       0.002  -0.004   0.002  0.00  0.00    -0.129 S 
ENDBRANCH  17  24
ENDBRANCH   1  20
BRANCH  14  25
ATOM     25  N   UNL     1       5.454  -4.215   4.381  0.00  0.00    -0.328 N 
ATOM     26  H   UNL     1       5.512  -5.183   4.424  0.00  0.00    +0.145 HD
ATOM     27  H   UNL     1       6.217  -3.696   4.082  0.00  0.00    +0.145 HD
ENDBRANCH  14  25
BRANCH  15  28
ATOM     28  C   UNL     1       5.394  -1.519   4.247  0.00  0.00    +0.100 C 
ATOM     29  N   UNL     1       6.317  -0.951   3.904  0.00  0.00    -0.191 NA
ENDBRANCH  15  28
TORSDOF 4
