REMARK  Name = ZINC03471739
REMARK  6 active torsions:
REMARK  status: ('A' for Active; 'I' for Inactive)
REMARK    1  A    between atoms: C_1  and  C_2
REMARK    2  A    between atoms: C_4  and  N_10
REMARK    3  A    between atoms: C_6  and  C_9
REMARK    4  A    between atoms: C_7  and  O_8
REMARK    5  A    between atoms: N_10  and  S_11
REMARK    6  A    between atoms: S_11  and  C_14
REMARK                            x       y       z     vdW  Elec       q    Type
REMARK                         _______ _______ _______ _____ _____    ______ ____
ROOT
ATOM      1  N   UNL     1       1.111  -2.870  -1.545  0.00  0.00    -0.216 N 
ATOM      2  H   UNL     1       0.239  -2.453  -1.621  0.00  0.00    +0.174 HD
ENDROOT
BRANCH   1   6
ATOM      3  C   UNL     1       3.850  -4.143  -5.424  0.00  0.00    +0.047 C 
ATOM      4  C   UNL     1       3.467  -3.154  -4.354  0.00  0.00    -0.007 A 
ATOM      5  C   UNL     1       2.472  -3.466  -3.449  0.00  0.00    +0.031 A 
ATOM      6  C   UNL     1       2.120  -2.554  -2.463  0.00  0.00    +0.049 A 
ATOM      7  C   UNL     1       2.764  -1.326  -2.391  0.00  0.00    +0.031 A 
ATOM      8  C   UNL     1       3.763  -1.018  -3.294  0.00  0.00    -0.007 A 
ATOM      9  C   UNL     1       4.114  -1.929  -4.279  0.00  0.00    +0.123 A 
ATOM     10  C   UNL     1       4.467   0.312  -3.213  0.00  0.00    +0.047 C 
BRANCH   9  11
ATOM     11  O   UNL     1       5.094  -1.622  -5.170  0.00  0.00    -0.506 OA
ATOM     12  H   UNL     1       4.774  -1.181  -5.970  0.00  0.00    +0.292 HD
ENDBRANCH   9  11
ENDBRANCH   1   6
BRANCH   1  13
ATOM     13  S   UNL     1       1.408  -3.954  -0.329  0.00  0.00    +0.072 S 
ATOM     14  O   UNL     1       1.972  -5.106  -0.942  0.00  0.00    -0.150 OA
ATOM     15  O   UNL     1       0.228  -4.012   0.460  0.00  0.00    -0.150 OA
BRANCH  13  16
ATOM     16  C   UNL     1       2.665  -3.261   0.693  0.00  0.00    +0.109 A 
ATOM     17  C   UNL     1       2.326  -2.375   1.699  0.00  0.00    +0.030 A 
ATOM     18  C   UNL     1       3.312  -1.831   2.501  0.00  0.00    +0.017 A 
ATOM     19  C   UNL     1       4.637  -2.172   2.296  0.00  0.00    +0.018 A 
ATOM     20  C   UNL     1       4.975  -3.058   1.289  0.00  0.00    +0.017 A 
ATOM     21  C   UNL     1       3.989  -3.602   0.487  0.00  0.00    +0.030 A 
ATOM     22 BR   UNL     1       5.985  -1.428   3.394  0.00  0.00    -0.050 Br
ENDBRANCH  13  16
ENDBRANCH   1  13
TORSDOF 4
