REMARK  Name = ZINC40917129
REMARK  9 active torsions:
REMARK  status: ('A' for Active; 'I' for Inactive)
REMARK    1  A    between atoms: C_1  and  C_2
REMARK    2  A    between atoms: C_7  and  C_8
REMARK    3  A    between atoms: C_8  and  O_9
REMARK    4  A    between atoms: O_9  and  C_10
REMARK    5  A    between atoms: C_11  and  O_34
REMARK    6  A    between atoms: C_13  and  C_17
REMARK    7  A    between atoms: C_22  and  C_26
REMARK    8  A    between atoms: C_22  and  C_27
REMARK    9  A    between atoms: O_34  and  C_35
REMARK                            x       y       z     vdW  Elec       q    Type
REMARK                         _______ _______ _______ _____ _____    ______ ____
ROOT
ATOM      1  C   UNL     1       0.053  -0.376   4.845  0.00  0.00    +0.176 A 
ATOM      2  C   UNL     1       1.260  -0.092   5.477  0.00  0.00    +0.163 A 
ATOM      3  C   UNL     1       1.260   0.431   6.760  0.00  0.00    +0.055 A 
ATOM      4  C   UNL     1       0.063   0.668   7.410  0.00  0.00    -0.014 A 
ATOM      5  C   UNL     1      -1.136   0.386   6.783  0.00  0.00    +0.025 A 
ATOM      6  C   UNL     1      -1.143  -0.131   5.500  0.00  0.00    +0.063 A 
ATOM      7 BR   UNL     1      -2.786  -0.508   4.642  0.00  0.00    -0.046 Br
ENDROOT
BRANCH   4   8
ATOM      8  C   UNL     1       0.065   1.237   8.806  0.00  0.00    +0.177 C 
ATOM      9  C   UNL     1      -0.669   2.560   8.811  0.00  0.00    +0.041 C 
ATOM     10  C   UNL     1      -1.904   2.694   9.341  0.00  0.00    +0.020 C 
ATOM     11  C   UNL     1      -2.619   4.025   9.314  0.00  0.00    +0.058 C 
ATOM     12  C   UNL     1      -1.596   5.160   9.392  0.00  0.00    -0.023 C 
ATOM     13  C   UNL     1      -0.636   5.026   8.205  0.00  0.00    +0.086 C 
ATOM     14  C   UNL     1      -0.007   3.660   8.237  0.00  0.00    +0.164 C 
ATOM     15  O   UNL     1       1.098   3.504   7.756  0.00  0.00    -0.292 OA
ATOM     16  C   UNL     1      -2.315   6.508   9.323  0.00  0.00    +0.011 C 
ATOM     17  C   UNL     1      -0.812   5.059  10.702  0.00  0.00    +0.011 C 
ATOM     18  N   UNL     1      -2.561   1.639   9.928  0.00  0.00    -0.286 N 
ATOM     19  C   UNL     1      -1.829   0.503  10.227  0.00  0.00    +0.240 A 
ATOM     20  N   UNL     1      -0.591   0.303   9.709  0.00  0.00    -0.201 N 
ATOM     21  N   UNL     1      -0.166  -0.919  10.226  0.00  0.00    -0.042 NA
ATOM     22  N   UNL     1      -1.126  -1.355  10.976  0.00  0.00    -0.021 NA
ATOM     23  N   UNL     1      -2.105  -0.524  10.979  0.00  0.00    -0.092 NA
ATOM     24  H   UNL     1      -3.509   1.690  10.128  0.00  0.00    +0.155 HD
ENDBRANCH   4   8
BRANCH   2  25
ATOM     25  O   UNL     1       2.436  -0.326   4.837  0.00  0.00    -0.491 OA
ATOM     26  C   UNL     1       3.636  -0.010   5.547  0.00  0.00    +0.277 C 
ENDBRANCH   2  25
BRANCH   1  27
ATOM     27  O   UNL     1       0.048  -0.889   3.585  0.00  0.00    -0.483 OA
BRANCH  27  28
ATOM     28  C   UNL     1       0.025   0.045   2.504  0.00  0.00    +0.265 C 
BRANCH  28  35
ATOM     29  C   UNL     1      -0.018   1.503   0.010  0.00  0.00    +0.044 C 
ATOM     30  C   UNL     1       0.002  -0.004   0.002  0.00  0.00    -0.044 A 
ATOM     31  C   UNL     1       0.006  -0.689  -1.199  0.00  0.00    +0.004 A 
ATOM     32  C   UNL     1       0.025  -2.071  -1.207  0.00  0.00    +0.000 A 
ATOM     33  C   UNL     1       0.040  -2.768  -0.013  0.00  0.00    +0.000 A 
ATOM     34  C   UNL     1       0.037  -2.084   1.188  0.00  0.00    +0.007 A 
ATOM     35  C   UNL     1       0.023  -0.702   1.195  0.00  0.00    -0.007 A 
ENDBRANCH  28  35
ENDBRANCH  27  28
ENDBRANCH   1  27
TORSDOF 5
