REMARK  Name = ZINC35943973
REMARK  8 active torsions:
REMARK  status: ('A' for Active; 'I' for Inactive)
REMARK    1  A    between atoms: C_1  and  C_2
REMARK    2  A    between atoms: C_2  and  C_8
REMARK    3  A    between atoms: N_3  and  N_4
REMARK    4  A    between atoms: C_14  and  C_35
REMARK    5  A    between atoms: C_24  and  C_34
REMARK    6  A    between atoms: C_27  and  O_30
REMARK    7  A    between atoms: O_30  and  C_31
REMARK    8  A    between atoms: C_31  and  C_33
REMARK                            x       y       z     vdW  Elec       q    Type
REMARK                         _______ _______ _______ _____ _____    ______ ____
ROOT
ATOM      1  C   UNL     1       0.243  -1.006  -1.286  0.00  0.00    +0.041 C 
ATOM      2  C   UNL     1       1.569  -0.815  -2.049  0.00  0.00    +0.010 C 
ATOM      3  C   UNL     1       2.197  -2.219  -2.193  0.00  0.00    +0.005 C 
ATOM      4  C   UNL     1       0.978  -3.184  -2.093  0.00  0.00    -0.001 C 
ATOM      5  C   UNL     1       0.135  -2.509  -0.998  0.00  0.00    -0.021 C 
ATOM      6  C   UNL     1      -1.296  -2.997  -0.972  0.00  0.00    +0.008 C 
ATOM      7  C   UNL     1      -1.944  -2.847  -2.346  0.00  0.00    +0.005 C 
ATOM      8  C   UNL     1      -1.151  -3.683  -3.361  0.00  0.00    +0.003 C 
ATOM      9  C   UNL     1       0.281  -3.144  -3.458  0.00  0.00    +0.000 C 
ATOM     10  C   UNL     1       1.085  -4.033  -4.418  0.00  0.00    +0.031 C 
ATOM     11  C   UNL     1       0.361  -4.167  -5.723  0.00  0.00    -0.027 C 
ATOM     12  C   UNL     1      -0.911  -3.970  -5.859  0.00  0.00    -0.064 C 
ATOM     13  C   UNL     1      -1.843  -3.566  -4.715  0.00  0.00    -0.008 C 
ATOM     14  C   UNL     1      -2.374  -2.152  -4.939  0.00  0.00    +0.015 C 
ATOM     15  C   UNL     1      -2.425  -1.843  -6.434  0.00  0.00    +0.046 C 
ATOM     16  C   UNL     1      -2.772  -3.091  -7.243  0.00  0.00    +0.180 C 
ATOM     17  C   UNL     1      -1.551  -4.103  -7.232  0.00  0.00    +0.075 C 
ATOM     18  C   UNL     1      -3.040  -4.519  -4.726  0.00  0.00    +0.016 C 
ATOM     19  C   UNL     1       0.767  -2.800   0.365  0.00  0.00    +0.012 C 
ENDROOT
BRANCH   1  21
ATOM     20  C   UNL     1      -0.941  -0.217   0.903  0.00  0.00    +0.062 C 
ATOM     21  C   UNL     1       0.270  -0.230   0.006  0.00  0.00    +0.037 C 
ATOM     22  N   UNL     1       1.321   0.419   0.341  0.00  0.00    -0.188 NA
BRANCH  22  23
ATOM     23  N   UNL     1       1.383   1.059   1.586  0.00  0.00    -0.191 N 
ATOM     24  C   UNL     1       2.526   1.653   1.982  0.00  0.00    +0.317 C 
ATOM     25  O   UNL     1       2.608   2.128   3.098  0.00  0.00    -0.251 OA
ATOM     26  N   UNL     1       3.578   1.719   1.142  0.00  0.00    -0.312 N 
ATOM     27  H   UNL     1       0.603   1.075   2.162  0.00  0.00    +0.179 HD
ATOM     28  H   UNL     1       3.489   1.405   0.229  0.00  0.00    +0.147 HD
ATOM     29  H   UNL     1       4.423   2.081   1.451  0.00  0.00    +0.147 HD
ENDBRANCH  22  23
ENDBRANCH   1  21
BRANCH  16  30
ATOM     30  O   UNL     1      -3.915  -3.728  -6.669  0.00  0.00    -0.461 OA
BRANCH  30  31
ATOM     31  C   UNL     1      -4.717  -4.409  -7.503  0.00  0.00    +0.304 C 
ATOM     32  O   UNL     1      -4.458  -4.461  -8.682  0.00  0.00    -0.251 OA
ATOM     33  C   UNL     1      -5.942  -5.106  -6.969  0.00  0.00    +0.136 C 
ENDBRANCH  30  31
ENDBRANCH  16  30
TORSDOF 4
