REMARK  Name = ZINC66378143
REMARK  9 active torsions:
REMARK  status: ('A' for Active; 'I' for Inactive)
REMARK    1  A    between atoms: C_1  and  C_2
REMARK    2  A    between atoms: N_5  and  C_11
REMARK    3  A    between atoms: C_7  and  C_10
REMARK    4  A    between atoms: C_11  and  C_12
REMARK    5  A    between atoms: N_17  and  C_18
REMARK    6  A    between atoms: C_18  and  C_19
REMARK    7  A    between atoms: N_21  and  C_22
REMARK    8  A    between atoms: C_22  and  C_23
REMARK    9  A    between atoms: C_23  and  C_24
REMARK                            x       y       z     vdW  Elec       q    Type
REMARK                         _______ _______ _______ _____ _____    ______ ____
ROOT
ATOM      1  C   UNL     1       4.141   0.328  -2.553  0.00  0.00    -0.054 C 
ATOM      2  C   UNL     1       4.918  -0.123  -3.808  0.00  0.00    -0.016 C 
ATOM      3  C   UNL     1       6.394  -0.111  -3.329  0.00  0.00    -0.020 C 
ATOM      4  C   UNL     1       6.249  -0.581  -1.860  0.00  0.00    -0.078 C 
ATOM      5  N   UNL     1       4.994   0.047  -1.383  0.00  0.00    +0.388 N 
ATOM      6  H   UNL     1       4.514  -0.583  -0.757  0.00  0.00    -0.081 HD
ENDROOT
BRANCH   1   7
ATOM      7  C   UNL     1       2.832  -0.456  -2.443  0.00  0.00    +0.069 C 
BRANCH   7  11
ATOM      8  C   UNL     1       1.994   1.630   1.165  0.00  0.00    +0.039 C 
ATOM      9  C   UNL     1       0.901   1.544   0.098  0.00  0.00    +0.130 C 
ATOM     10  C   UNL     1       1.532   1.208  -1.255  0.00  0.00    +0.115 C 
ATOM     11  N   UNL     1       2.164  -0.118  -1.179  0.00  0.00    -0.299 NA
ATOM     12  C   UNL     1       1.177  -1.145  -0.813  0.00  0.00    +0.115 C 
ATOM     13  C   UNL     1       0.550  -0.784   0.536  0.00  0.00    +0.130 C 
ATOM     14  O   UNL     1      -0.033   0.520   0.453  0.00  0.00    -0.371 OA
ATOM     15  C   UNL     1      -0.534  -1.806   0.885  0.00  0.00    +0.039 C 
ENDBRANCH   7  11
ENDBRANCH   1   7
BRANCH   5  16
ATOM     16  C   UNL     1       5.299   1.301  -0.682  0.00  0.00    +0.019 C 
BRANCH  16  17
ATOM     17  C   UNL     1       6.067   0.997   0.579  0.00  0.00    +0.196 C 
ATOM     18  O   UNL     1       6.333  -0.151   0.865  0.00  0.00    -0.278 OA
ATOM     19  N   UNL     1       6.457   2.001   1.389  0.00  0.00    -0.317 N 
ATOM     20  H   UNL     1       6.245   2.919   1.159  0.00  0.00    +0.149 HD
BRANCH  19  21
ATOM     21  C   UNL     1       7.203   1.706   2.614  0.00  0.00    +0.109 C 
BRANCH  21  22
ATOM     22  C   UNL     1       7.522   3.012   3.345  0.00  0.00    +0.054 C 
BRANCH  22  23
ATOM     23  C   UNL     1       8.289   2.708   4.606  0.00  0.00    -0.046 A 
ATOM     24  C   UNL     1       7.611   2.476   5.788  0.00  0.00    +0.005 A 
ATOM     25  C   UNL     1       8.314   2.197   6.945  0.00  0.00    +0.020 A 
ATOM     26  C   UNL     1       9.697   2.151   6.919  0.00  0.00    +0.041 A 
ATOM     27  C   UNL     1      10.375   2.383   5.736  0.00  0.00    +0.020 A 
ATOM     28  C   UNL     1       9.670   2.656   4.579  0.00  0.00    +0.005 A 
ATOM     29 CL   UNL     1      10.581   1.801   8.372  0.00  0.00    -0.084 Cl
ENDBRANCH  22  23
ENDBRANCH  21  22
ENDBRANCH  19  21
ENDBRANCH  16  17
ENDBRANCH   5  16
TORSDOF 7
