REMARK  Name = ZINC25260419
REMARK  10 active torsions:
REMARK  status: ('A' for Active; 'I' for Inactive)
REMARK    1  A    between atoms: C_1  and  O_2
REMARK    2  A    between atoms: O_2  and  C_3
REMARK    3  A    between atoms: C_8  and  C_9
REMARK    4  A    between atoms: N_11  and  N_12
REMARK    5  A    between atoms: C_13  and  C_15
REMARK    6  A    between atoms: C_15  and  C_16
REMARK    7  A    between atoms: C_16  and  C_17
REMARK    8  A    between atoms: C_17  and  N_18
REMARK    9  A    between atoms: N_18  and  S_19
REMARK   10  A    between atoms: S_19  and  C_22
REMARK                            x       y       z     vdW  Elec       q    Type
REMARK                         _______ _______ _______ _____ _____    ______ ____
ROOT
ATOM      1  C   UNL     1       3.717   1.560   0.348  0.00  0.00    +0.098 C 
ENDROOT
BRANCH   1   3
ATOM      2  N   UNL     1       6.115   1.110   0.754  0.00  0.00    -0.234 N 
ATOM      3  C   UNL     1       4.854   0.636   0.700  0.00  0.00    +0.229 C 
ATOM      4  O   UNL     1       4.635  -0.533   0.935  0.00  0.00    -0.274 OA
ATOM      5  H   UNL     1       6.314   2.171   0.542  0.00  0.00    +0.173 HD
BRANCH   2   8
ATOM      6  C   UNL     1       8.433   0.724   1.136  0.00  0.00    +0.264 C 
ATOM      7  O   UNL     1       8.652   1.897   0.901  0.00  0.00    -0.269 OA
ATOM      8  N   UNL     1       7.172   0.251   1.082  0.00  0.00    -0.230 N 
ATOM      9  H   UNL     1       6.973  -0.810   1.294  0.00  0.00    +0.173 HD
BRANCH   6  15
ATOM     10  C   UNL     1      10.858   0.308   1.538  0.00  0.00    +0.132 A 
ATOM     11  C   UNL     1      11.898  -0.551   1.863  0.00  0.00    +0.048 A 
ATOM     12  C   UNL     1      11.640  -1.881   2.128  0.00  0.00    +0.023 A 
ATOM     13  C   UNL     1      10.343  -2.369   2.072  0.00  0.00    +0.042 A 
ATOM     14  C   UNL     1       9.297  -1.527   1.757  0.00  0.00    +0.036 A 
ATOM     15  C   UNL     1       9.546  -0.180   1.480  0.00  0.00    +0.081 A 
ATOM     16 CL   UNL     1      10.034  -4.043   2.408  0.00  0.00    -0.084 Cl
BRANCH  10  18
ATOM     17  C   UNL     1      12.473   2.040   1.354  0.00  0.00    +0.277 C 
ATOM     18  O   UNL     1      11.111   1.615   1.277  0.00  0.00    -0.494 OA
ENDBRANCH  10  18
ENDBRANCH   6  15
ENDBRANCH   2   8
ENDBRANCH   1   3
BRANCH   1  19
ATOM     19  C   UNL     1       2.402   0.777   0.357  0.00  0.00    +0.026 C 
BRANCH  19  20
ATOM     20  C   UNL     1       1.248   1.716  -0.001  0.00  0.00    +0.106 C 
BRANCH  20  21
ATOM     21  N   UNL     1      -0.011   0.966   0.007  0.00  0.00    -0.190 NA
ATOM     22  H   UNL     1      -0.005  -0.121  -0.159  0.00  0.00    +0.148 HD
BRANCH  21  23
ATOM     23  S   UNL     1      -1.456   1.774   0.019  0.00  0.00    +0.059 S 
ATOM     24  O   UNL     1      -2.475   0.784  -0.009  0.00  0.00    -0.153 OA
ATOM     25  O   UNL     1      -1.369   2.749   1.049  0.00  0.00    -0.153 OA
BRANCH  23  26
ATOM     26  C   UNL     1      -1.571   2.658  -1.502  0.00  0.00    +0.109 A 
ATOM     27  C   UNL     1      -1.088   3.950  -1.585  0.00  0.00    +0.032 A 
ATOM     28  C   UNL     1      -1.170   4.649  -2.777  0.00  0.00    +0.051 A 
ATOM     29  C   UNL     1      -1.748   4.051  -3.884  0.00  0.00    +0.162 A 
ATOM     30  C   UNL     1      -2.237   2.755  -3.799  0.00  0.00    +0.164 A 
ATOM     31  C   UNL     1      -2.149   2.057  -2.606  0.00  0.00    +0.078 A 
ATOM     32  O   UNL     1      -2.803   2.174  -4.896  0.00  0.00    -0.488 OA
ATOM     33  C   UNL     1      -4.049   2.729  -5.323  0.00  0.00    +0.232 C 
ATOM     34  C   UNL     1      -3.824   3.938  -6.218  0.00  0.00    +0.082 C 
ATOM     35  C   UNL     1      -3.159   5.088  -5.479  0.00  0.00    +0.232 C 
ATOM     36  O   UNL     1      -1.839   4.729  -5.064  0.00  0.00    -0.488 OA
ENDBRANCH  23  26
ENDBRANCH  21  23
ENDBRANCH  20  21
ENDBRANCH  19  20
ENDBRANCH   1  19
TORSDOF 9
