REMARK  Name = ZINC58356363
REMARK  5 active torsions:
REMARK  status: ('A' for Active; 'I' for Inactive)
REMARK    1  A    between atoms: C_1  and  C_2
REMARK    2  A    between atoms: C_2  and  C_4
REMARK    3  A    between atoms: C_2  and  N_11
REMARK    4  A    between atoms: N_11  and  C_12
REMARK    5  A    between atoms: C_12  and  C_13
REMARK                            x       y       z     vdW  Elec       q    Type
REMARK                         _______ _______ _______ _____ _____    ______ ____
ROOT
ATOM      1  N   UNL     1       0.690  -0.478  -1.207  0.00  0.00    +0.384 N 
ATOM      2  H   UNL     1       0.632  -1.484  -1.254  0.00  0.00    -0.085 HD
ATOM      3  H   UNL     1       0.251  -0.077  -2.022  0.00  0.00    -0.085 HD
ENDROOT
BRANCH   1   5
ATOM      4  C   UNL     1      -0.019   1.526   0.010  0.00  0.00    -0.009 C 
ATOM      5  C   UNL     1       0.002  -0.004   0.002  0.00  0.00    -0.044 C 
BRANCH   5   6
ATOM      6  C   UNL     1      -1.412  -0.526   0.013  0.00  0.00    -0.061 A 
ATOM      7  C   UNL     1      -2.141  -0.569  -1.161  0.00  0.00    +0.002 A 
ATOM      8  C   UNL     1      -3.438  -1.047  -1.152  0.00  0.00    +0.001 A 
ATOM      9  C   UNL     1      -4.006  -1.483   0.031  0.00  0.00    +0.015 A 
ATOM     10  C   UNL     1      -3.276  -1.440   1.205  0.00  0.00    +0.018 A 
ATOM     11  C   UNL     1      -1.977  -0.966   1.194  0.00  0.00    +0.017 A 
ATOM     12 BR   UNL     1      -4.053  -2.035   2.824  0.00  0.00    -0.050 Br
ENDBRANCH   5   6
ENDBRANCH   1   5
BRANCH   1  13
ATOM     13  C   UNL     1       2.100  -0.070  -1.159  0.00  0.00    -0.075 C 
BRANCH  13  14
ATOM     14  C   UNL     1       2.816  -0.564  -2.418  0.00  0.00    +0.010 C 
ATOM     15  C   UNL     1       2.833  -2.096  -2.427  0.00  0.00    +0.106 C 
ATOM     16  N   UNL     1       3.465  -2.551  -3.681  0.00  0.00    -0.329 N 
ATOM     17  C   UNL     1       4.616  -1.865  -4.073  0.00  0.00    +0.117 A 
ATOM     18  C   UNL     1       5.526  -2.182  -5.020  0.00  0.00    +0.064 A 
ATOM     19  C   UNL     1       6.498  -1.173  -5.029  0.00  0.00    +0.136 A 
ATOM     20  N   UNL     1       6.180  -0.284  -4.119  0.00  0.00    -0.178 NA
ATOM     21  N   UNL     1       4.998  -0.693  -3.502  0.00  0.00    -0.251 N 
ATOM     22  C   UNL     1       4.253  -0.029  -2.429  0.00  0.00    +0.148 C 
ATOM     23  H   UNL     1       3.101  -3.284  -4.202  0.00  0.00    +0.147 HD
ENDBRANCH  13  14
ENDBRANCH   1  13
TORSDOF 4
