REMARK  Name = ZINC11933515
REMARK  10 active torsions:
REMARK  status: ('A' for Active; 'I' for Inactive)
REMARK    1  A    between atoms: C_1  and  C_2
REMARK    2  A    between atoms: C_4  and  C_11
REMARK    3  A    between atoms: C_6  and  C_10
REMARK    4  A    between atoms: C_7  and  O_8
REMARK    5  A    between atoms: O_8  and  C_9
REMARK    6  A    between atoms: C_11  and  C_13
REMARK    7  A    between atoms: C_19  and  C_20
REMARK    8  A    between atoms: C_19  and  N_54
REMARK    9  A    between atoms: C_22  and  C_25
REMARK   10  A    between atoms: C_25  and  C_27
REMARK                            x       y       z     vdW  Elec       q    Type
REMARK                         _______ _______ _______ _____ _____    ______ ____
ROOT
ATOM      1  C   UNL     1      -0.013   1.086   0.008  0.00  0.00    +0.044 C 
ATOM      2  C   UNL     1       1.423   1.617  -0.003  0.00  0.00    +0.008 C 
ATOM      3  C   UNL     1       2.116   1.167  -1.292  0.00  0.00    -0.018 C 
ATOM      4  C   UNL     1       1.318   1.672  -2.497  0.00  0.00    -0.078 C 
ATOM      5  C   UNL     1      -0.749   1.594  -1.234  0.00  0.00    -0.067 C 
ATOM      6  N   UNL     1      -0.046   1.106  -2.440  0.00  0.00    +0.383 N 
ATOM      7  H   UNL     1       0.019   0.083  -2.397  0.00  0.00    -0.081 HD
ENDROOT
BRANCH   1   8
ATOM      8  C   UNL     1      -0.720   1.573   1.247  0.00  0.00    +0.164 C 
ATOM      9  O   UNL     1      -1.398   2.577   1.203  0.00  0.00    -0.292 OA
BRANCH   8  13
ATOM     10  C   UNL     1      -1.822   1.067   6.075  0.00  0.00    +0.047 C 
ATOM     11  C   UNL     1      -1.117   0.584   4.834  0.00  0.00    -0.008 A 
ATOM     12  C   UNL     1      -1.243   1.281   3.660  0.00  0.00    +0.018 A 
ATOM     13  C   UNL     1      -0.588   0.831   2.507  0.00  0.00    +0.018 A 
ATOM     14  C   UNL     1       0.190  -0.333   2.559  0.00  0.00    +0.018 A 
ATOM     15  C   UNL     1       0.314  -1.020   3.740  0.00  0.00    -0.008 A 
ATOM     16  C   UNL     1      -0.340  -0.568   4.881  0.00  0.00    +0.126 A 
ATOM     17  C   UNL     1       1.155  -2.268   3.799  0.00  0.00    +0.047 C 
BRANCH  16  18
ATOM     18  O   UNL     1      -0.217  -1.254   6.046  0.00  0.00    -0.495 OA
ATOM     19  C   UNL     1      -1.178  -2.282   6.297  0.00  0.00    +0.277 C 
ENDBRANCH  16  18
ENDBRANCH   8  13
ENDBRANCH   1   8
BRANCH   6  20
ATOM     20  C   UNL     1      -0.801   1.488  -3.652  0.00  0.00    -0.042 C 
BRANCH  20  21
ATOM     21  C   UNL     1      -1.003   2.980  -3.703  0.00  0.00    -0.056 A 
ATOM     22  C   UNL     1      -0.083   3.783  -4.322  0.00  0.00    +0.020 A 
ATOM     23  C   UNL     1      -0.339   5.151  -4.328  0.00  0.00    +0.054 A 
ATOM     24  S   UNL     1      -1.887   5.237  -3.446  0.00  0.00    -0.094 S 
ATOM     25  C   UNL     1      -2.105   3.545  -3.138  0.00  0.00    +0.047 A 
BRANCH  23  26
ATOM     26  C   UNL     1       0.427   6.198  -4.887  0.00  0.00    +0.167 C 
ATOM     27  O   UNL     1       1.469   5.949  -5.459  0.00  0.00    -0.292 OA
ATOM     28  C   UNL     1      -0.048   7.623  -4.772  0.00  0.00    +0.092 C 
ENDBRANCH  23  26
ENDBRANCH  20  21
ENDBRANCH   6  20
TORSDOF 6
