REMARK  Name = ZINC06330553
REMARK  5 active torsions:
REMARK  status: ('A' for Active; 'I' for Inactive)
REMARK    1  A    between atoms: C_1  and  C_2
REMARK    2  A    between atoms: C_2  and  C_4
REMARK    3  A    between atoms: C_2  and  N_12
REMARK    4  A    between atoms: C_13  and  C_15
REMARK    5  A    between atoms: C_18  and  N_22
REMARK                            x       y       z     vdW  Elec       q    Type
REMARK                         _______ _______ _______ _____ _____    ______ ____
ROOT
ATOM      1  N   UNL     1      -2.064   1.057   1.567  0.00  0.00    -0.305 N 
ATOM      2  C   UNL     1      -2.209  -0.209   2.006  0.00  0.00    +0.246 C 
ATOM      3  O   UNL     1      -1.232  -0.918   2.153  0.00  0.00    -0.270 OA
ATOM      4  H   UNL     1      -2.844   1.622   1.450  0.00  0.00    +0.150 HD
ENDROOT
BRANCH   2   5
ATOM      5  C   UNL     1      -3.556  -0.737   2.309  0.00  0.00    +0.055 A 
ATOM      6  C   UNL     1      -4.680   0.074   2.142  0.00  0.00    +0.017 A 
ATOM      7  C   UNL     1      -5.934  -0.424   2.426  0.00  0.00    +0.033 A 
ATOM      8  C   UNL     1      -6.081  -1.725   2.876  0.00  0.00    +0.128 A 
ATOM      9  C   UNL     1      -4.972  -2.535   3.044  0.00  0.00    +0.053 A 
ATOM     10  C   UNL     1      -3.710  -2.050   2.759  0.00  0.00    +0.055 A 
ATOM     11 CL   UNL     1      -2.320  -3.070   2.963  0.00  0.00    -0.083 Cl
BRANCH   8  12
ATOM     12  N   UNL     1      -7.431  -2.253   3.178  0.00  0.00    +0.056 N 
ATOM     13  O   UNL     1      -8.409  -1.542   3.031  0.00  0.00    -0.126 OA
ATOM     14  O   UNL     1      -7.563  -3.397   3.574  0.00  0.00    -0.126 OA
ENDBRANCH   8  12
ENDBRANCH   2   5
BRANCH   1  16
ATOM     15  C   UNL     1      -0.364   1.244  -0.181  0.00  0.00    +0.033 C 
ATOM     16  C   UNL     1      -0.729   1.579   1.267  0.00  0.00    +0.102 C 
BRANCH  16  17
ATOM     17  C   UNL     1      -0.721   3.075   1.453  0.00  0.00    -0.009 A 
ATOM     18  C   UNL     1      -1.889   3.797   1.294  0.00  0.00    +0.008 A 
ATOM     19  C   UNL     1      -1.883   5.168   1.465  0.00  0.00    +0.020 A 
ATOM     20  C   UNL     1      -0.707   5.819   1.795  0.00  0.00    +0.042 A 
ATOM     21  C   UNL     1       0.462   5.097   1.954  0.00  0.00    +0.040 A 
ATOM     22  C   UNL     1       0.454   3.724   1.789  0.00  0.00    +0.047 A 
ATOM     23 CL   UNL     1       1.919   2.816   1.996  0.00  0.00    -0.083 Cl
ATOM     24 CL   UNL     1      -0.699   7.542   2.009  0.00  0.00    -0.083 Cl
ENDBRANCH  16  17
ENDBRANCH   1  16
TORSDOF 4
