REMARK  Name = ZINC56063113
REMARK  3 active torsions:
REMARK  status: ('A' for Active; 'I' for Inactive)
REMARK    1  A    between atoms: C_3  and  S_6
REMARK    2  A    between atoms: S_6  and  N_9
REMARK    3  A    between atoms: C_13  and  C_15
REMARK                            x       y       z     vdW  Elec       q    Type
REMARK                         _______ _______ _______ _____ _____    ______ ____
ROOT
ATOM      1  N   UNL     1       4.477   2.089   1.552  0.00  0.00    -0.169 NA
ATOM      2  C   UNL     1       4.313   3.296   2.382  0.00  0.00    +0.110 C 
ATOM      3  C   UNL     1       4.313   2.777   3.842  0.00  0.00    +0.019 C 
ATOM      4  C   UNL     1       5.362   1.635   3.766  0.00  0.00    +0.027 C 
ATOM      5  C   UNL     1       5.127   1.046   2.359  0.00  0.00    +0.110 C 
ENDROOT
BRANCH   5   6
ATOM      6  C   UNL     1       6.447   0.667   1.739  0.00  0.00    -0.022 A 
ATOM      7  C   UNL     1       6.849  -0.655   1.699  0.00  0.00    +0.013 A 
ATOM      8  C   UNL     1       8.043  -0.962   1.134  0.00  0.00    +0.045 A 
ATOM      9  S   UNL     1       8.639   0.645   0.634  0.00  0.00    -0.105 S 
ATOM     10  C   UNL     1       7.255   1.616   1.207  0.00  0.00    +0.050 A 
ENDBRANCH   5   6
BRANCH   1  11
ATOM     11  S   UNL     1       4.001   1.932  -0.026  0.00  0.00    +0.068 S 
ATOM     12  O   UNL     1       4.799   0.900  -0.590  0.00  0.00    -0.152 OA
ATOM     13  O   UNL     1       3.957   3.244  -0.570  0.00  0.00    -0.152 OA
BRANCH  11  16
ATOM     14  C   UNL     1      -0.016   1.351   0.009  0.00  0.00    +0.010 A 
ATOM     15  C   UNL     1       1.183   2.038   0.002  0.00  0.00    +0.036 A 
ATOM     16  C   UNL     1       2.343   1.336  -0.013  0.00  0.00    +0.143 A 
ATOM     17  S   UNL     1       1.754  -0.349  -0.017  0.00  0.00    -0.077 S 
ATOM     18  C   UNL     1       0.002  -0.004   0.002  0.00  0.00    +0.047 A 
ENDBRANCH  11  16
ENDBRANCH   1  11
TORSDOF 3
