REMARK  Name = ZINC35908004
REMARK  8 active torsions:
REMARK  status: ('A' for Active; 'I' for Inactive)
REMARK    1  A    between atoms: C_1  and  C_2
REMARK    2  A    between atoms: C_2  and  C_3
REMARK    3  A    between atoms: C_2  and  C_4
REMARK    4  A    between atoms: C_4  and  N_5
REMARK    5  A    between atoms: C_6  and  C_8
REMARK    6  A    between atoms: C_13  and  C_32
REMARK    7  A    between atoms: N_21  and  C_24
REMARK    8  A    between atoms: C_24  and  C_25
REMARK                            x       y       z     vdW  Elec       q    Type
REMARK                         _______ _______ _______ _____ _____    ______ ____
ROOT
ATOM      1  C   UNL     1      -2.558  -4.183  -0.262  0.00  0.00    +0.098 C 
ATOM      2  C   UNL     1      -1.881  -4.571  -1.576  0.00  0.00    +0.051 C 
ATOM      3  C   UNL     1      -2.720  -4.090  -2.732  0.00  0.00    -0.025 A 
ATOM      4  C   UNL     1      -2.113  -3.839  -3.950  0.00  0.00    +0.017 A 
ATOM      5  C   UNL     1      -2.863  -3.392  -5.021  0.00  0.00    +0.055 A 
ATOM      6  C   UNL     1      -4.225  -3.196  -4.879  0.00  0.00    +0.014 A 
ATOM      7  C   UNL     1      -4.837  -3.449  -3.668  0.00  0.00    +0.024 A 
ATOM      8  C   UNL     1      -4.083  -3.900  -2.589  0.00  0.00    +0.033 A 
ATOM      9  N   UNL     1      -4.736  -4.159  -1.373  0.00  0.00    -0.329 N 
ATOM     10  C   UNL     1      -3.995  -4.713  -0.251  0.00  0.00    +0.069 C 
ATOM     11  C   UNL     1      -4.623  -4.408   1.099  0.00  0.00    -0.055 C 
ATOM     12  N   UNL     1      -6.083  -4.473   1.050  0.00  0.00    +0.385 N 
ATOM     13  C   UNL     1      -6.574  -3.459   0.105  0.00  0.00    -0.059 C 
ATOM     14  C   UNL     1      -6.174  -3.881  -1.307  0.00  0.00    +0.087 C 
ATOM     15  H   UNL     1      -6.370  -5.390   0.742  0.00  0.00    -0.081 HD
ENDROOT
BRANCH   1  17
ATOM     16  N   UNL     1      -1.416  -1.993  -0.116  0.00  0.00    -0.315 N 
ATOM     17  C   UNL     1      -2.575  -2.682  -0.130  0.00  0.00    +0.218 C 
ATOM     18  O   UNL     1      -3.631  -2.093  -0.036  0.00  0.00    -0.275 OA
ATOM     19  H   UNL     1      -0.572  -2.463  -0.190  0.00  0.00    +0.149 HD
BRANCH  16  20
ATOM     20  C   UNL     1      -1.433  -0.534   0.013  0.00  0.00    +0.107 C 
BRANCH  20  22
ATOM     21  C   UNL     1      -0.019   1.526   0.010  0.00  0.00    +0.009 C 
ATOM     22  C   UNL     1       0.002  -0.004   0.002  0.00  0.00    -0.000 C 
ATOM     23  C   UNL     1       0.742  -0.511   1.242  0.00  0.00    +0.009 C 
ENDBRANCH  20  22
ENDBRANCH  16  20
ENDBRANCH   1  17
BRANCH   5  24
ATOM     24  C   UNL     1      -2.197  -3.118  -6.344  0.00  0.00    +0.417 C 
ATOM     25  F   UNL     1      -2.208  -4.281  -7.122  0.00  0.00    -0.166 F 
ATOM     26  F   UNL     1      -2.889  -2.103  -7.013  0.00  0.00    -0.166 F 
ATOM     27  F   UNL     1      -0.875  -2.716  -6.126  0.00  0.00    -0.166 F 
ENDBRANCH   5  24
BRANCH  12  28
ATOM     28  C   UNL     1      -6.633  -4.207   2.386  0.00  0.00    -0.043 C 
BRANCH  28  29
ATOM     29  C   UNL     1      -8.128  -4.396   2.361  0.00  0.00    -0.064 A 
ATOM     30  C   UNL     1      -8.954  -3.330   2.056  0.00  0.00    +0.003 A 
ATOM     31  C   UNL     1     -10.325  -3.502   2.033  0.00  0.00    +0.020 A 
ATOM     32  C   UNL     1     -10.871  -4.742   2.315  0.00  0.00    +0.041 A 
ATOM     33  C   UNL     1     -10.044  -5.808   2.620  0.00  0.00    +0.020 A 
ATOM     34  C   UNL     1      -8.673  -5.636   2.638  0.00  0.00    +0.003 A 
ATOM     35 CL   UNL     1     -12.593  -4.959   2.287  0.00  0.00    -0.084 Cl
ENDBRANCH  28  29
ENDBRANCH  12  28
TORSDOF 6
