REMARK  Name = ZINC14461695
REMARK  8 active torsions:
REMARK  status: ('A' for Active; 'I' for Inactive)
REMARK    1  A    between atoms: C_1  and  C_2
REMARK    2  A    between atoms: C_2  and  N_3
REMARK    3  A    between atoms: N_3  and  C_4
REMARK    4  A    between atoms: N_3  and  C_6
REMARK    5  A    between atoms: C_4  and  C_5
REMARK    6  A    between atoms: C_9  and  C_12
REMARK    7  A    between atoms: C_25  and  C_28
REMARK    8  A    between atoms: N_30  and  C_31
REMARK                            x       y       z     vdW  Elec       q    Type
REMARK                         _______ _______ _______ _____ _____    ______ ____
ROOT
ATOM      1  C   UNL     1       0.368  -6.200  -1.452  0.00  0.00    +0.105 C 
ATOM      2  C   UNL     1      -0.987  -6.625  -0.970  0.00  0.00    +0.029 C 
ATOM      3  C   UNL     1      -1.016  -8.107  -0.540  0.00  0.00    +0.033 C 
ATOM      4  C   UNL     1      -2.452  -8.523  -0.776  0.00  0.00    -0.030 C 
ATOM      5  C   UNL     1      -3.058  -7.681  -1.572  0.00  0.00    -0.023 C 
ATOM      6  C   UNL     1      -2.106  -6.595  -2.008  0.00  0.00    +0.049 C 
ATOM      7  C   UNL     1      -1.631  -6.923  -3.396  0.00  0.00    -0.019 A 
ATOM      8  C   UNL     1      -2.580  -7.220  -4.362  0.00  0.00    +0.006 A 
ATOM      9  C   UNL     1      -2.202  -7.539  -5.653  0.00  0.00    +0.001 A 
ATOM     10  C   UNL     1      -0.869  -7.570  -6.001  0.00  0.00    +0.015 A 
ATOM     11  C   UNL     1       0.102  -7.271  -5.043  0.00  0.00    +0.058 A 
ATOM     12  C   UNL     1      -0.289  -6.937  -3.733  0.00  0.00    +0.044 A 
ATOM     13  N   UNL     1       0.669  -6.589  -2.814  0.00  0.00    -0.336 N 
ATOM     14  H   UNL     1       1.598  -6.635  -3.089  0.00  0.00    +0.147 HD
ENDROOT
BRANCH   1  18
ATOM     15  C   UNL     1       0.633  -1.946  -1.172  0.00  0.00    +0.013 A 
ATOM     16  C   UNL     1       1.160  -2.739  -0.170  0.00  0.00    +0.022 A 
ATOM     17  C   UNL     1       1.074  -4.115  -0.260  0.00  0.00    +0.007 A 
ATOM     18  C   UNL     1       0.461  -4.699  -1.353  0.00  0.00    -0.027 A 
ATOM     19  C   UNL     1      -0.068  -3.906  -2.354  0.00  0.00    +0.007 A 
ATOM     20  C   UNL     1       0.015  -2.530  -2.262  0.00  0.00    +0.022 A 
BRANCH  15  21
ATOM     21  N   UNL     1       0.720  -0.553  -1.080  0.00  0.00    -0.394 NA
ATOM     22  H   UNL     1       0.283  -0.135  -1.888  0.00  0.00    +0.126 HD
BRANCH  21  24
ATOM     23  C   UNL     1       0.020   1.430   0.174  0.00  0.00    +0.022 C 
ATOM     24  C   UNL     1       0.034  -0.099   0.137  0.00  0.00    +0.081 C 
ENDBRANCH  21  24
BRANCH  21  25
ATOM     25  C   UNL     1       2.132  -0.154  -1.024  0.00  0.00    +0.081 C 
ATOM     26  C   UNL     1       2.817  -0.516  -2.344  0.00  0.00    +0.022 C 
ENDBRANCH  21  25
ENDBRANCH  15  21
ENDBRANCH   1  18
BRANCH  11  27
ATOM     27  C   UNL     1       1.531  -7.305  -5.402  0.00  0.00    +0.246 C 
ATOM     28  O   UNL     1       2.368  -6.938  -4.600  0.00  0.00    -0.270 OA
ATOM     29  N   UNL     1       1.910  -7.743  -6.619  0.00  0.00    -0.308 N 
ATOM     30  H   UNL     1       1.242  -8.036  -7.258  0.00  0.00    +0.149 HD
BRANCH  29  31
ATOM     31  C   UNL     1       3.330  -7.777  -6.976  0.00  0.00    +0.073 C 
ATOM     32  C   UNL     1       3.758  -6.405  -7.499  0.00  0.00    +0.022 C 
ATOM     33  C   UNL     1       5.241  -6.440  -7.872  0.00  0.00    +0.002 C 
ATOM     34  C   UNL     1       5.469  -7.494  -8.958  0.00  0.00    +0.000 C 
ATOM     35  C   UNL     1       5.042  -8.866  -8.434  0.00  0.00    +0.002 C 
ATOM     36  C   UNL     1       3.558  -8.831  -8.062  0.00  0.00    +0.022 C 
ENDBRANCH  29  31
ENDBRANCH  11  27
TORSDOF 6
