REMARK  Name = ZINC02619328
REMARK  8 active torsions:
REMARK  status: ('A' for Active; 'I' for Inactive)
REMARK    1  A    between atoms: C_1  and  C_2
REMARK    2  A    between atoms: C_2  and  O_3
REMARK    3  A    between atoms: O_3  and  C_4
REMARK    4  A    between atoms: C_9  and  N_10
REMARK    5  A    between atoms: C_14  and  S_16
REMARK    6  A    between atoms: S_16  and  C_17
REMARK    7  A    between atoms: C_17  and  C_19
REMARK    8  A    between atoms: C_17  and  C_20
REMARK                            x       y       z     vdW  Elec       q    Type
REMARK                         _______ _______ _______ _____ _____    ______ ____
ROOT
ATOM      1  N   UNL     1      -8.862  -0.887   1.181  0.00  0.00    -0.289 N 
ATOM      2  C   UNL     1      -7.588  -0.406   0.902  0.00  0.00    +0.187 A 
ATOM      3  N   UNL     1      -6.608  -0.976   0.229  0.00  0.00    -0.125 NA
ATOM      4  N   UNL     1      -5.415  -0.313   0.062  0.00  0.00    -0.133 NA
ATOM      5  C   UNL     1      -5.252   0.887   0.587  0.00  0.00    +0.161 A 
ATOM      6  S   UNL     1      -6.841   1.152   1.358  0.00  0.00    -0.024 S 
ATOM      7  H   UNL     1      -9.512  -0.314   1.618  0.00  0.00    +0.154 HD
ENDROOT
BRANCH   1  13
ATOM      8  C   UNL     1     -10.527  -2.628   0.950  0.00  0.00    +0.142 A 
ATOM      9  C   UNL     1     -10.863  -3.925   0.599  0.00  0.00    +0.047 A 
ATOM     10  C   UNL     1      -9.888  -4.793   0.143  0.00  0.00    +0.004 A 
ATOM     11  C   UNL     1      -8.576  -4.369   0.031  0.00  0.00    +0.002 A 
ATOM     12  C   UNL     1      -8.233  -3.075   0.374  0.00  0.00    +0.027 A 
ATOM     13  C   UNL     1      -9.207  -2.198   0.833  0.00  0.00    +0.075 A 
BRANCH   8  14
ATOM     14  O   UNL     1     -11.484  -1.775   1.404  0.00  0.00    -0.490 OA
BRANCH  14  16
ATOM     15  C   UNL     1     -13.745  -1.189   2.024  0.00  0.00    +0.048 C 
ATOM     16  C   UNL     1     -12.815  -2.285   1.499  0.00  0.00    +0.226 C 
ENDBRANCH  14  16
ENDBRANCH   8  14
ENDBRANCH   1  13
BRANCH   5  17
ATOM     17  S   UNL     1      -3.846   1.947   0.535  0.00  0.00    -0.084 S 
BRANCH  17  18
ATOM     18  C   UNL     1      -2.622   1.006  -0.417  0.00  0.00    +0.136 C 
ATOM     19  C   UNL     1      -3.122   0.823  -1.851  0.00  0.00    +0.029 C 
BRANCH  18  20
ATOM     20  C   UNL     1      -1.314   1.756  -0.433  0.00  0.00    +0.233 C 
ATOM     21  O   UNL     1      -1.293   2.944  -0.194  0.00  0.00    -0.274 OA
ATOM     22  N   UNL     1      -0.168   1.105  -0.715  0.00  0.00    -0.239 N 
ATOM     23  C   UNL     1       1.001   1.776  -0.735  0.00  0.00    +0.303 C 
ATOM     24  O   UNL     1       1.021   2.967  -0.495  0.00  0.00    -0.253 OA
ATOM     25  N   UNL     1       2.146   1.126  -1.022  0.00  0.00    -0.313 N 
ATOM     26  H   UNL     1      -0.184   0.154  -0.906  0.00  0.00    +0.159 HD
ATOM     27  H   UNL     1       2.130   0.176  -1.214  0.00  0.00    +0.146 HD
ATOM     28  H   UNL     1       2.987   1.609  -1.037  0.00  0.00    +0.146 HD
ENDBRANCH  18  20
ENDBRANCH  17  18
ENDBRANCH   5  17
TORSDOF 6
