REMARK  Name = ZINC02703372
REMARK  3 active torsions:
REMARK  status: ('A' for Active; 'I' for Inactive)
REMARK    1  A    between atoms: C_3  and  C_6
REMARK    2  A    between atoms: C_14  and  C_15
REMARK    3  A    between atoms: C_18  and  C_20
REMARK                            x       y       z     vdW  Elec       q    Type
REMARK                         _______ _______ _______ _____ _____    ______ ____
ROOT
ATOM      1  C   UNL     1       8.964  -0.797  -0.080  0.00  0.00    +0.218 A 
ATOM      2  N   UNL     1       7.622  -0.850  -0.070  0.00  0.00    -0.197 NA
ATOM      3  C   UNL     1       7.145   0.360  -0.060  0.00  0.00    +0.200 A 
ATOM      4  N   UNL     1       8.173   1.264  -0.063  0.00  0.00    -0.169 N 
ATOM      5  N   UNL     1       9.344   0.459  -0.077  0.00  0.00    -0.138 NA
ATOM      6  C   UNL     1       7.874   2.569  -0.053  0.00  0.00    +0.288 A 
ATOM      7  O   UNL     1       8.760   3.405  -0.056  0.00  0.00    -0.265 OA
ATOM      8  C   UNL     1       6.510   2.965  -0.040  0.00  0.00    +0.085 A 
ATOM      9  C   UNL     1       5.968   4.230  -0.028  0.00  0.00    +0.067 C 
ATOM     10  S   UNL     1       5.688   1.379  -0.034  0.00  0.00    -0.044 S 
ENDROOT
BRANCH   1  13
ATOM     11  C   UNL     1      10.665  -4.040  -0.110  0.00  0.00    +0.042 A 
ATOM     12  C   UNL     1       9.485  -3.271  -0.092  0.00  0.00    +0.053 A 
ATOM     13  C   UNL     1       9.868  -1.966  -0.094  0.00  0.00    +0.173 A 
ATOM     14  O   UNL     1      11.214  -1.925  -0.104  0.00  0.00    -0.460 OA
ATOM     15  C   UNL     1      11.700  -3.176  -0.114  0.00  0.00    +0.196 A 
ENDBRANCH   1  13
BRANCH   9  16
ATOM     16  C   UNL     1       4.568   4.397  -0.016  0.00  0.00    +0.130 A 
ATOM     17  C   UNL     1       3.895   5.607  -0.003  0.00  0.00    +0.050 A 
ATOM     18  C   UNL     1       2.530   5.309   0.007  0.00  0.00    +0.050 A 
ATOM     19  C   UNL     1       2.417   3.937   0.001  0.00  0.00    +0.136 A 
ATOM     20  O   UNL     1       3.652   3.405  -0.008  0.00  0.00    -0.455 OA
BRANCH  19  21
ATOM     21  C   UNL     1       1.152   3.177   0.008  0.00  0.00    +0.017 A 
ATOM     22  C   UNL     1       1.173   1.780   0.000  0.00  0.00    +0.013 A 
ATOM     23  C   UNL     1      -0.013   1.076   0.008  0.00  0.00    +0.021 A 
ATOM     24  C   UNL     1      -1.222   1.750   0.017  0.00  0.00    +0.041 A 
ATOM     25  C   UNL     1      -1.250   3.135   0.031  0.00  0.00    +0.021 A 
ATOM     26  C   UNL     1      -0.072   3.852   0.023  0.00  0.00    +0.013 A 
ATOM     27 CL   UNL     1      -2.710   0.856   0.020  0.00  0.00    -0.084 Cl
ENDBRANCH  19  21
ENDBRANCH   9  16
TORSDOF 3
