REMARK  Name = ZINC09015594
REMARK  6 active torsions:
REMARK  status: ('A' for Active; 'I' for Inactive)
REMARK    1  A    between atoms: C_1  and  N_2
REMARK    2  A    between atoms: N_2  and  C_3
REMARK    3  A    between atoms: N_2  and  S_4
REMARK    4  A    between atoms: S_4  and  C_7
REMARK    5  A    between atoms: N_15  and  C_16
REMARK    6  A    between atoms: C_16  and  C_18
REMARK                            x       y       z     vdW  Elec       q    Type
REMARK                         _______ _______ _______ _____ _____    ______ ____
ROOT
ATOM      1  C   UNL     1       1.675  -1.071  -1.922  0.00  0.00    +0.107 A 
ATOM      2  C   UNL     1       2.328  -0.118  -2.686  0.00  0.00    +0.030 A 
ATOM      3  C   UNL     1       3.642  -0.280  -3.056  0.00  0.00    +0.029 A 
ATOM      4  C   UNL     1       4.358  -1.420  -2.667  0.00  0.00    +0.055 A 
ATOM      5  C   UNL     1       3.674  -2.369  -1.893  0.00  0.00    +0.041 A 
ATOM      6  C   UNL     1       2.361  -2.203  -1.519  0.00  0.00    +0.045 A 
ATOM      7  S   UNL     1       4.897  -3.623  -1.618  0.00  0.00    -0.052 S 
ATOM      8  C   UNL     1       6.176  -2.928  -2.458  0.00  0.00    +0.164 A 
ATOM      9  N   UNL     1       7.404  -3.410  -2.619  0.00  0.00    -0.151 NA
ATOM     10  N   UNL     1       5.670  -1.761  -2.936  0.00  0.00    -0.335 N 
ATOM     11  H   UNL     1       6.228  -1.169  -3.464  0.00  0.00    +0.168 HD
ENDROOT
BRANCH   1  12
ATOM     12  S   UNL     1      -0.010  -0.841  -1.461  0.00  0.00    +0.060 S 
ATOM     13  O   UNL     1      -0.540  -2.134  -1.202  0.00  0.00    -0.153 OA
ATOM     14  O   UNL     1      -0.578   0.037  -2.423  0.00  0.00    -0.153 OA
BRANCH  12  16
ATOM     15  C   UNL     1      -0.038   1.435  -0.001  0.00  0.00    +0.131 C 
ATOM     16  N   UNL     1      -0.016  -0.029  -0.018  0.00  0.00    -0.183 NA
ATOM     17  C   UNL     1       0.000  -0.776   1.243  0.00  0.00    +0.131 C 
ENDBRANCH  12  16
ENDBRANCH   1  12
BRANCH   9  18
ATOM     18  C   UNL     1       8.271  -2.777  -3.413  0.00  0.00    +0.288 C 
ATOM     19  O   UNL     1       7.970  -1.708  -3.915  0.00  0.00    -0.266 OA
BRANCH  18  20
ATOM     20  C   UNL     1       9.602  -3.376  -3.686  0.00  0.00    +0.128 A 
ATOM     21  C   UNL     1      10.502  -2.695  -4.518  0.00  0.00    +0.034 A 
ATOM     22  C   UNL     1      11.729  -3.234  -4.776  0.00  0.00    +0.012 A 
ATOM     23  C   UNL     1      12.050  -4.473  -4.189  0.00  0.00    +0.000 A 
ATOM     24  C   UNL     1      13.293  -5.085  -4.411  0.00  0.00    +0.010 A 
ATOM     25  C   UNL     1      13.568  -6.283  -3.826  0.00  0.00    +0.001 A 
ATOM     26  C   UNL     1      12.631  -6.913  -3.008  0.00  0.00    +0.002 A 
ATOM     27  C   UNL     1      11.416  -6.349  -2.770  0.00  0.00    +0.028 A 
ATOM     28  C   UNL     1      11.094  -5.111  -3.356  0.00  0.00    +0.072 A 
ATOM     29  N   UNL     1       9.912  -4.533  -3.135  0.00  0.00    -0.242 NA
ENDBRANCH  18  20
ENDBRANCH   9  18
TORSDOF 4
