REMARK  Name = ZINC14831921
REMARK  11 active torsions:
REMARK  status: ('A' for Active; 'I' for Inactive)
REMARK    1  A    between atoms: C_1  and  C_2
REMARK    2  A    between atoms: C_2  and  C_3
REMARK    3  A    between atoms: C_3  and  C_5
REMARK    4  A    between atoms: C_3  and  C_6
REMARK    5  A    between atoms: C_9  and  O_13
REMARK    6  A    between atoms: O_13  and  C_14
REMARK    7  A    between atoms: C_14  and  C_15
REMARK    8  A    between atoms: N_17  and  C_18
REMARK    9  A    between atoms: C_21  and  S_24
REMARK   10  A    between atoms: S_24  and  N_27
REMARK   11  A    between atoms: N_30  and  C_33
REMARK                            x       y       z     vdW  Elec       q    Type
REMARK                         _______ _______ _______ _____ _____    ______ ____
ROOT
ATOM      1  C   UNL     1       1.284  -8.725  -1.588  0.00  0.00    +0.255 C 
ATOM      2  O   UNL     1       1.156  -9.474  -2.534  0.00  0.00    -0.272 OA
ATOM      3  N   UNL     1       1.258  -9.215  -0.333  0.00  0.00    -0.283 N 
ATOM      4  H   UNL     1       1.427  -8.627   0.421  0.00  0.00    +0.155 HD
ENDROOT
BRANCH   3   5
ATOM      5  C   UNL     1       0.989 -10.571  -0.116  0.00  0.00    +0.034 A 
ATOM      6  C   UNL     1       0.264 -10.966   1.000  0.00  0.00    +0.025 A 
ATOM      7  C   UNL     1      -0.001 -12.305   1.212  0.00  0.00    +0.030 A 
ATOM      8  C   UNL     1       0.457 -13.252   0.313  0.00  0.00    +0.106 A 
ATOM      9  C   UNL     1       1.180 -12.861  -0.799  0.00  0.00    +0.030 A 
ATOM     10  C   UNL     1       1.442 -11.523  -1.019  0.00  0.00    +0.025 A 
BRANCH   8  11
ATOM     11  S   UNL     1       0.118 -14.959   0.586  0.00  0.00    +0.061 S 
ATOM     12  O   UNL     1       1.121 -15.688  -0.108  0.00  0.00    -0.153 OA
ATOM     13  O   UNL     1      -0.106 -15.111   1.981  0.00  0.00    -0.153 OA
BRANCH  11  14
ATOM     14  N   UNL     1      -1.319 -15.299  -0.163  0.00  0.00    -0.174 NA
ATOM     15  C   UNL     1      -2.596 -15.156   0.552  0.00  0.00    +0.125 C 
ATOM     16  C   UNL     1      -3.540 -14.304  -0.304  0.00  0.00    +0.101 C 
ATOM     17  N   UNL     1      -3.642 -14.891  -1.646  0.00  0.00    -0.303 NA
ATOM     18  C   UNL     1      -2.345 -14.878  -2.334  0.00  0.00    +0.101 C 
ATOM     19  C   UNL     1      -1.352 -15.747  -1.564  0.00  0.00    +0.125 C 
ATOM     20  C   UNL     1      -4.668 -14.206  -2.444  0.00  0.00    +0.105 C 
ENDBRANCH  11  14
ENDBRANCH   8  11
ENDBRANCH   3   5
BRANCH   1  21
ATOM     21  C   UNL     1       1.470  -7.247  -1.817  0.00  0.00    +0.324 C 
BRANCH  21  22
ATOM     22  O   UNL     1       1.462  -6.978  -3.220  0.00  0.00    -0.482 OA
BRANCH  22  26
ATOM     23  C   UNL     1       1.941  -3.046  -4.375  0.00  0.00    -0.043 A 
ATOM     24  C   UNL     1       1.939  -3.376  -3.032  0.00  0.00    +0.007 A 
ATOM     25  C   UNL     1       1.778  -4.692  -2.643  0.00  0.00    +0.047 A 
ATOM     26  C   UNL     1       1.619  -5.683  -3.601  0.00  0.00    +0.135 A 
ATOM     27  C   UNL     1       1.621  -5.349  -4.948  0.00  0.00    +0.060 A 
ATOM     28  C   UNL     1       1.777  -4.030  -5.332  0.00  0.00    +0.022 A 
ATOM     29 BR   UNL     1       1.405  -6.697  -6.257  0.00  0.00    -0.047 Br
BRANCH  23  30
ATOM     30  C   UNL     1       2.117  -1.610  -4.796  0.00  0.00    +0.016 C 
ATOM     31  C   UNL     1       0.989  -0.762  -4.204  0.00  0.00    +0.012 C 
BRANCH  30  33
ATOM     32  C   UNL     1       3.699   0.324  -4.822  0.00  0.00    +0.004 C 
ATOM     33  C   UNL     1       3.465  -1.091  -4.290  0.00  0.00    +0.004 C 
ENDBRANCH  30  33
ENDBRANCH  23  30
ENDBRANCH  22  26
ENDBRANCH  21  22
ENDBRANCH   1  21
TORSDOF 8
