REMARK  Name = ZINC08843833
REMARK  6 active torsions:
REMARK  status: ('A' for Active; 'I' for Inactive)
REMARK    1  A    between atoms: C_1  and  C_2
REMARK    2  A    between atoms: C_2  and  O_3
REMARK    3  A    between atoms: O_3  and  C_4
REMARK    4  A    between atoms: C_4  and  C_6
REMARK    5  A    between atoms: C_10  and  N_11
REMARK    6  A    between atoms: C_12  and  C_14
REMARK                            x       y       z     vdW  Elec       q    Type
REMARK                         _______ _______ _______ _____ _____    ______ ____
ROOT
ATOM      1  C   UNL     1       8.571   3.390   0.329  0.00  0.00    +0.091 A 
ATOM      2  C   UNL     1       9.661   4.274  -0.050  0.00  0.00    -0.021 A 
ATOM      3  C   UNL     1       9.283   5.465  -0.564  0.00  0.00    -0.004 A 
ATOM      4  S   UNL     1       7.513   5.420  -0.557  0.00  0.00    -0.077 S 
ATOM      5  C   UNL     1       7.275   3.843   0.118  0.00  0.00    +0.086 A 
ATOM      6  C   UNL     1      10.177   6.572  -1.031  0.00  0.00    +0.043 C 
ATOM      7  C   UNL     1      11.592   6.309  -0.496  0.00  0.00    +0.005 C 
ATOM      8  C   UNL     1      11.963   4.850  -0.778  0.00  0.00    +0.005 C 
ATOM      9  C   UNL     1      11.134   3.922   0.112  0.00  0.00    +0.037 C 
ENDROOT
BRANCH   5  10
ATOM     10  N   UNL     1       6.081   3.193   0.389  0.00  0.00    -0.279 N 
ATOM     11  C   UNL     1       4.908   3.799   0.120  0.00  0.00    +0.224 C 
ATOM     12  O   UNL     1       4.897   4.913  -0.359  0.00  0.00    -0.275 OA
ATOM     13  H   UNL     1       6.090   2.301   0.772  0.00  0.00    +0.155 HD
BRANCH  11  14
ATOM     14  C   UNL     1       3.610   3.092   0.414  0.00  0.00    +0.117 C 
ATOM     15  C   UNL     1       2.434   3.977  -0.007  0.00  0.00    +0.055 C 
ATOM     16  C   UNL     1       1.161   3.169   0.007  0.00  0.00    -0.005 A 
ATOM     17  C   UNL     1      -0.052   3.837   0.024  0.00  0.00    +0.007 A 
ATOM     18  C   UNL     1      -1.238   3.130   0.032  0.00  0.00    +0.000 A 
ATOM     19  C   UNL     1      -1.218   1.747   0.017  0.00  0.00    +0.004 A 
ATOM     20  C   UNL     1      -0.013   1.076   0.008  0.00  0.00    +0.046 A 
ATOM     21  C   UNL     1       1.184   1.786   0.000  0.00  0.00    +0.124 A 
ATOM     22  O   UNL     1       2.351   1.089  -0.010  0.00  0.00    -0.491 OA
ATOM     23  C   UNL     1       3.540   1.785  -0.386  0.00  0.00    +0.242 C 
ENDBRANCH  11  14
ENDBRANCH   5  10
BRANCH   1  24
ATOM     24  C   UNL     1       8.831   2.070   0.907  0.00  0.00    +0.342 C 
ATOM     25  O   UNL     1       8.948   1.101   0.181  0.00  0.00    -0.245 OA
BRANCH  24  26
ATOM     26  O   UNL     1       8.938   1.928   2.244  0.00  0.00    -0.461 OA
BRANCH  26  28
ATOM     27  C   UNL     1       9.286   0.628   4.273  0.00  0.00    +0.048 C 
ATOM     28  C   UNL     1       9.196   0.591   2.746  0.00  0.00    +0.229 C 
ENDBRANCH  26  28
ENDBRANCH  24  26
ENDBRANCH   1  24
TORSDOF 5
