REMARK  Name = ZINC39536058
REMARK  7 active torsions:
REMARK  status: ('A' for Active; 'I' for Inactive)
REMARK    1  A    between atoms: C_1  and  C_2
REMARK    2  A    between atoms: C_4  and  C_28
REMARK    3  A    between atoms: C_7  and  C_12
REMARK    4  A    between atoms: C_12  and  O_14
REMARK    5  A    between atoms: O_14  and  C_15
REMARK    6  A    between atoms: C_15  and  C_16
REMARK    7  A    between atoms: C_16  and  C_18
REMARK                            x       y       z     vdW  Elec       q    Type
REMARK                         _______ _______ _______ _____ _____    ______ ____
ROOT
ATOM      1  C   UNL     1       0.089  -5.556   2.350  0.00  0.00    +0.356 C 
ATOM      2  O   UNL     1       0.100  -6.609   1.742  0.00  0.00    -0.243 OA
ENDROOT
BRANCH   1   9
ATOM      3  C   UNL     1      -0.018   1.503   0.010  0.00  0.00    +0.044 C 
ATOM      4  C   UNL     1       0.002  -0.004   0.002  0.00  0.00    -0.048 A 
ATOM      5  C   UNL     1       0.006  -0.685  -1.209  0.00  0.00    +0.007 A 
ATOM      6  C   UNL     1       0.024  -2.049  -1.239  0.00  0.00    -0.041 A 
ATOM      7  C   UNL     1       0.040  -2.772  -0.039  0.00  0.00    +0.003 A 
ATOM      8  C   UNL     1       0.060  -4.155   0.262  0.00  0.00    +0.043 A 
ATOM      9  C   UNL     1       0.069  -4.284   1.615  0.00  0.00    +0.125 A 
ATOM     10  N   UNL     1       0.055  -3.028   2.190  0.00  0.00    -0.349 N 
ATOM     11  H   UNL     1       0.057  -2.842   3.142  0.00  0.00    +0.166 HD
ATOM     12  C   UNL     1       0.037  -2.084   1.190  0.00  0.00    +0.048 A 
ATOM     13  C   UNL     1       0.023  -0.692   1.194  0.00  0.00    +0.029 A 
ATOM     14  C   UNL     1       0.027  -2.776  -2.559  0.00  0.00    +0.044 C 
ENDBRANCH   1   9
BRANCH   1  15
ATOM     15  O   UNL     1       0.096  -5.556   3.698  0.00  0.00    -0.452 OA
BRANCH  15  16
ATOM     16  C   UNL     1       0.116  -6.830   4.347  0.00  0.00    +0.312 C 
BRANCH  16  17
ATOM     17  C   UNL     1       0.121  -6.632   5.841  0.00  0.00    +0.202 C 
ATOM     18  O   UNL     1       0.109  -5.510   6.305  0.00  0.00    -0.288 OA
BRANCH  17  19
ATOM     19  C   UNL     1       0.140  -7.756   6.704  0.00  0.00    +0.046 A 
ATOM     20  C   UNL     1       0.162  -9.084   6.334  0.00  0.00    +0.095 A 
ATOM     21  N   UNL     1       0.175  -9.860   7.435  0.00  0.00    -0.360 N 
ATOM     22  H   UNL     1       0.191 -10.830   7.425  0.00  0.00    +0.165 HD
ATOM     23  C   UNL     1       0.164  -9.086   8.578  0.00  0.00    +0.047 A 
ATOM     24  C   UNL     1       0.147  -7.740   8.180  0.00  0.00    +0.010 A 
ATOM     25  C   UNL     1       0.139  -6.729   9.136  0.00  0.00    +0.011 A 
ATOM     26  C   UNL     1       0.150  -7.055  10.475  0.00  0.00    +0.001 A 
ATOM     27  C   UNL     1       0.170  -8.384  10.870  0.00  0.00    +0.002 A 
ATOM     28  C   UNL     1       0.171  -9.396   9.934  0.00  0.00    +0.026 A 
ENDBRANCH  17  19
ENDBRANCH  16  17
ENDBRANCH  15  16
ENDBRANCH   1  15
TORSDOF 5
