REMARK  Name = ZINC06241755
REMARK  2 active torsions:
REMARK  status: ('A' for Active; 'I' for Inactive)
REMARK    1  A    between atoms: C_3  and  N_20
REMARK    2  A    between atoms: C_6  and  C_7
REMARK                            x       y       z     vdW  Elec       q    Type
REMARK                         _______ _______ _______ _____ _____    ______ ____
ROOT
ATOM      1  C   UNL     1       1.687  -1.720  -0.024  0.00  0.00    +0.266 C 
ATOM      2  O   UNL     1       2.869  -1.981  -0.130  0.00  0.00    -0.267 OA
ATOM      3  N   UNL     1       1.279  -0.435  -0.011  0.00  0.00    -0.237 N 
ATOM      4  C   UNL     1       1.015   0.359  -1.130  0.00  0.00    +0.096 A 
ATOM      5  C   UNL     1       1.075   0.129  -2.495  0.00  0.00    +0.031 A 
ATOM      6  C   UNL     1       0.745   1.139  -3.378  0.00  0.00    +0.022 A 
ATOM      7  C   UNL     1       0.355   2.380  -2.901  0.00  0.00    +0.045 A 
ATOM      8  C   UNL     1       0.294   2.616  -1.540  0.00  0.00    +0.068 A 
ATOM      9  C   UNL     1       0.624   1.608  -0.648  0.00  0.00    +0.156 A 
ATOM     10  O   UNL     1       0.657   1.546   0.706  0.00  0.00    -0.431 OA
ATOM     11  C   UNL     1       1.051   0.318   1.083  0.00  0.00    +0.256 A 
ATOM     12  S   UNL     1       1.234  -0.208   2.701  0.00  0.00    +0.010 S 
ATOM     13 CL   UNL     1      -0.058   3.644  -4.017  0.00  0.00    -0.083 Cl
ENDROOT
BRANCH   1  19
ATOM     14  C   UNL     1      -0.669  -2.518   0.113  0.00  0.00    +0.015 A 
ATOM     15  C   UNL     1      -1.588  -3.541   0.216  0.00  0.00    +0.033 A 
ATOM     16  C   UNL     1      -1.160  -4.854   0.308  0.00  0.00    +0.126 A 
ATOM     17  C   UNL     1       0.192  -5.150   0.293  0.00  0.00    +0.033 A 
ATOM     18  C   UNL     1       1.122  -4.137   0.185  0.00  0.00    +0.015 A 
ATOM     19  C   UNL     1       0.696  -2.810   0.091  0.00  0.00    +0.040 A 
BRANCH  16  20
ATOM     20  N   UNL     1      -2.152  -5.946   0.424  0.00  0.00    +0.056 N 
ATOM     21  O   UNL     1      -1.778  -7.103   0.506  0.00  0.00    -0.126 OA
ATOM     22  O   UNL     1      -3.342  -5.689   0.438  0.00  0.00    -0.126 OA
ENDBRANCH  16  20
ENDBRANCH   1  19
TORSDOF 2
