REMARK  Name = ZINC37970073
REMARK  4 active torsions:
REMARK  status: ('A' for Active; 'I' for Inactive)
REMARK    1  A    between atoms: C_4  and  C_8
REMARK    2  A    between atoms: C_8  and  C_10
REMARK    3  A    between atoms: C_8  and  N_12
REMARK    4  A    between atoms: N_12  and  C_13
REMARK                            x       y       z     vdW  Elec       q    Type
REMARK                         _______ _______ _______ _____ _____    ______ ____
ROOT
ATOM      1  C   UNL     1       3.711  -0.711  -0.037  0.00  0.00    +0.191 C 
ENDROOT
BRANCH   1   5
ATOM      2  C   UNL     1      -0.017   1.379   0.010  0.00  0.00    +0.018 A 
ATOM      3  C   UNL     1       1.171   2.086   0.002  0.00  0.00    +0.040 A 
ATOM      4  C   UNL     1       2.379   1.411  -0.013  0.00  0.00    +0.129 A 
ATOM      5  C   UNL     1       2.397   0.026  -0.021  0.00  0.00    +0.020 A 
ATOM      6  C   UNL     1       1.209  -0.680  -0.013  0.00  0.00    +0.024 A 
ATOM      7  C   UNL     1       0.002  -0.004   0.002  0.00  0.00    +0.018 A 
ATOM      8 BR   UNL     1      -1.623  -0.971   0.013  0.00  0.00    -0.050 Br
ATOM      9  F   UNL     1       3.539   2.102  -0.021  0.00  0.00    -0.205 F 
ENDBRANCH   1   5
BRANCH   1  10
ATOM     10  C   UNL     1       4.212  -0.852   1.339  0.00  0.00    +0.086 C 
ATOM     11  N   UNL     1       4.599  -0.962   2.402  0.00  0.00    -0.195 NA
ENDBRANCH   1  10
BRANCH   1  12
ATOM     12  N   UNL     1       3.519  -2.042  -0.628  0.00  0.00    -0.295 NA
ATOM     13  H   UNL     1       3.146  -2.688   0.051  0.00  0.00    +0.124 HD
BRANCH  12  14
ATOM     14  C   UNL     1       4.772  -2.549  -1.203  0.00  0.00    +0.055 C 
ATOM     15  C   UNL     1       4.957  -1.943  -2.609  0.00  0.00    +0.019 C 
ATOM     16  C   UNL     1       6.413  -2.030  -2.980  0.00  0.00    +0.002 C 
ATOM     17  C   UNL     1       6.739  -3.296  -3.795  0.00  0.00    +0.000 C 
ATOM     18  C   UNL     1       6.024  -4.551  -3.260  0.00  0.00    +0.000 C 
ATOM     19  C   UNL     1       6.034  -4.624  -1.758  0.00  0.00    +0.002 C 
ATOM     20  C   UNL     1       4.726  -4.003  -1.228  0.00  0.00    +0.019 C 
ENDBRANCH  12  14
ENDBRANCH   1  12
TORSDOF 4
