REMARK  Name = ZINC13519775
REMARK  5 active torsions:
REMARK  status: ('A' for Active; 'I' for Inactive)
REMARK    1  A    between atoms: C_1  and  C_2
REMARK    2  A    between atoms: C_8  and  C_9
REMARK    3  A    between atoms: C_8  and  N_10
REMARK    4  A    between atoms: N_10  and  C_11
REMARK    5  A    between atoms: C_11  and  C_12
REMARK                            x       y       z     vdW  Elec       q    Type
REMARK                         _______ _______ _______ _____ _____    ______ ____
ROOT
ATOM      1  C   UNL     1       0.032   1.505   0.007  0.00  0.00    +0.068 C 
ATOM      2  C   UNL     1       0.037  -0.002  -0.001  0.00  0.00    +0.071 C 
ATOM      3  N   UNL     1      -0.044  -0.763  -1.048  0.00  0.00    -0.175 NA
ATOM      4  N   UNL     1      -0.011  -2.113  -0.699  0.00  0.00    -0.132 N 
ATOM      5  C   UNL     1       0.097  -2.242   0.639  0.00  0.00    +0.275 C 
ATOM      6  O   UNL     1       0.152  -3.282   1.273  0.00  0.00    -0.268 OA
ATOM      7  C   UNL     1       0.140  -0.877   1.177  0.00  0.00    +0.078 C 
ATOM      8  C   UNL     1       0.251  -0.496   2.503  0.00  0.00    +0.015 C 
ATOM      9  C   UNL     1       0.471  -1.537   3.570  0.00  0.00    +0.061 C 
ATOM     10  C   UNL     1      -0.079  -3.169  -1.596  0.00  0.00    +0.189 A 
ATOM     11  N   UNL     1      -0.061  -4.458  -1.353  0.00  0.00    -0.223 NA
ATOM     12  C   UNL     1      -0.135  -5.383  -2.334  0.00  0.00    +0.080 A 
ATOM     13  C   UNL     1      -0.126  -6.792  -2.209  0.00  0.00    +0.029 A 
ATOM     14  C   UNL     1      -0.209  -7.594  -3.317  0.00  0.00    +0.002 A 
ATOM     15  C   UNL     1      -0.306  -7.059  -4.594  0.00  0.00    +0.001 A 
ATOM     16  C   UNL     1      -0.318  -5.686  -4.754  0.00  0.00    +0.017 A 
ATOM     17  C   UNL     1      -0.235  -4.874  -3.650  0.00  0.00    +0.041 A 
ATOM     18  S   UNL     1      -0.222  -3.119  -3.377  0.00  0.00    -0.050 S 
ENDROOT
BRANCH   8  19
ATOM     19  N   UNL     1       0.163   0.807   2.840  0.00  0.00    -0.344 N 
ATOM     20  H   UNL     1      -0.059   1.468   2.166  0.00  0.00    +0.146 HD
BRANCH  19  21
ATOM     21  C   UNL     1       0.401   1.223   4.225  0.00  0.00    +0.132 C 
BRANCH  21  22
ATOM     22  C   UNL     1       0.240   2.740   4.336  0.00  0.00    +0.135 C 
ATOM     23  C   UNL     1       0.522   3.206   5.787  0.00  0.00    +0.035 C 
ATOM     24  C   UNL     1       0.941   4.682   5.546  0.00  0.00    +0.031 C 
ATOM     25  C   UNL     1       1.669   4.599   4.187  0.00  0.00    +0.160 C 
ATOM     26  O   UNL     1       1.222   3.407   3.527  0.00  0.00    -0.375 OA
ENDBRANCH  21  22
ENDBRANCH  19  21
ENDBRANCH   8  19
TORSDOF 3
