REMARK  Name = ZINC67390874
REMARK  6 active torsions:
REMARK  status: ('A' for Active; 'I' for Inactive)
REMARK    1  A    between atoms: C_1  and  C_2
REMARK    2  A    between atoms: C_2  and  C_3
REMARK    3  A    between atoms: C_2  and  C_4
REMARK    4  A    between atoms: C_2  and  N_12
REMARK    5  A    between atoms: C_4  and  C_5
REMARK    6  A    between atoms: C_18  and  C_21
REMARK                            x       y       z     vdW  Elec       q    Type
REMARK                         _______ _______ _______ _____ _____    ______ ____
ROOT
ATOM      1  N   UNL     1       0.688  -0.476  -1.203  0.00  0.00    -0.294 N 
ATOM      2  C   UNL     1       1.972  -0.132  -1.427  0.00  0.00    +0.303 C 
ATOM      3  O   UNL     1       2.561   0.570  -0.628  0.00  0.00    -0.253 OA
ATOM      4  N   UNL     1       2.602  -0.567  -2.536  0.00  0.00    -0.285 N 
ATOM      5  C   UNL     1       2.010  -1.413  -3.583  0.00  0.00    +0.110 C 
ATOM      6  C   UNL     1       3.092  -1.630  -4.662  0.00  0.00    +0.033 C 
ATOM      7  C   UNL     1       4.050  -0.430  -4.441  0.00  0.00    +0.094 C 
ATOM      8  C   UNL     1       3.998  -0.268  -2.903  0.00  0.00    +0.122 C 
ATOM      9  H   UNL     1       0.218  -1.037  -1.840  0.00  0.00    +0.151 HD
ENDROOT
BRANCH   7  10
ATOM     10  C   UNL     1       5.445  -0.759  -4.906  0.00  0.00    +0.215 C 
ATOM     11  O   UNL     1       5.684  -1.850  -5.378  0.00  0.00    -0.276 OA
ATOM     12  N   UNL     1       6.426   0.158  -4.798  0.00  0.00    -0.329 N 
ATOM     13  H   UNL     1       6.234   1.031  -4.420  0.00  0.00    +0.145 HD
ATOM     14  H   UNL     1       7.324  -0.054  -5.097  0.00  0.00    +0.145 HD
ENDBRANCH   7  10
BRANCH   1  16
ATOM     15  C   UNL     1      -0.019   1.526   0.010  0.00  0.00    +0.031 C 
ATOM     16  C   UNL     1       0.002  -0.004   0.002  0.00  0.00    +0.034 C 
ATOM     17  C   UNL     1       0.742  -0.511   1.242  0.00  0.00    +0.031 C 
BRANCH  16  18
ATOM     18  C   UNL     1      -1.433  -0.534   0.013  0.00  0.00    +0.060 C 
BRANCH  18  19
ATOM     19  C   UNL     1      -2.139  -0.048   1.253  0.00  0.00    -0.045 A 
ATOM     20  C   UNL     1      -2.093  -0.798   2.413  0.00  0.00    +0.005 A 
ATOM     21  C   UNL     1      -2.739  -0.352   3.550  0.00  0.00    +0.015 A 
ATOM     22  C   UNL     1      -3.432   0.845   3.528  0.00  0.00    +0.018 A 
ATOM     23  C   UNL     1      -3.478   1.595   2.367  0.00  0.00    +0.015 A 
ATOM     24  C   UNL     1      -2.827   1.151   1.231  0.00  0.00    +0.005 A 
ATOM     25 BR   UNL     1      -4.317   1.454   5.084  0.00  0.00    -0.050 Br
ENDBRANCH  18  19
ENDBRANCH  16  18
ENDBRANCH   1  16
TORSDOF 4
