REMARK  Name = ZINC39856917
REMARK  7 active torsions:
REMARK  status: ('A' for Active; 'I' for Inactive)
REMARK    1  A    between atoms: C_1  and  C_2
REMARK    2  A    between atoms: C_5  and  C_33
REMARK    3  A    between atoms: C_6  and  N_8
REMARK    4  A    between atoms: N_8  and  C_9
REMARK    5  A    between atoms: C_21  and  N_23
REMARK    6  A    between atoms: N_23  and  S_24
REMARK    7  A    between atoms: S_24  and  C_27
REMARK                            x       y       z     vdW  Elec       q    Type
REMARK                         _______ _______ _______ _____ _____    ______ ____
ROOT
ATOM      1  C   UNL     1      -0.227  -1.910   3.624  0.00  0.00    +0.124 C 
ATOM      2  C   UNL     1       1.211  -1.451   3.603  0.00  0.00    -0.017 A 
ATOM      3  C   UNL     1       1.937  -0.616   2.809  0.00  0.00    +0.006 A 
ATOM      4  C   UNL     1       3.292  -0.398   3.068  0.00  0.00    +0.001 A 
ATOM      5  C   UNL     1       3.942  -0.998   4.108  0.00  0.00    +0.008 A 
ATOM      6  C   UNL     1       3.224  -1.866   4.946  0.00  0.00    -0.017 A 
ATOM      7  C   UNL     1       1.861  -2.070   4.666  0.00  0.00    -0.008 A 
ATOM      8  C   UNL     1       1.054  -2.908   5.429  0.00  0.00    -0.019 A 
ATOM      9  C   UNL     1       1.620  -3.549   6.487  0.00  0.00    +0.006 A 
ATOM     10  C   UNL     1       2.972  -3.361   6.785  0.00  0.00    +0.001 A 
ATOM     11  C   UNL     1       3.776  -2.544   6.045  0.00  0.00    +0.008 A 
ATOM     12  C   UNL     1      -0.333  -2.870   4.829  0.00  0.00    +0.131 C 
ENDROOT
BRANCH   1  13
ATOM     13  N   UNL     1      -0.553  -2.615   2.382  0.00  0.00    -0.335 N 
ATOM     14  H   UNL     1      -0.221  -3.514   2.234  0.00  0.00    +0.147 HD
BRANCH  13  20
ATOM     15  C   UNL     1      -2.911   1.387   0.777  0.00  0.00    +0.044 C 
ATOM     16  C   UNL     1      -2.499  -0.052   0.608  0.00  0.00    -0.049 A 
ATOM     17  C   UNL     1      -2.903  -0.759  -0.511  0.00  0.00    +0.004 A 
ATOM     18  C   UNL     1      -2.529  -2.080  -0.670  0.00  0.00    +0.005 A 
ATOM     19  C   UNL     1      -1.749  -2.699   0.288  0.00  0.00    -0.030 A 
ATOM     20  C   UNL     1      -1.341  -1.992   1.412  0.00  0.00    +0.031 A 
ATOM     21  C   UNL     1      -1.715  -0.663   1.566  0.00  0.00    +0.026 A 
ATOM     22  C   UNL     1      -1.342  -4.140   0.114  0.00  0.00    +0.045 C 
ENDBRANCH  13  20
ENDBRANCH   1  13
BRANCH  12  23
ATOM     23  N   UNL     1      -0.729  -4.207   4.379  0.00  0.00    -0.180 NA
ATOM     24  H   UNL     1      -0.209  -4.663   3.699  0.00  0.00    +0.149 HD
BRANCH  23  25
ATOM     25  S   UNL     1      -2.063  -4.939   5.032  0.00  0.00    +0.059 S 
ATOM     26  O   UNL     1      -2.197  -6.195   4.380  0.00  0.00    -0.153 OA
ATOM     27  O   UNL     1      -1.940  -4.822   6.443  0.00  0.00    -0.153 OA
BRANCH  25  28
ATOM     28  C   UNL     1      -3.465  -3.978   4.567  0.00  0.00    +0.105 A 
ATOM     29  C   UNL     1      -3.888  -2.938   5.373  0.00  0.00    +0.028 A 
ATOM     30  C   UNL     1      -4.987  -2.184   5.009  0.00  0.00    +0.002 A 
ATOM     31  C   UNL     1      -5.664  -2.470   3.838  0.00  0.00    +0.000 A 
ATOM     32  C   UNL     1      -5.240  -3.510   3.031  0.00  0.00    +0.002 A 
ATOM     33  C   UNL     1      -4.138  -4.261   3.393  0.00  0.00    +0.028 A 
ENDBRANCH  25  28
ENDBRANCH  23  25
ENDBRANCH  12  23
TORSDOF 5
