REMARK  Name = ZINC35482433
REMARK  5 active torsions:
REMARK  status: ('A' for Active; 'I' for Inactive)
REMARK    1  A    between atoms: C_1  and  C_2
REMARK    2  A    between atoms: C_9  and  S_14
REMARK    3  A    between atoms: S_14  and  N_17
REMARK    4  A    between atoms: C_20  and  C_23
REMARK    5  A    between atoms: N_28  and  C_31
REMARK                            x       y       z     vdW  Elec       q    Type
REMARK                         _______ _______ _______ _____ _____    ______ ____
ROOT
ATOM      1  N   UNL     1       0.625  -7.071   1.093  0.00  0.00    -0.177 NA
ATOM      2  C   UNL     1      -0.323  -7.446   0.035  0.00  0.00    +0.110 C 
ATOM      3  C   UNL     1       0.214  -6.941  -1.309  0.00  0.00    +0.030 C 
ATOM      4  C   UNL     1       1.633  -7.474  -1.519  0.00  0.00    +0.078 C 
ATOM      5  C   UNL     1       2.546  -6.951  -0.408  0.00  0.00    +0.030 C 
ATOM      6  C   UNL     1       2.037  -7.450   0.943  0.00  0.00    +0.110 C 
ENDROOT
BRANCH   4   7
ATOM      7  C   UNL     1       2.151  -7.008  -2.855  0.00  0.00    +0.219 C 
ATOM      8  O   UNL     1       2.677  -5.919  -2.956  0.00  0.00    -0.275 OA
ATOM      9  N   UNL     1       2.030  -7.800  -3.939  0.00  0.00    -0.298 N 
ATOM     10  C   UNL     1       1.284  -9.064  -3.861  0.00  0.00    +0.126 C 
ATOM     11  C   UNL     1       0.196  -9.057  -4.942  0.00  0.00    +0.124 C 
ATOM     12  N   UNL     1       0.808  -8.673  -6.222  0.00  0.00    -0.327 N 
ATOM     13  C   UNL     1       1.554  -7.409  -6.299  0.00  0.00    +0.124 C 
ATOM     14  C   UNL     1       2.637  -7.413  -5.220  0.00  0.00    +0.126 C 
BRANCH  12  15
ATOM     15  C   UNL     1       0.683  -9.494  -7.345  0.00  0.00    +0.030 A 
ATOM     16  C   UNL     1      -0.123 -10.625  -7.294  0.00  0.00    +0.023 A 
ATOM     17  C   UNL     1      -0.245 -11.434  -8.406  0.00  0.00    +0.002 A 
ATOM     18  C   UNL     1       0.434 -11.121  -9.569  0.00  0.00    +0.000 A 
ATOM     19  C   UNL     1       1.238  -9.997  -9.623  0.00  0.00    +0.002 A 
ATOM     20  C   UNL     1       1.359  -9.180  -8.517  0.00  0.00    +0.023 A 
ENDBRANCH  12  15
ENDBRANCH   4   7
BRANCH   1  21
ATOM     21  S   UNL     1       0.113  -6.232   2.426  0.00  0.00    +0.061 S 
ATOM     22  O   UNL     1       1.051  -6.501   3.459  0.00  0.00    -0.153 OA
ATOM     23  O   UNL     1      -1.275  -6.502   2.567  0.00  0.00    -0.153 OA
BRANCH  21  31
ATOM     24  C   UNL     1      -0.171   1.487   0.017  0.00  0.00    +0.062 C 
ATOM     25  C   UNL     1      -0.117  -0.042   0.010  0.00  0.00    +0.256 C 
ATOM     26  C   UNL     1      -1.520  -0.593   0.032  0.00  0.00    +0.258 C 
ATOM     27  O   UNL     1      -2.432   0.043  -0.452  0.00  0.00    -0.271 OA
ATOM     28  N   UNL     1      -1.757  -1.800   0.592  0.00  0.00    -0.279 N 
ATOM     29  C   UNL     1      -0.691  -2.498   1.176  0.00  0.00    +0.078 A 
ATOM     30  C   UNL     1      -0.806  -3.847   1.472  0.00  0.00    +0.055 A 
ATOM     31  C   UNL     1       0.257  -4.517   2.049  0.00  0.00    +0.107 A 
ATOM     32  C   UNL     1       1.433  -3.846   2.330  0.00  0.00    +0.032 A 
ATOM     33  C   UNL     1       1.554  -2.499   2.037  0.00  0.00    +0.049 A 
ATOM     34  C   UNL     1       0.494  -1.822   1.459  0.00  0.00    +0.143 A 
ATOM     35  O   UNL     1       0.596  -0.499   1.162  0.00  0.00    -0.478 OA
ATOM     36  H   UNL     1      -2.651  -2.176   0.590  0.00  0.00    +0.155 HD
ENDBRANCH  21  31
ENDBRANCH   1  21
TORSDOF 4
