REMARK  Name = ZINC15134582
REMARK  10 active torsions:
REMARK  status: ('A' for Active; 'I' for Inactive)
REMARK    1  A    between atoms: C_1  and  C_2
REMARK    2  A    between atoms: C_11  and  C_12
REMARK    3  A    between atoms: C_11  and  C_13
REMARK    4  A    between atoms: C_15  and  C_17
REMARK    5  A    between atoms: N_18  and  N_19
REMARK    6  A    between atoms: C_20  and  C_22
REMARK    7  A    between atoms: C_22  and  N_23
REMARK    8  A    between atoms: C_24  and  C_26
REMARK    9  A    between atoms: C_26  and  C_27
REMARK   10  A    between atoms: C_26  and  C_33
REMARK                            x       y       z     vdW  Elec       q    Type
REMARK                         _______ _______ _______ _____ _____    ______ ____
ROOT
ATOM      1  N   UNL     1      -3.528   1.936  -5.984  0.00  0.00    -0.206 N 
ATOM      2  C   UNL     1      -2.969   1.576  -4.812  0.00  0.00    +0.249 C 
ATOM      3  O   UNL     1      -1.877   1.049  -4.797  0.00  0.00    -0.272 OA
ATOM      4  H   UNL     1      -4.401   2.358  -5.996  0.00  0.00    +0.177 HD
ENDROOT
BRANCH   1   6
ATOM      5  C   UNL     1      -3.377   2.044  -8.300  0.00  0.00    +0.107 C 
ATOM      6  N   UNL     1      -2.847   1.702  -7.186  0.00  0.00    -0.192 NA
BRANCH   5  19
ATOM      7  C   UNL     1      -3.746   3.756 -10.671  0.00  0.00    +0.008 C 
ATOM      8  C   UNL     1      -2.402   3.122 -10.307  0.00  0.00    -0.005 C 
ATOM      9  C   UNL     1      -1.591   2.890 -11.584  0.00  0.00    +0.012 C 
ATOM     10  C   UNL     1      -2.395   1.999 -12.534  0.00  0.00    +0.021 C 
ATOM     11  C   UNL     1      -2.773   0.735 -11.820  0.00  0.00    -0.069 C 
ATOM     12  C   UNL     1      -2.511  -0.459 -12.264  0.00  0.00    -0.027 C 
ATOM     13  C   UNL     1      -1.764  -0.691 -13.549  0.00  0.00    +0.028 C 
ATOM     14  C   UNL     1      -0.813   0.491 -13.773  0.00  0.00    +0.011 C 
ATOM     15  C   UNL     1      -1.644   1.771 -13.829  0.00  0.00    -0.028 C 
ATOM     16  C   UNL     1      -2.649   1.666 -14.978  0.00  0.00    +0.011 C 
ATOM     17  C   UNL     1      -0.716   2.960 -14.086  0.00  0.00    +0.011 C 
ATOM     18  C   UNL     1      -3.486   0.873 -10.484  0.00  0.00    +0.040 C 
ATOM     19  C   UNL     1      -2.644   1.793  -9.592  0.00  0.00    +0.039 C 
ENDBRANCH   5  19
ENDBRANCH   1   6
BRANCH   2  20
ATOM     20  C   UNL     1      -3.702   1.828  -3.519  0.00  0.00    +0.201 C 
BRANCH  20  21
ATOM     21  N   UNL     1      -2.891   1.350  -2.397  0.00  0.00    -0.306 N 
ATOM     22  C   UNL     1      -3.348   1.471  -1.135  0.00  0.00    +0.225 C 
ATOM     23  O   UNL     1      -4.431   1.977  -0.929  0.00  0.00    -0.275 OA
ATOM     24  H   UNL     1      -2.025   0.946  -2.562  0.00  0.00    +0.149 HD
BRANCH  22  25
ATOM     25  C   UNL     1      -2.514   0.980   0.019  0.00  0.00    +0.135 C 
BRANCH  25  26
ATOM     26  C   UNL     1      -1.198   1.714   0.037  0.00  0.00    -0.031 A 
ATOM     27  C   UNL     1      -1.176   3.095  -0.019  0.00  0.00    +0.005 A 
ATOM     28  C   UNL     1       0.031   3.768   0.002  0.00  0.00    +0.000 A 
ATOM     29  C   UNL     1       1.216   3.061   0.074  0.00  0.00    +0.000 A 
ATOM     30  C   UNL     1       1.195   1.679   0.125  0.00  0.00    +0.000 A 
ATOM     31  C   UNL     1      -0.012   1.006   0.103  0.00  0.00    +0.005 A 
ENDBRANCH  25  26
BRANCH  25  32
ATOM     32  C   UNL     1      -3.246   1.231   1.312  0.00  0.00    -0.031 A 
ATOM     33  C   UNL     1      -3.709   2.500   1.609  0.00  0.00    +0.005 A 
ATOM     34  C   UNL     1      -4.385   2.730   2.792  0.00  0.00    +0.000 A 
ATOM     35  C   UNL     1      -4.590   1.694   3.684  0.00  0.00    +0.000 A 
ATOM     36  C   UNL     1      -4.123   0.426   3.389  0.00  0.00    +0.000 A 
ATOM     37  C   UNL     1      -3.451   0.195   2.204  0.00  0.00    +0.005 A 
ENDBRANCH  25  32
ENDBRANCH  22  25
ENDBRANCH  20  21
ENDBRANCH   2  20
TORSDOF 7
