REMARK  Name = ZINC20910777
REMARK  5 active torsions:
REMARK  status: ('A' for Active; 'I' for Inactive)
REMARK    1  A    between atoms: C_1  and  C_2
REMARK    2  A    between atoms: N_4  and  C_5
REMARK    3  A    between atoms: C_8  and  C_10
REMARK    4  A    between atoms: C_10  and  N_11
REMARK    5  A    between atoms: C_24  and  C_26
REMARK                            x       y       z     vdW  Elec       q    Type
REMARK                         _______ _______ _______ _____ _____    ______ ____
ROOT
ATOM      1  N   UNL     1      -1.579   2.578   1.409  0.00  0.00    -0.285 NA
ATOM      2  C   UNL     1      -0.525   3.343   2.090  0.00  0.00    +0.090 C 
ATOM      3  C   UNL     1      -1.093   3.963   3.374  0.00  0.00    +0.053 C 
ATOM      4  C   UNL     1      -1.819   2.880   4.133  0.00  0.00    -0.016 A 
ATOM      5  C   UNL     1      -2.255   2.861   5.511  0.00  0.00    +0.003 A 
ATOM      6  C   UNL     1      -2.158   3.789   6.553  0.00  0.00    +0.010 A 
ATOM      7  C   UNL     1      -2.696   3.425   7.762  0.00  0.00    +0.001 A 
ATOM      8  C   UNL     1      -3.310   2.198   7.955  0.00  0.00    +0.002 A 
ATOM      9  C   UNL     1      -3.421   1.261   6.942  0.00  0.00    +0.026 A 
ATOM     10  C   UNL     1      -2.883   1.603   5.704  0.00  0.00    +0.047 A 
ATOM     11  N   UNL     1      -2.820   0.930   4.517  0.00  0.00    -0.356 N 
ATOM     12  H   UNL     1      -3.249  -0.080   4.433  0.00  0.00    +0.166 HD
ATOM     13  C   UNL     1      -2.183   1.700   3.582  0.00  0.00    +0.042 A 
ATOM     14  C   UNL     1      -1.904   1.343   2.141  0.00  0.00    +0.137 C 
ENDROOT
BRANCH  14  15
ATOM     15  C   UNL     1      -3.123   0.700   1.533  0.00  0.00    +0.011 A 
ATOM     16  C   UNL     1      -3.986   1.450   0.757  0.00  0.00    +0.008 A 
ATOM     17  C   UNL     1      -5.102   0.859   0.194  0.00  0.00    +0.000 A 
ATOM     18  C   UNL     1      -5.362  -0.480   0.416  0.00  0.00    +0.003 A 
ATOM     19  C   UNL     1      -4.504  -1.231   1.196  0.00  0.00    +0.039 A 
ATOM     20  C   UNL     1      -3.383  -0.642   1.756  0.00  0.00    +0.128 A 
ATOM     21  F   UNL     1      -2.543  -1.375   2.519  0.00  0.00    -0.205 F 
ENDBRANCH  14  15
BRANCH   1  22
ATOM     22  C   UNL     1      -1.201   2.282   0.021  0.00  0.00    +0.127 C 
BRANCH  22  26
ATOM     23  C   UNL     1       2.363   0.080  -0.020  0.00  0.00    +0.072 A 
ATOM     24  C   UNL     1       1.219  -0.660  -0.013  0.00  0.00    +0.031 A 
ATOM     25  C   UNL     1       0.002  -0.004   0.002  0.00  0.00    +0.014 A 
ATOM     26  C   UNL     1      -0.016   1.350   0.009  0.00  0.00    +0.006 A 
ATOM     27  S   UNL     1       1.724   1.747  -0.005  0.00  0.00    -0.077 S 
BRANCH  23  31
ATOM     28  C   UNL     1       6.127   0.080  -0.056  0.00  0.00    +0.109 C 
ATOM     29  C   UNL     1       4.694   0.548  -0.040  0.00  0.00    +0.214 C 
ATOM     30  O   UNL     1       4.444   1.734  -0.031  0.00  0.00    -0.276 OA
ATOM     31  N   UNL     1       3.692  -0.353  -0.035  0.00  0.00    -0.280 N 
ATOM     32  H   UNL     1       3.919  -1.429  -0.043  0.00  0.00    +0.155 HD
ENDBRANCH  23  31
ENDBRANCH  22  26
ENDBRANCH   1  22
TORSDOF 4
