REMARK  Name = ZINC53108377
REMARK  6 active torsions:
REMARK  status: ('A' for Active; 'I' for Inactive)
REMARK    1  A    between atoms: C_1  and  C_2
REMARK    2  A    between atoms: C_7  and  C_9
REMARK    3  A    between atoms: C_7  and  N_11
REMARK    4  A    between atoms: C_9  and  O_10
REMARK    5  A    between atoms: N_11  and  S_12
REMARK    6  A    between atoms: S_12  and  C_15
REMARK                            x       y       z     vdW  Elec       q    Type
REMARK                         _______ _______ _______ _____ _____    ______ ____
ROOT
ATOM      1  N   UNL     1       2.025   1.363   1.276  0.00  0.00    -0.182 NA
ATOM      2  H   UNL     1       1.217   1.558   1.776  0.00  0.00    +0.149 HD
ENDROOT
BRANCH   1   8
ATOM      3  C   UNL     1      -0.244   1.150   0.250  0.00  0.00    +0.007 C 
ATOM      4  C   UNL     1       0.100  -0.296  -0.113  0.00  0.00    -0.012 C 
ATOM      5  C   UNL     1       0.745  -0.334  -1.500  0.00  0.00    +0.003 C 
ATOM      6  C   UNL     1       2.023   0.507  -1.491  0.00  0.00    +0.002 C 
ATOM      7  C   UNL     1       2.999  -0.059  -0.458  0.00  0.00    +0.026 C 
ATOM      8  C   UNL     1       2.354  -0.021   0.928  0.00  0.00    +0.063 C 
ATOM      9  C   UNL     1       1.076  -0.863   0.919  0.00  0.00    +0.029 C 
BRANCH   8  10
ATOM     10  C   UNL     1       3.331  -0.588   1.961  0.00  0.00    +0.179 C 
BRANCH  10  11
ATOM     11  O   UNL     1       4.580   0.099   1.863  0.00  0.00    -0.393 OA
ATOM     12  H   UNL     1       5.248  -0.209   2.489  0.00  0.00    +0.209 HD
ENDBRANCH  10  11
ENDBRANCH   8  10
ENDBRANCH   1   8
BRANCH   1  13
ATOM     13  S   UNL     1       3.031   2.595   0.814  0.00  0.00    +0.060 S 
ATOM     14  O   UNL     1       3.386   2.343  -0.538  0.00  0.00    -0.153 OA
ATOM     15  O   UNL     1       2.409   3.804   1.227  0.00  0.00    -0.153 OA
BRANCH  13  16
ATOM     16  C   UNL     1       4.510   2.441   1.760  0.00  0.00    +0.120 A 
ATOM     17  C   UNL     1       5.712   2.185   1.127  0.00  0.00    +0.045 A 
ATOM     18  C   UNL     1       6.872   2.064   1.869  0.00  0.00    +0.020 A 
ATOM     19  C   UNL     1       6.830   2.200   3.246  0.00  0.00    +0.016 A 
ATOM     20  C   UNL     1       5.629   2.457   3.878  0.00  0.00    +0.018 A 
ATOM     21  C   UNL     1       4.469   2.583   3.135  0.00  0.00    +0.044 A 
ATOM     22 BR   UNL     1       2.826   2.941   4.000  0.00  0.00    -0.048 Br
ATOM     23 BR   UNL     1       8.516   1.713   1.004  0.00  0.00    -0.050 Br
ENDBRANCH  13  16
ENDBRANCH   1  13
TORSDOF 5
