REMARK  Name = ZINC62704833
REMARK  10 active torsions:
REMARK  status: ('A' for Active; 'I' for Inactive)
REMARK    1  A    between atoms: C_1  and  C_2
REMARK    2  A    between atoms: C_2  and  C_3
REMARK    3  A    between atoms: C_3  and  C_5
REMARK    4  A    between atoms: C_3  and  N_22
REMARK    5  A    between atoms: C_5  and  C_6
REMARK    6  A    between atoms: C_9  and  O_13
REMARK    7  A    between atoms: O_13  and  C_14
REMARK    8  A    between atoms: C_14  and  C_15
REMARK    9  A    between atoms: C_15  and  C_16
REMARK   10  A    between atoms: C_17  and  C_21
REMARK                            x       y       z     vdW  Elec       q    Type
REMARK                         _______ _______ _______ _____ _____    ______ ____
ROOT
ATOM      1  C   UNL     1      -2.824  -2.571   0.265  0.00  0.00    -0.048 A 
ATOM      2  C   UNL     1      -3.393  -2.708   1.518  0.00  0.00    +0.007 A 
ATOM      3  C   UNL     1      -4.686  -3.177   1.644  0.00  0.00    +0.047 A 
ATOM      4  C   UNL     1      -5.415  -3.512   0.512  0.00  0.00    +0.134 A 
ATOM      5  C   UNL     1      -4.842  -3.373  -0.745  0.00  0.00    +0.060 A 
ATOM      6  C   UNL     1      -3.550  -2.898  -0.866  0.00  0.00    +0.022 A 
ATOM      7 BR   UNL     1      -5.832  -3.829  -2.291  0.00  0.00    -0.047 Br
ENDROOT
BRANCH   1   8
ATOM      8  C   UNL     1      -1.413  -2.059   0.130  0.00  0.00    +0.019 C 
BRANCH   8   9
ATOM      9  C   UNL     1      -1.433  -0.534   0.013  0.00  0.00    -0.071 C 
BRANCH   9  10
ATOM     10  N   UNL     1      -2.107  -0.147  -1.234  0.00  0.00    +0.380 N 
ATOM     11  H   UNL     1      -1.610  -0.539  -2.020  0.00  0.00    -0.090 HD
ATOM     12  H   UNL     1      -3.054  -0.496  -1.227  0.00  0.00    -0.090 HD
ATOM     13  H   UNL     1      -2.120   0.859  -1.311  0.00  0.00    -0.090 HD
ENDBRANCH   9  10
BRANCH   9  15
ATOM     14  C   UNL     1      -0.019   1.526   0.010  0.00  0.00    +0.002 C 
ATOM     15  C   UNL     1       0.002  -0.004   0.002  0.00  0.00    -0.019 C 
ENDBRANCH   9  15
ENDBRANCH   8   9
ENDBRANCH   1   8
BRANCH   4  16
ATOM     16  O   UNL     1      -6.687  -3.974   0.634  0.00  0.00    -0.491 OA
BRANCH  16  17
ATOM     17  C   UNL     1      -7.211  -4.091   1.958  0.00  0.00    +0.234 C 
BRANCH  17  18
ATOM     18  C   UNL     1      -8.644  -4.624   1.895  0.00  0.00    +0.085 C 
BRANCH  18  19
ATOM     19  C   UNL     1      -9.196  -4.747   3.291  0.00  0.00    +0.015 A 
ATOM     20  C   UNL     1      -9.880  -3.841   4.036  0.00  0.00    +0.049 A 
ATOM     21  N   UNL     1     -10.249  -4.218   5.244  0.00  0.00    -0.252 NA
ATOM     22  C   UNL     1      -9.968  -5.413   5.701  0.00  0.00    +0.156 A 
ATOM     23  S   UNL     1      -9.139  -6.128   4.422  0.00  0.00    -0.080 S 
ATOM     24  C   UNL     1     -10.202  -2.467   3.507  0.00  0.00    +0.066 C 
ENDBRANCH  18  19
ENDBRANCH  17  18
ENDBRANCH  16  17
ENDBRANCH   4  16
TORSDOF 8
