REMARK  Name = ZINC39914233
REMARK  13 active torsions:
REMARK  status: ('A' for Active; 'I' for Inactive)
REMARK    1  A    between atoms: C_1  and  C_2
REMARK    2  A    between atoms: C_2  and  C_3
REMARK    3  A    between atoms: C_3  and  N_4
REMARK    4  A    between atoms: C_5  and  C_24
REMARK    5  A    between atoms: C_8  and  C_15
REMARK    6  A    between atoms: C_18  and  C_22
REMARK    7  A    between atoms: C_20  and  O_21
REMARK    8  A    between atoms: C_26  and  O_34
REMARK    9  A    between atoms: C_27  and  O_32
REMARK   10  A    between atoms: C_28  and  O_30
REMARK   11  A    between atoms: O_30  and  C_31
REMARK   12  A    between atoms: O_32  and  C_33
REMARK   13  A    between atoms: O_34  and  C_35
REMARK                            x       y       z     vdW  Elec       q    Type
REMARK                         _______ _______ _______ _____ _____    ______ ____
ROOT
ATOM      1  N   UNL     1       1.111  -2.195  -1.829  0.00  0.00    -0.285 N 
ATOM      2  C   UNL     1       1.973  -3.074  -1.028  0.00  0.00    +0.141 C 
ATOM      3  C   UNL     1       1.515  -4.478  -1.312  0.00  0.00    +0.035 A 
ATOM      4  C   UNL     1       1.682  -5.845  -1.066  0.00  0.00    +0.102 A 
ATOM      5  N   UNL     1       0.782  -6.488  -1.785  0.00  0.00    -0.173 NA
ATOM      6  N   UNL     1       0.064  -5.662  -2.459  0.00  0.00    -0.272 N 
ATOM      7  H   UNL     1      -0.659  -5.911  -3.056  0.00  0.00    +0.189 HD
ATOM      8  C   UNL     1       0.470  -4.382  -2.210  0.00  0.00    +0.126 A 
ATOM      9  C   UNL     1       0.239  -2.963  -2.507  0.00  0.00    +0.265 C 
ATOM     10  O   UNL     1      -0.618  -2.542  -3.260  0.00  0.00    -0.268 OA
ENDROOT
BRANCH   4  11
ATOM     11  C   UNL     1       2.687  -6.460  -0.163  0.00  0.00    +0.045 A 
ATOM     12  C   UNL     1       3.518  -5.653   0.610  0.00  0.00    +0.034 A 
ATOM     13  C   UNL     1       4.452  -6.229   1.448  0.00  0.00    +0.045 A 
ATOM     14  C   UNL     1       4.564  -7.607   1.523  0.00  0.00    -0.029 A 
ATOM     15  C   UNL     1       3.744  -8.416   0.760  0.00  0.00    +0.050 A 
ATOM     16  C   UNL     1       2.799  -7.850  -0.081  0.00  0.00    +0.126 A 
ATOM     17  C   UNL     1       5.586  -8.228   2.441  0.00  0.00    +0.045 C 
ATOM     18 CL   UNL     1       5.488  -5.223   2.412  0.00  0.00    -0.083 Cl
BRANCH  16  19
ATOM     19  O   UNL     1       1.988  -8.645  -0.828  0.00  0.00    -0.506 OA
ATOM     20  H   UNL     1       2.347  -8.866  -1.698  0.00  0.00    +0.292 HD
ENDBRANCH  16  19
ENDBRANCH   4  11
BRANCH   2  21
ATOM     21  C   UNL     1       1.813  -2.761   0.438  0.00  0.00    -0.015 A 
ATOM     22  C   UNL     1       0.560  -2.805   1.019  0.00  0.00    +0.055 A 
ATOM     23  C   UNL     1       0.408  -2.517   2.367  0.00  0.00    +0.165 A 
ATOM     24  C   UNL     1       1.519  -2.185   3.134  0.00  0.00    +0.204 A 
ATOM     25  C   UNL     1       2.777  -2.142   2.546  0.00  0.00    +0.165 A 
ATOM     26  C   UNL     1       2.921  -2.436   1.198  0.00  0.00    +0.055 A 
BRANCH  25  27
ATOM     27  O   UNL     1       3.867  -1.818   3.292  0.00  0.00    -0.491 OA
ATOM     28  C   UNL     1       5.108  -1.673   2.598  0.00  0.00    +0.277 C 
ENDBRANCH  25  27
BRANCH  24  29
ATOM     29  O   UNL     1       1.375  -1.902   4.457  0.00  0.00    -0.488 OA
ATOM     30  C   UNL     1       1.479  -2.996   5.370  0.00  0.00    +0.277 C 
ENDBRANCH  24  29
BRANCH  23  31
ATOM     31  O   UNL     1      -0.825  -2.560   2.938  0.00  0.00    -0.491 OA
ATOM     32  C   UNL     1      -1.921  -2.908   2.090  0.00  0.00    +0.277 C 
ENDBRANCH  23  31
ENDBRANCH   2  21
BRANCH   1  33
ATOM     33  C   UNL     1       1.184  -0.733  -1.877  0.00  0.00    +0.109 C 
BRANCH  33  35
ATOM     34  C   UNL     1       0.357   1.386  -0.844  0.00  0.00    +0.005 C 
ATOM     35  C   UNL     1       0.281  -0.141  -0.794  0.00  0.00    +0.016 C 
ENDBRANCH  33  35
ENDBRANCH   1  33
TORSDOF 8
