REMARK  Name = ZINC39612095
REMARK  9 active torsions:
REMARK  status: ('A' for Active; 'I' for Inactive)
REMARK    1  A    between atoms: C_4  and  N_34
REMARK    2  A    between atoms: C_5  and  C_7
REMARK    3  A    between atoms: C_7  and  O_8
REMARK    4  A    between atoms: O_8  and  C_9
REMARK    5  A    between atoms: C_9  and  C_11
REMARK    6  A    between atoms: C_11  and  C_13
REMARK    7  A    between atoms: C_11  and  N_24
REMARK    8  A    between atoms: C_13  and  C_14
REMARK    9  A    between atoms: C_25  and  C_27
REMARK                            x       y       z     vdW  Elec       q    Type
REMARK                         _______ _______ _______ _____ _____    ______ ____
ROOT
ATOM      1  C   UNL     1      -1.654  -4.608  -0.004  0.00  0.00    +0.186 C 
ENDROOT
BRANCH   1   2
ATOM      2  N   UNL     1      -1.557  -6.070  -0.013  0.00  0.00    -0.298 N 
ATOM      3  C   UNL     1      -2.563  -6.815   0.486  0.00  0.00    +0.246 C 
ATOM      4  O   UNL     1      -3.551  -6.274   0.945  0.00  0.00    -0.270 OA
ATOM      5  H   UNL     1      -0.770  -6.502  -0.379  0.00  0.00    +0.150 HD
BRANCH   3   6
ATOM      6  C   UNL     1      -2.466  -8.290   0.477  0.00  0.00    +0.055 A 
ATOM      7  C   UNL     1      -1.331  -8.914  -0.043  0.00  0.00    +0.014 A 
ATOM      8  C   UNL     1      -1.246 -10.291  -0.049  0.00  0.00    +0.001 A 
ATOM      9  C   UNL     1      -2.283 -11.054   0.460  0.00  0.00    +0.001 A 
ATOM     10  C   UNL     1      -3.411 -10.443   0.977  0.00  0.00    +0.021 A 
ATOM     11  C   UNL     1      -3.507  -9.065   0.994  0.00  0.00    +0.053 A 
ATOM     12 CL   UNL     1      -4.920  -8.299   1.650  0.00  0.00    -0.083 Cl
ENDBRANCH   3   6
ENDBRANCH   1   2
BRANCH   1  13
ATOM     13  C   UNL     1      -0.269  -4.013  -0.015  0.00  0.00    +0.328 C 
ATOM     14  O   UNL     1       0.699  -4.736  -0.029  0.00  0.00    -0.249 OA
BRANCH  13  15
ATOM     15  O   UNL     1      -0.112  -2.680  -0.009  0.00  0.00    -0.459 OA
BRANCH  15  16
ATOM     16  C   UNL     1       1.229  -2.186  -0.020  0.00  0.00    +0.270 C 
BRANCH  16  21
ATOM     17  C   UNL     1      -0.017   1.378   0.010  0.00  0.00    +0.001 A 
ATOM     18  C   UNL     1       1.171   2.085   0.002  0.00  0.00    +0.002 A 
ATOM     19  C   UNL     1       2.377   1.411  -0.013  0.00  0.00    +0.033 A 
ATOM     20  C   UNL     1       2.396   0.028  -0.020  0.00  0.00    +0.133 A 
ATOM     21  C   UNL     1       1.209  -0.679  -0.012  0.00  0.00    +0.020 A 
ATOM     22  C   UNL     1       0.002  -0.004   0.002  0.00  0.00    +0.009 A 
BRANCH  20  23
ATOM     23  N   UNL     1       3.688  -0.694  -0.037  0.00  0.00    +0.057 N 
ATOM     24  O   UNL     1       4.726  -0.076  -0.045  0.00  0.00    -0.126 OA
ATOM     25  O   UNL     1       3.704  -1.903  -0.043  0.00  0.00    -0.126 OA
ENDBRANCH  20  23
ENDBRANCH  16  21
ENDBRANCH  15  16
ENDBRANCH  13  15
ENDBRANCH   1  13
BRANCH   1  26
ATOM     26  C   UNL     1      -2.420  -4.140  -1.242  0.00  0.00    +0.071 C 
BRANCH  26  27
ATOM     27  C   UNL     1      -3.842  -4.634  -1.170  0.00  0.00    -0.020 A 
ATOM     28  C   UNL     1      -4.327  -5.755  -1.726  0.00  0.00    +0.087 A 
ATOM     29  N   UNL     1      -5.662  -5.874  -1.448  0.00  0.00    -0.360 N 
ATOM     30  H   UNL     1      -6.229  -6.604  -1.743  0.00  0.00    +0.165 HD
ATOM     31  C   UNL     1      -6.079  -4.805  -0.687  0.00  0.00    +0.047 A 
ATOM     32  C   UNL     1      -4.956  -3.984  -0.475  0.00  0.00    +0.003 A 
ATOM     33  C   UNL     1      -5.080  -2.815   0.278  0.00  0.00    +0.010 A 
ATOM     34  C   UNL     1      -6.293  -2.476   0.808  0.00  0.00    +0.001 A 
ATOM     35  C   UNL     1      -7.403  -3.284   0.605  0.00  0.00    +0.002 A 
ATOM     36  C   UNL     1      -7.304  -4.437  -0.143  0.00  0.00    +0.026 A 
ENDBRANCH  26  27
ENDBRANCH   1  26
TORSDOF 9
