REMARK  Name = ZINC65002494
REMARK  13 active torsions:
REMARK  status: ('A' for Active; 'I' for Inactive)
REMARK    1  A    between atoms: C_1  and  C_2
REMARK    2  A    between atoms: C_2  and  C_3
REMARK    3  A    between atoms: C_3  and  N_4
REMARK    4  A    between atoms: N_4  and  C_5
REMARK    5  A    between atoms: C_5  and  C_6
REMARK    6  A    between atoms: C_6  and  C_7
REMARK    7  A    between atoms: C_8  and  C_10
REMARK    8  A    between atoms: C_10  and  O_11
REMARK    9  A    between atoms: O_11  and  C_12
REMARK   10  A    between atoms: C_15  and  C_20
REMARK   11  A    between atoms: C_17  and  O_18
REMARK   12  A    between atoms: O_18  and  C_19
REMARK   13  A    between atoms: C_32  and  C_36
REMARK                            x       y       z     vdW  Elec       q    Type
REMARK                         _______ _______ _______ _____ _____    ______ ____
ROOT
ATOM      1  C   UNL     1       3.137  -5.941   0.037  0.00  0.00    +0.163 A 
ATOM      2  C   UNL     1       2.192  -6.795  -0.514  0.00  0.00    +0.050 A 
ATOM      3  C   UNL     1       2.363  -8.161  -0.436  0.00  0.00    +0.015 A 
ATOM      4  C   UNL     1       3.489  -8.688   0.200  0.00  0.00    +0.021 A 
ATOM      5  C   UNL     1       4.441  -7.829   0.755  0.00  0.00    +0.061 A 
ATOM      6  C   UNL     1       4.266  -6.461   0.668  0.00  0.00    +0.162 A 
ENDROOT
BRANCH   4   7
ATOM      7  C   UNL     1       3.674 -10.150   0.286  0.00  0.00    +0.142 A 
ATOM      8  N   UNL     1       2.739 -10.982  -0.266  0.00  0.00    -0.306 N 
ATOM      9  H   UNL     1       1.963 -10.600  -0.707  0.00  0.00    +0.170 HD
ATOM     10  C   UNL     1       2.874 -12.320  -0.208  0.00  0.00    +0.260 A 
ATOM     11  O   UNL     1       2.033 -13.048  -0.705  0.00  0.00    -0.267 OA
ATOM     12  C   UNL     1       4.023 -12.875   0.445  0.00  0.00    +0.075 A 
ATOM     13  C   UNL     1       4.371 -14.284   0.622  0.00  0.00    -0.023 A 
ATOM     14  C   UNL     1       5.518 -14.554   1.280  0.00  0.00    -0.004 A 
ATOM     15  S   UNL     1       6.193 -12.968   1.697  0.00  0.00    -0.073 S 
ATOM     16  C   UNL     1       4.930 -11.946   0.983  0.00  0.00    +0.116 A 
ATOM     17  N   UNL     1       4.740 -10.636   0.887  0.00  0.00    -0.222 NA
ATOM     18  C   UNL     1       6.092 -15.903   1.588  0.00  0.00    +0.046 C 
ATOM     19  C   UNL     1       5.373 -16.945   0.720  0.00  0.00    -0.009 C 
ATOM     20  C   UNL     1       3.863 -16.708   0.820  0.00  0.00    +0.008 C 
ATOM     21  C   UNL     1       3.491 -15.414   0.095  0.00  0.00    +0.037 C 
ATOM     22  C   UNL     1       5.709 -18.351   1.220  0.00  0.00    +0.008 C 
ENDBRANCH   4   7
BRANCH   6  23
ATOM     23  O   UNL     1       5.193  -5.621   1.202  0.00  0.00    -0.491 OA
ATOM     24  C   UNL     1       6.325  -6.222   1.833  0.00  0.00    +0.277 C 
ENDBRANCH   6  23
BRANCH   1  25
ATOM     25  O   UNL     1       2.963  -4.596  -0.043  0.00  0.00    -0.479 OA
BRANCH  25  26
ATOM     26  C   UNL     1       1.784  -4.132  -0.703  0.00  0.00    +0.324 C 
BRANCH  26  28
ATOM     27  N   UNL     1       0.738  -1.962  -1.265  0.00  0.00    -0.299 N 
ATOM     28  C   UNL     1       1.764  -2.626  -0.695  0.00  0.00    +0.253 C 
ATOM     29  O   UNL     1       2.670  -2.010  -0.175  0.00  0.00    -0.272 OA
BRANCH  27  30
ATOM     30  C   UNL     1       0.718  -0.497  -1.257  0.00  0.00    +0.107 C 
BRANCH  30  32
ATOM     31  C   UNL     1      -0.019   1.526   0.010  0.00  0.00    +0.005 C 
ATOM     32  C   UNL     1       0.002  -0.004   0.002  0.00  0.00    +0.016 C 
ENDBRANCH  30  32
ENDBRANCH  27  30
BRANCH  27  33
ATOM     33  C   UNL     1      -0.357  -2.706  -1.893  0.00  0.00    +0.107 C 
BRANCH  33  34
ATOM     34  C   UNL     1      -0.029  -2.949  -3.367  0.00  0.00    +0.016 C 
ATOM     35  C   UNL     1      -1.172  -3.726  -4.023  0.00  0.00    +0.005 C 
ENDBRANCH  33  34
ENDBRANCH  27  33
ENDBRANCH  26  28
ENDBRANCH  25  26
ENDBRANCH   1  25
TORSDOF 9
