REMARK  Name = ZINC04545536
REMARK  7 active torsions:
REMARK  status: ('A' for Active; 'I' for Inactive)
REMARK    1  A    between atoms: C_1  and  C_2
REMARK    2  A    between atoms: C_2  and  C_3
REMARK    3  A    between atoms: C_3  and  C_4
REMARK    4  A    between atoms: C_3  and  C_5
REMARK    5  A    between atoms: C_3  and  C_6
REMARK    6  A    between atoms: C_15  and  O_27
REMARK    7  A    between atoms: C_17  and  C_20
REMARK                            x       y       z     vdW  Elec       q    Type
REMARK                         _______ _______ _______ _____ _____    ______ ____
ROOT
ATOM      1  C   UNL     1      -1.413  -2.063   0.004  0.00  0.00    -0.000 C 
ATOM      2  C   UNL     1      -2.848  -2.596   0.022  0.00  0.00    +0.009 C 
ATOM      3  C   UNL     1      -2.847  -4.105  -0.234  0.00  0.00    +0.037 C 
ATOM      4  C   UNL     1      -1.881  -4.765   0.739  0.00  0.00    -0.023 A 
ATOM      5  C   UNL     1      -0.932  -4.045   1.379  0.00  0.00    -0.004 A 
ATOM      6  S   UNL     1      -0.070  -5.223   2.384  0.00  0.00    -0.078 S 
ATOM      7  C   UNL     1      -0.912  -6.594   1.981  0.00  0.00    +0.080 A 
ATOM      8  C   UNL     1      -1.885  -6.180   1.064  0.00  0.00    +0.068 A 
ATOM      9  C   UNL     1      -2.812  -7.213   0.534  0.00  0.00    +0.220 C 
ATOM     10  N   UNL     1      -2.512  -8.465   0.753  0.00  0.00    -0.223 NA
ATOM     11  C   UNL     1      -1.300  -8.919   1.424  0.00  0.00    +0.224 C 
ATOM     12  N   UNL     1      -0.792  -7.909   2.370  0.00  0.00    -0.313 N 
ATOM     13  C   UNL     1      -0.676  -2.575   1.251  0.00  0.00    +0.046 C 
ATOM     14  H   UNL     1      -0.395  -8.157   3.220  0.00  0.00    +0.149 HD
ENDROOT
BRANCH  11  15
ATOM     15  C   UNL     1      -0.241  -9.200   0.390  0.00  0.00    -0.004 A 
ATOM     16  C   UNL     1       1.095  -9.043   0.709  0.00  0.00    +0.007 A 
ATOM     17  C   UNL     1       2.068  -9.300  -0.239  0.00  0.00    +0.002 A 
ATOM     18  C   UNL     1       1.705  -9.714  -1.507  0.00  0.00    +0.020 A 
ATOM     19  C   UNL     1       0.368  -9.871  -1.827  0.00  0.00    +0.041 A 
ATOM     20  C   UNL     1      -0.604  -9.620  -0.875  0.00  0.00    +0.027 A 
ATOM     21 CL   UNL     1      -0.088 -10.392  -3.419  0.00  0.00    -0.084 Cl
ENDBRANCH  11  15
BRANCH   1  22
ATOM     22  C   UNL     1      -1.433  -0.534   0.013  0.00  0.00    -0.032 C 
ATOM     23  C   UNL     1      -2.149  -0.040   1.272  0.00  0.00    +0.011 C 
ATOM     24  C   UNL     1      -2.173  -0.027  -1.227  0.00  0.00    +0.011 C 
BRANCH  22  26
ATOM     25  C   UNL     1      -0.019   1.526   0.010  0.00  0.00    +0.004 C 
ATOM     26  C   UNL     1       0.002  -0.004   0.002  0.00  0.00    +0.003 C 
ENDBRANCH  22  26
ENDBRANCH   1  22
BRANCH   9  27
ATOM     27  O   UNL     1      -3.927  -6.870  -0.151  0.00  0.00    -0.492 OA
ATOM     28  H   UNL     1      -4.454  -7.624  -0.448  0.00  0.00    +0.294 HD
ENDBRANCH   9  27
TORSDOF 4
