REMARK  Name = ZINC08479312
REMARK  9 active torsions:
REMARK  status: ('A' for Active; 'I' for Inactive)
REMARK    1  A    between atoms: C_1  and  C_2
REMARK    2  A    between atoms: C_2  and  C_3
REMARK    3  A    between atoms: C_2  and  C_4
REMARK    4  A    between atoms: C_9  and  N_10
REMARK    5  A    between atoms: C_14  and  S_15
REMARK    6  A    between atoms: S_15  and  C_16
REMARK    7  A    between atoms: C_16  and  C_17
REMARK    8  A    between atoms: N_19  and  C_20
REMARK    9  A    between atoms: C_21  and  C_25
REMARK                            x       y       z     vdW  Elec       q    Type
REMARK                         _______ _______ _______ _____ _____    ______ ____
ROOT
ATOM      1  S   UNL     1      -1.413  -1.055   0.010  0.00  0.00    -0.078 S 
ENDROOT
BRANCH   1   6
ATOM      2  N   UNL     1       1.302  -0.416  -0.013  0.00  0.00    -0.294 N 
ATOM      3  C   UNL     1       2.083   0.720  -0.014  0.00  0.00    +0.113 A 
ATOM      4  C   UNL     1       1.246   1.771  -0.000  0.00  0.00    +0.131 A 
ATOM      5  N   UNL     1      -0.016   1.308   0.009  0.00  0.00    -0.230 NA
ATOM      6  C   UNL     1       0.002  -0.004   0.002  0.00  0.00    +0.174 A 
BRANCH   2  12
ATOM      7  C   UNL     1       1.493  -2.558  -1.115  0.00  0.00    -0.021 A 
ATOM      8  C   UNL     1       1.943  -3.864  -1.124  0.00  0.00    +0.006 A 
ATOM      9  C   UNL     1       2.656  -4.359  -0.048  0.00  0.00    +0.000 A 
ATOM     10  C   UNL     1       2.921  -3.547   1.040  0.00  0.00    +0.002 A 
ATOM     11  C   UNL     1       2.479  -2.239   1.053  0.00  0.00    +0.026 A 
ATOM     12  C   UNL     1       1.758  -1.742  -0.025  0.00  0.00    +0.052 A 
BRANCH   7  14
ATOM     13  C   UNL     1       1.575  -2.107  -3.552  0.00  0.00    +0.012 C 
ATOM     14  C   UNL     1       0.716  -2.020  -2.289  0.00  0.00    +0.015 C 
ATOM     15  C   UNL     1      -0.557  -2.847  -2.481  0.00  0.00    +0.012 C 
ENDBRANCH   7  14
ENDBRANCH   2  12
ENDBRANCH   1   6
BRANCH   1  16
ATOM     16  C   UNL     1      -2.728   0.189   0.029  0.00  0.00    +0.173 C 
BRANCH  16  17
ATOM     17  C   UNL     1      -4.069  -0.498   0.039  0.00  0.00    +0.228 C 
ATOM     18  O   UNL     1      -4.129  -1.710   0.033  0.00  0.00    -0.275 OA
ATOM     19  N   UNL     1      -5.200   0.233   0.053  0.00  0.00    -0.279 N 
ATOM     20  H   UNL     1      -5.145   1.332   0.059  0.00  0.00    +0.155 HD
BRANCH  19  21
ATOM     21  C   UNL     1      -6.435  -0.399   0.062  0.00  0.00    +0.084 A 
ATOM     22  C   UNL     1      -7.699   0.176   0.083  0.00  0.00    +0.065 A 
ATOM     23  C   UNL     1      -8.824  -0.728   0.084  0.00  0.00    +0.022 A 
ATOM     24  C   UNL     1      -8.553  -2.046   0.075  0.00  0.00    +0.048 A 
ATOM     25  S   UNL     1      -6.773  -2.097   0.058  0.00  0.00    -0.081 S 
BRANCH  22  26
ATOM     26  C   UNL     1      -7.882   1.631   0.099  0.00  0.00    +0.244 C 
ATOM     27  O   UNL     1      -6.912   2.366   0.095  0.00  0.00    -0.270 OA
ATOM     28  N   UNL     1      -9.124   2.154   0.119  0.00  0.00    -0.325 N 
ATOM     29  H   UNL     1      -9.261   3.245   0.131  0.00  0.00    +0.145 HD
ATOM     30  H   UNL     1     -10.001   1.490   0.123  0.00  0.00    +0.145 HD
ENDBRANCH  22  26
ENDBRANCH  19  21
ENDBRANCH  16  17
ENDBRANCH   1  16
TORSDOF 7
