REMARK  Name = ZINC13637140
REMARK  9 active torsions:
REMARK  status: ('A' for Active; 'I' for Inactive)
REMARK    1  A    between atoms: C_1  and  C_2
REMARK    2  A    between atoms: C_2  and  C_31
REMARK    3  A    between atoms: C_6  and  N_19
REMARK    4  A    between atoms: N_10  and  C_11
REMARK    5  A    between atoms: C_14  and  O_17
REMARK    6  A    between atoms: O_17  and  C_18
REMARK    7  A    between atoms: N_19  and  C_20
REMARK    8  A    between atoms: C_23  and  O_26
REMARK    9  A    between atoms: O_26  and  C_27
REMARK                            x       y       z     vdW  Elec       q    Type
REMARK                         _______ _______ _______ _____ _____    ______ ____
ROOT
ATOM      1  C   UNL     1      -2.204   3.636   0.799  0.00  0.00    +0.011 C 
ATOM      2  C   UNL     1      -1.467   2.299   0.897  0.00  0.00    -0.022 C 
ATOM      3  C   UNL     1      -0.337   2.265  -0.129  0.00  0.00    +0.063 C 
ATOM      4  C   UNL     1      -0.878   2.276  -1.531  0.00  0.00    +0.059 A 
ATOM      5  C   UNL     1      -2.182   1.858  -1.817  0.00  0.00    +0.079 A 
ATOM      6  C   UNL     1      -2.628   1.881  -3.156  0.00  0.00    +0.139 A 
ATOM      7  N   UNL     1      -1.789   2.305  -4.095  0.00  0.00    -0.198 NA
ATOM      8  C   UNL     1      -0.563   2.695  -3.778  0.00  0.00    +0.221 A 
ATOM      9  N   UNL     1      -0.113   2.684  -2.529  0.00  0.00    -0.218 NA
ATOM     10  N   UNL     1       0.276   3.131  -4.782  0.00  0.00    -0.284 N 
ATOM     11  C   UNL     1      -3.067   1.406  -0.742  0.00  0.00    +0.169 C 
ATOM     12  O   UNL     1      -4.254   1.240  -0.933  0.00  0.00    -0.292 OA
ATOM     13  C   UNL     1      -2.448   1.153   0.618  0.00  0.00    +0.086 C 
ATOM     14  C   UNL     1      -0.884   2.140   2.303  0.00  0.00    +0.011 C 
ATOM     15  H   UNL     1      -0.006   3.072  -5.709  0.00  0.00    +0.155 HD
ENDROOT
BRANCH  10  16
ATOM     16  C   UNL     1       1.534   3.657  -4.465  0.00  0.00    +0.034 A 
ATOM     17  C   UNL     1       2.200   3.225  -3.325  0.00  0.00    +0.027 A 
ATOM     18  C   UNL     1       3.443   3.740  -3.016  0.00  0.00    +0.047 A 
ATOM     19  C   UNL     1       4.022   4.697  -3.837  0.00  0.00    +0.120 A 
ATOM     20  C   UNL     1       3.355   5.133  -4.972  0.00  0.00    +0.047 A 
ATOM     21  C   UNL     1       2.114   4.615  -5.286  0.00  0.00    +0.027 A 
BRANCH  19  22
ATOM     22  O   UNL     1       5.244   5.208  -3.529  0.00  0.00    -0.495 OA
ATOM     23  C   UNL     1       5.923   4.636  -2.409  0.00  0.00    +0.277 C 
ENDBRANCH  19  22
ENDBRANCH  10  16
BRANCH   6  24
ATOM     24  N   UNL     1      -3.904   1.472  -3.481  0.00  0.00    -0.299 N 
ATOM     25  H   UNL     1      -4.557   1.317  -2.781  0.00  0.00    +0.154 HD
BRANCH  24  26
ATOM     26  C   UNL     1      -4.257   1.280  -4.822  0.00  0.00    +0.033 A 
ATOM     27  C   UNL     1      -3.351   0.704  -5.704  0.00  0.00    +0.027 A 
ATOM     28  C   UNL     1      -3.701   0.511  -7.025  0.00  0.00    +0.047 A 
ATOM     29  C   UNL     1      -4.954   0.902  -7.475  0.00  0.00    +0.120 A 
ATOM     30  C   UNL     1      -5.857   1.481  -6.597  0.00  0.00    +0.047 A 
ATOM     31  C   UNL     1      -5.511   1.671  -5.274  0.00  0.00    +0.027 A 
BRANCH  29  32
ATOM     32  O   UNL     1      -5.296   0.716  -8.778  0.00  0.00    -0.495 OA
ATOM     33  C   UNL     1      -4.285   0.202  -9.648  0.00  0.00    +0.277 C 
ENDBRANCH  29  32
ENDBRANCH  24  26
ENDBRANCH   6  24
TORSDOF 5
