REMARK  Name = ZINC20243755
REMARK  10 active torsions:
REMARK  status: ('A' for Active; 'I' for Inactive)
REMARK    1  A    between atoms: C_1  and  C_2
REMARK    2  A    between atoms: C_6  and  N_8
REMARK    3  A    between atoms: C_9  and  C_31
REMARK    4  A    between atoms: C_10  and  C_15
REMARK    5  A    between atoms: C_12  and  C_13
REMARK    6  A    between atoms: N_16  and  N_17
REMARK    7  A    between atoms: C_18  and  C_20
REMARK    8  A    between atoms: C_20  and  C_22
REMARK    9  A    between atoms: C_20  and  S_23
REMARK   10  A    between atoms: S_23  and  C_24
REMARK                            x       y       z     vdW  Elec       q    Type
REMARK                         _______ _______ _______ _____ _____    ______ ____
ROOT
ATOM      1  C   UNL     1      -0.188  -3.889   6.049  0.00  0.00    +0.141 C 
ATOM      2  N   UNL     1       0.016  -4.632   7.094  0.00  0.00    -0.188 NA
ENDROOT
BRANCH   1   5
ATOM      3  N   UNL     1       1.800  -1.173   4.657  0.00  0.00    -0.316 N 
ATOM      4  C   UNL     1       0.708  -1.983   4.628  0.00  0.00    +0.031 A 
ATOM      5  C   UNL     1       0.782  -2.839   5.690  0.00  0.00    +0.030 A 
ATOM      6  C   UNL     1       2.020  -2.505   6.402  0.00  0.00    +0.048 A 
ATOM      7  C   UNL     1       2.592  -1.493   5.723  0.00  0.00    +0.036 A 
ATOM      8  C   UNL     1       3.893  -0.821   6.083  0.00  0.00    +0.065 C 
ATOM      9 BR   UNL     1       2.686  -3.338   7.963  0.00  0.00    -0.048 Br
ATOM     10  C   UNL     1      -0.395  -1.943   3.602  0.00  0.00    +0.064 C 
BRANCH   3  16
ATOM     11  C   UNL     1       2.397   3.603   3.646  0.00  0.00    +0.044 C 
ATOM     12  C   UNL     1       2.371   2.161   3.209  0.00  0.00    -0.048 A 
ATOM     13  C   UNL     1       2.618   1.834   1.889  0.00  0.00    +0.003 A 
ATOM     14  C   UNL     1       2.596   0.512   1.485  0.00  0.00    +0.002 A 
ATOM     15  C   UNL     1       2.325  -0.487   2.400  0.00  0.00    +0.026 A 
ATOM     16  C   UNL     1       2.075  -0.162   3.726  0.00  0.00    +0.047 A 
ATOM     17  C   UNL     1       2.105   1.167   4.130  0.00  0.00    +0.029 A 
ENDBRANCH   3  16
ENDBRANCH   1   5
BRANCH   2  18
ATOM     18  N   UNL     1      -0.907  -5.629   7.435  0.00  0.00    -0.206 N 
ATOM     19  C   UNL     1      -0.695  -6.401   8.520  0.00  0.00    +0.245 C 
ATOM     20  O   UNL     1       0.295  -6.231   9.201  0.00  0.00    -0.273 OA
ATOM     21  H   UNL     1      -1.698  -5.765   6.891  0.00  0.00    +0.177 HD
BRANCH  19  22
ATOM     22  C   UNL     1      -1.687  -7.474   8.887  0.00  0.00    +0.136 C 
ATOM     23  C   UNL     1      -2.875  -6.842   9.616  0.00  0.00    +0.029 C 
BRANCH  22  24
ATOM     24  S   UNL     1      -0.889  -8.689   9.972  0.00  0.00    -0.113 S 
BRANCH  24  25
ATOM     25  C   UNL     1       0.270  -9.501   8.923  0.00  0.00    +0.009 A 
ATOM     26  C   UNL     1       0.299  -9.213   7.564  0.00  0.00    +0.016 A 
ATOM     27  C   UNL     1       1.209  -9.851   6.744  0.00  0.00    +0.021 A 
ATOM     28  C   UNL     1       2.092 -10.776   7.275  0.00  0.00    +0.041 A 
ATOM     29  C   UNL     1       2.066 -11.064   8.628  0.00  0.00    +0.021 A 
ATOM     30  C   UNL     1       1.162 -10.425   9.454  0.00  0.00    +0.016 A 
ATOM     31 CL   UNL     1       3.234 -11.576   6.241  0.00  0.00    -0.084 Cl
ENDBRANCH  24  25
ENDBRANCH  22  24
ENDBRANCH  19  22
ENDBRANCH   2  18
TORSDOF 6
