REMARK  Name = ZINC08695843
REMARK  12 active torsions:
REMARK  status: ('A' for Active; 'I' for Inactive)
REMARK    1  A    between atoms: C_1  and  N_2
REMARK    2  A    between atoms: N_2  and  C_3
REMARK    3  A    between atoms: N_2  and  C_4
REMARK    4  A    between atoms: C_7  and  N_10
REMARK    5  A    between atoms: C_11  and  C_13
REMARK    6  A    between atoms: C_13  and  C_15
REMARK    7  A    between atoms: C_13  and  N_22
REMARK    8  A    between atoms: N_22  and  C_23
REMARK    9  A    between atoms: C_23  and  C_24
REMARK   10  A    between atoms: C_26  and  C_29
REMARK   11  A    between atoms: C_35  and  C_37
REMARK   12  A    between atoms: C_37  and  N_38
REMARK                            x       y       z     vdW  Elec       q    Type
REMARK                         _______ _______ _______ _____ _____    ______ ____
ROOT
ATOM      1  N   UNL     1      -0.345  -0.328   0.340  0.00  0.00    -0.282 N 
ATOM      2  C   UNL     1      -0.685   0.799  -0.316  0.00  0.00    +0.238 C 
ATOM      3  O   UNL     1       0.144   1.391  -0.974  0.00  0.00    -0.274 OA
ENDROOT
BRANCH   1   4
ATOM      4  C   UNL     1      -1.315  -0.982   1.223  0.00  0.00    +0.166 C 
BRANCH   4   5
ATOM      5  C   UNL     1      -2.482  -1.516   0.390  0.00  0.00    +0.023 C 
ATOM      6  C   UNL     1      -3.404  -2.362   1.278  0.00  0.00    +0.010 C 
ATOM      7  C   UNL     1      -4.649  -2.733   0.469  0.00  0.00    +0.027 C 
ATOM      8  C   UNL     1      -4.250  -3.289  -0.867  0.00  0.00    -0.031 C 
ATOM      9  C   UNL     1      -3.077  -3.142  -1.393  0.00  0.00    -0.031 C 
ATOM     10  C   UNL     1      -1.947  -2.399  -0.739  0.00  0.00    +0.032 C 
ENDBRANCH   4   5
BRANCH   4  12
ATOM     11  N   UNL     1      -1.103   1.109   2.526  0.00  0.00    -0.284 N 
ATOM     12  C   UNL     1      -1.830   0.013   2.230  0.00  0.00    +0.238 C 
ATOM     13  O   UNL     1      -2.898  -0.171   2.774  0.00  0.00    -0.273 OA
ATOM     14  H   UNL     1      -0.286   1.297   2.038  0.00  0.00    +0.155 HD
BRANCH  11  18
ATOM     15  C   UNL     1      -2.368   3.695   5.544  0.00  0.00    +0.029 A 
ATOM     16  C   UNL     1      -3.303   3.060   4.737  0.00  0.00    +0.025 A 
ATOM     17  C   UNL     1      -2.884   2.204   3.738  0.00  0.00    +0.025 A 
ATOM     18  C   UNL     1      -1.528   1.979   3.540  0.00  0.00    +0.034 A 
ATOM     19  C   UNL     1      -0.594   2.610   4.350  0.00  0.00    +0.025 A 
ATOM     20  C   UNL     1      -1.012   3.470   5.346  0.00  0.00    +0.025 A 
BRANCH  15  22
ATOM     21  C   UNL     1      -4.221   4.704   6.849  0.00  0.00    +0.129 C 
ATOM     22  N   UNL     1      -2.792   4.562   6.557  0.00  0.00    -0.336 N 
ATOM     23  C   UNL     1      -1.808   5.327   7.327  0.00  0.00    +0.129 C 
ENDBRANCH  15  22
ENDBRANCH  11  18
ENDBRANCH   4  12
ENDBRANCH   1   4
BRANCH   1  24
ATOM     24  C   UNL     1       0.993  -0.898   0.172  0.00  0.00    +0.171 C 
BRANCH  24  25
ATOM     25  C   UNL     1       1.922  -0.316   1.206  0.00  0.00    +0.096 A 
ATOM     26  N   UNL     1       2.182  -0.753   2.414  0.00  0.00    -0.242 NA
ATOM     27  C   UNL     1       3.034  -0.124   3.208  0.00  0.00    +0.078 A 
ATOM     28  C   UNL     1       3.633   1.012   2.733  0.00  0.00    +0.075 A 
ATOM     29  S   UNL     1       2.911   1.107   1.102  0.00  0.00    -0.078 S 
BRANCH  27  30
ATOM     30  C   UNL     1       3.325  -0.630   4.572  0.00  0.00    +0.001 A 
ATOM     31  C   UNL     1       2.781  -1.839   5.001  0.00  0.00    +0.010 A 
ATOM     32  C   UNL     1       3.060  -2.308   6.268  0.00  0.00    +0.001 A 
ATOM     33  C   UNL     1       3.869  -1.574   7.117  0.00  0.00    +0.000 A 
ATOM     34  C   UNL     1       4.408  -0.370   6.699  0.00  0.00    +0.001 A 
ATOM     35  C   UNL     1       4.140   0.105   5.431  0.00  0.00    +0.010 A 
ENDBRANCH  27  30
ENDBRANCH  24  25
ENDBRANCH   1  24
BRANCH   2  36
ATOM     36  C   UNL     1      -2.097   1.321  -0.237  0.00  0.00    +0.241 C 
BRANCH  36  37
ATOM     37  N   UNL     1      -2.166   2.641  -0.868  0.00  0.00    -0.235 N 
ATOM     38  C   UNL     1      -1.981   3.857  -0.253  0.00  0.00    +0.090 A 
ATOM     39  C   UNL     1      -1.691   4.247   1.050  0.00  0.00    +0.029 A 
ATOM     40  C   UNL     1      -1.566   5.575   1.349  0.00  0.00    +0.002 A 
ATOM     41  C   UNL     1      -1.725   6.540   0.363  0.00  0.00    +0.002 A 
ATOM     42  C   UNL     1      -2.002   6.183  -0.924  0.00  0.00    +0.032 A 
ATOM     43  C   UNL     1      -2.140   4.829  -1.256  0.00  0.00    +0.113 A 
ATOM     44  N   UNL     1      -2.418   4.186  -2.408  0.00  0.00    -0.129 NA
ATOM     45  N   UNL     1      -2.440   2.914  -2.216  0.00  0.00    -0.064 NA
ENDBRANCH  36  37
ENDBRANCH   2  36
TORSDOF 10
