REMARK  Name = ZINC13417699
REMARK  6 active torsions:
REMARK  status: ('A' for Active; 'I' for Inactive)
REMARK    1  A    between atoms: C_1  and  C_2
REMARK    2  A    between atoms: N_7  and  C_10
REMARK    3  A    between atoms: C_10  and  C_12
REMARK    4  A    between atoms: C_10  and  C_18
REMARK    5  A    between atoms: C_18  and  C_20
REMARK    6  A    between atoms: C_31  and  C_32
REMARK                            x       y       z     vdW  Elec       q    Type
REMARK                         _______ _______ _______ _____ _____    ______ ____
ROOT
ATOM      1  C   UNL     1      -0.019  -0.547  -4.988  0.00  0.00    +0.193 C 
ENDROOT
BRANCH   1   8
ATOM      2  C   UNL     1      -0.755  -0.082   0.344  0.00  0.00    +0.046 C 
ATOM      3  C   UNL     1      -0.780  -1.516  -0.122  0.00  0.00    -0.015 A 
ATOM      4  C   UNL     1      -0.604  -1.818  -1.472  0.00  0.00    +0.076 A 
ATOM      5  C   UNL     1      -0.642  -3.191  -1.808  0.00  0.00    +0.116 A 
ATOM      6  N   UNL     1      -0.490  -3.610  -3.058  0.00  0.00    -0.230 NA
ATOM      7  C   UNL     1      -0.296  -2.773  -4.042  0.00  0.00    +0.204 A 
ATOM      8  N   UNL     1      -0.240  -1.434  -3.843  0.00  0.00    -0.284 N 
ATOM      9  C   UNL     1      -0.382  -0.900  -2.614  0.00  0.00    +0.263 A 
ATOM     10  O   UNL     1      -0.331   0.305  -2.446  0.00  0.00    -0.267 OA
ATOM     11  S   UNL     1      -0.917  -3.991  -0.247  0.00  0.00    -0.062 S 
ATOM     12  C   UNL     1      -0.969  -2.535   0.784  0.00  0.00    +0.106 A 
BRANCH  12  13
ATOM     13  C   UNL     1      -1.160  -2.450   2.187  0.00  0.00    +0.393 C 
ATOM     14  O   UNL     1      -1.169  -1.356   2.738  0.00  0.00    -0.240 OA
ATOM     15  O   UNL     1      -1.316  -3.470   2.847  0.00  0.00    -0.240 OA
ENDBRANCH  12  13
ENDBRANCH   1   8
BRANCH   1  16
ATOM     16  C   UNL     1       1.270  -0.922  -5.673  0.00  0.00    -0.017 A 
ATOM     17  C   UNL     1       1.335  -2.067  -6.445  0.00  0.00    +0.006 A 
ATOM     18  C   UNL     1       2.517  -2.412  -7.073  0.00  0.00    +0.000 A 
ATOM     19  C   UNL     1       3.634  -1.611  -6.929  0.00  0.00    +0.000 A 
ATOM     20  C   UNL     1       3.570  -0.466  -6.158  0.00  0.00    +0.000 A 
ATOM     21  C   UNL     1       2.386  -0.119  -5.533  0.00  0.00    +0.006 A 
ENDBRANCH   1  16
BRANCH   1  22
ATOM     22  C   UNL     1      -1.163  -0.687  -5.959  0.00  0.00    +0.192 C 
ATOM     23  O   UNL     1      -1.925  -1.628  -5.869  0.00  0.00    -0.289 OA
BRANCH  22  24
ATOM     24  C   UNL     1      -1.349   0.280  -6.979  0.00  0.00    +0.045 A 
ATOM     25  C   UNL     1      -0.572   1.393  -7.216  0.00  0.00    +0.095 A 
ATOM     26  N   UNL     1      -1.062   2.071  -8.271  0.00  0.00    -0.360 N 
ATOM     27  H   UNL     1      -0.681   2.889  -8.626  0.00  0.00    +0.165 HD
ATOM     28  C   UNL     1      -2.180   1.441  -8.780  0.00  0.00    +0.047 A 
ATOM     29  C   UNL     1      -2.410   0.293  -8.005  0.00  0.00    +0.010 A 
ATOM     30  C   UNL     1      -3.482  -0.545  -8.298  0.00  0.00    +0.011 A 
ATOM     31  C   UNL     1      -4.314  -0.244  -9.355  0.00  0.00    +0.001 A 
ATOM     32  C   UNL     1      -4.086   0.887 -10.124  0.00  0.00    +0.002 A 
ATOM     33  C   UNL     1      -3.033   1.730  -9.839  0.00  0.00    +0.026 A 
ENDBRANCH  22  24
ENDBRANCH   1  22
TORSDOF 5
