REMARK  Name = ZINC01321920
REMARK  5 active torsions:
REMARK  status: ('A' for Active; 'I' for Inactive)
REMARK    1  A    between atoms: C_1  and  C_2
REMARK    2  A    between atoms: C_6  and  N_8
REMARK    3  A    between atoms: C_9  and  C_11
REMARK    4  A    between atoms: C_12  and  N_28
REMARK    5  A    between atoms: C_14  and  C_23
REMARK                            x       y       z     vdW  Elec       q    Type
REMARK                         _______ _______ _______ _____ _____    ______ ____
ROOT
ATOM      1  C   UNL     1      -0.092  -4.813   3.579  0.00  0.00    +0.097 A 
ATOM      2  C   UNL     1      -0.208  -6.175   3.766  0.00  0.00    +0.054 A 
ATOM      3  C   UNL     1      -0.323  -6.677   5.122  0.00  0.00    +0.040 A 
ATOM      4  C   UNL     1      -0.454  -8.029   5.568  0.00  0.00    +0.034 A 
ATOM      5  C   UNL     1      -0.552  -8.282   6.936  0.00  0.00    -0.015 A 
ATOM      6  C   UNL     1      -0.522  -7.235   7.838  0.00  0.00    +0.046 A 
ATOM      7  N   UNL     1      -0.401  -5.988   7.410  0.00  0.00    -0.244 NA
ATOM      8  C   UNL     1      -0.304  -5.691   6.133  0.00  0.00    +0.112 A 
ATOM      9  S   UNL     1      -0.127  -4.167   5.240  0.00  0.00    -0.062 S 
ATOM     10  C   UNL     1      -0.645  -7.773   9.248  0.00  0.00    +0.056 C 
ATOM     11  C   UNL     1      -1.191  -9.208   9.088  0.00  0.00    +0.011 C 
ATOM     12  C   UNL     1      -0.697  -9.594   7.678  0.00  0.00    +0.038 C 
ENDROOT
BRANCH   4  13
ATOM     13  C   UNL     1      -0.485  -9.137   4.597  0.00  0.00    +0.136 A 
ATOM     14  C   UNL     1       0.494 -10.066   4.413  0.00  0.00    +0.050 A 
ATOM     15  C   UNL     1       0.048 -10.928   3.394  0.00  0.00    +0.042 A 
ATOM     16  C   UNL     1      -1.168 -10.489   3.008  0.00  0.00    +0.196 A 
ATOM     17  O   UNL     1      -1.488  -9.411   3.741  0.00  0.00    -0.463 OA
ENDBRANCH   4  13
BRANCH   1  19
ATOM     18  N   UNL     1       0.141  -2.757   2.375  0.00  0.00    -0.281 N 
ATOM     19  C   UNL     1       0.032  -4.101   2.362  0.00  0.00    +0.257 C 
ATOM     20  O   UNL     1       0.040  -4.702   1.302  0.00  0.00    -0.269 OA
ATOM     21  H   UNL     1       0.210  -2.285   3.220  0.00  0.00    +0.155 HD
BRANCH  18  27
ATOM     22  C   UNL     1       1.734   1.081  -0.251  0.00  0.00    +0.044 C 
ATOM     23  C   UNL     1       0.918  -0.181  -0.129  0.00  0.00    -0.049 A 
ATOM     24  C   UNL     1       0.183  -0.636  -1.209  0.00  0.00    +0.003 A 
ATOM     25  C   UNL     1      -0.566  -1.793  -1.101  0.00  0.00    +0.002 A 
ATOM     26  C   UNL     1      -0.582  -2.499   0.086  0.00  0.00    +0.023 A 
ATOM     27  C   UNL     1       0.155  -2.045   1.172  0.00  0.00    +0.034 A 
ATOM     28  C   UNL     1       0.911  -0.885   1.059  0.00  0.00    +0.026 A 
ENDBRANCH  18  27
ENDBRANCH   1  19
BRANCH   2  29
ATOM     29  N   UNL     1      -0.214  -7.044   2.683  0.00  0.00    -0.356 N 
ATOM     30  H   UNL     1      -0.086  -6.701   1.785  0.00  0.00    +0.142 HD
ATOM     31  H   UNL     1      -0.348  -7.994   2.824  0.00  0.00    +0.142 HD
ENDBRANCH   2  29
TORSDOF 4
