REMARK  Name = ZINC14257855
REMARK  10 active torsions:
REMARK  status: ('A' for Active; 'I' for Inactive)
REMARK    1  A    between atoms: C_1  and  C_2
REMARK    2  A    between atoms: C_2  and  C_3
REMARK    3  A    between atoms: C_3  and  C_4
REMARK    4  A    between atoms: C_4  and  C_5
REMARK    5  A    between atoms: C_5  and  C_6
REMARK    6  A    between atoms: N_8  and  C_9
REMARK    7  A    between atoms: C_9  and  N_11
REMARK    8  A    between atoms: N_11  and  C_12
REMARK    9  A    between atoms: C_15  and  N_18
REMARK   10  A    between atoms: C_23  and  C_25
REMARK                            x       y       z     vdW  Elec       q    Type
REMARK                         _______ _______ _______ _____ _____    ______ ____
ROOT
ATOM      1  N   UNL     1      -4.607   2.198   6.197  0.00  0.00    -0.297 N 
ATOM      2  H   UNL     1      -5.454   1.776   6.411  0.00  0.00    +0.154 HD
ENDROOT
BRANCH   1   3
ATOM      3  C   UNL     1      -3.965   1.907   4.987  0.00  0.00    +0.033 A 
ATOM      4  C   UNL     1      -2.602   1.642   4.970  0.00  0.00    +0.025 A 
ATOM      5  C   UNL     1      -1.969   1.355   3.777  0.00  0.00    +0.025 A 
ATOM      6  C   UNL     1      -2.695   1.333   2.594  0.00  0.00    +0.030 A 
ATOM      7  C   UNL     1      -4.057   1.603   2.610  0.00  0.00    +0.025 A 
ATOM      8  C   UNL     1      -4.691   1.885   3.803  0.00  0.00    +0.025 A 
BRANCH   6   9
ATOM      9  N   UNL     1      -2.054   1.042   1.384  0.00  0.00    -0.327 N 
ATOM     10  C   UNL     1      -1.979   2.235   0.529  0.00  0.00    +0.105 C 
ATOM     11  C   UNL     1      -1.147   1.919  -0.716  0.00  0.00    +0.019 C 
ATOM     12  C   UNL     1      -1.797   0.760  -1.478  0.00  0.00    +0.003 C 
ATOM     13  C   UNL     1      -1.907  -0.453  -0.550  0.00  0.00    +0.022 C 
ATOM     14  C   UNL     1      -2.717  -0.069   0.690  0.00  0.00    +0.070 C 
ATOM     15  C   UNL     1      -2.812  -1.272   1.630  0.00  0.00    +0.028 C 
ENDBRANCH   6   9
ENDBRANCH   1   3
BRANCH   1  16
ATOM     16  C   UNL     1      -4.049   3.065   7.065  0.00  0.00    +0.141 C 
ATOM     17  S   UNL     1      -2.504   3.727   6.739  0.00  0.00    -0.018 S 
BRANCH  16  20
ATOM     18  C   UNL     1      -4.148   4.277   9.058  0.00  0.00    +0.218 C 
ATOM     19  O   UNL     1      -3.054   4.746   8.827  0.00  0.00    -0.275 OA
ATOM     20  N   UNL     1      -4.706   3.410   8.190  0.00  0.00    -0.268 N 
ATOM     21  H   UNL     1      -5.581   3.035   8.375  0.00  0.00    +0.156 HD
BRANCH  18  22
ATOM     22  C   UNL     1      -4.883   4.663  10.316  0.00  0.00    +0.096 C 
BRANCH  22  23
ATOM     23  C   UNL     1      -4.035   5.652  11.119  0.00  0.00    +0.009 C 
BRANCH  23  24
ATOM     24  C   UNL     1      -4.782   6.044  12.395  0.00  0.00    +0.000 C 
BRANCH  24  26
ATOM     25  C   UNL     1      -4.680   7.424  14.475  0.00  0.00    +0.004 C 
ATOM     26  C   UNL     1      -3.934   7.032  13.198  0.00  0.00    -0.003 C 
ENDBRANCH  24  26
ENDBRANCH  23  24
ENDBRANCH  22  23
ENDBRANCH  18  22
ENDBRANCH  16  20
ENDBRANCH   1  16
TORSDOF 8
