REMARK  Name = ZINC32599613
REMARK  3 active torsions:
REMARK  status: ('A' for Active; 'I' for Inactive)
REMARK    1  A    between atoms: C_4  and  C_7
REMARK    2  A    between atoms: N_8  and  C_9
REMARK    3  A    between atoms: C_12  and  N_15
REMARK                            x       y       z     vdW  Elec       q    Type
REMARK                         _______ _______ _______ _____ _____    ______ ____
ROOT
ATOM      1  C   UNL     1      -1.113  -2.627   4.690  0.00  0.00    +0.105 C 
ATOM      2  C   UNL     1      -0.672  -1.167   4.558  0.00  0.00    +0.028 C 
ATOM      3  C   UNL     1       0.841  -1.109   4.341  0.00  0.00    +0.026 C 
ATOM      4  C   UNL     1       1.202  -1.869   3.062  0.00  0.00    +0.095 C 
ATOM      5  C   UNL     1       0.761  -3.328   3.194  0.00  0.00    +0.026 C 
ATOM      6  C   UNL     1      -0.752  -3.386   3.411  0.00  0.00    +0.028 C 
ENDROOT
BRANCH   4   7
ATOM      7  N   UNL     1       0.521  -1.254   1.920  0.00  0.00    -0.230 N 
ATOM      8  C   UNL     1       1.151  -0.663   0.733  0.00  0.00    +0.121 C 
ATOM      9  C   UNL     1       2.387   0.121   1.028  0.00  0.00    +0.026 C 
ATOM     10  C   UNL     1       2.125   1.608   1.239  0.00  0.00    +0.002 C 
ATOM     11  C   UNL     1       1.375   2.124   0.000  0.00  0.00    +0.002 C 
ATOM     12  C   UNL     1      -0.018   1.511   0.010  0.00  0.00    +0.030 C 
ATOM     13  C   UNL     1       0.002  -0.004   0.002  0.00  0.00    +0.151 C 
ATOM     14  N   UNL     1      -1.188  -0.478   0.746  0.00  0.00    -0.166 NA
ATOM     15  N   UNL     1      -0.860  -1.113   1.743  0.00  0.00    -0.083 NA
ENDBRANCH   4   7
BRANCH   1  17
ATOM     16  C   UNL     1      -3.036  -3.214   5.960  0.00  0.00    +0.081 C 
ATOM     17  N   UNL     1      -2.562  -2.682   4.898  0.00  0.00    -0.292 NA
BRANCH  16  21
ATOM     18  C   UNL     1      -6.842  -4.029   7.802  0.00  0.00    +0.000 C 
ATOM     19  C   UNL     1      -6.481  -4.788   6.523  0.00  0.00    +0.001 C 
ATOM     20  C   UNL     1      -4.968  -4.730   6.306  0.00  0.00    +0.009 C 
ATOM     21  C   UNL     1      -4.527  -3.271   6.174  0.00  0.00    +0.030 C 
ATOM     22  C   UNL     1      -4.888  -2.512   7.453  0.00  0.00    +0.009 C 
ATOM     23  C   UNL     1      -6.401  -2.570   7.670  0.00  0.00    +0.001 C 
ENDBRANCH  16  21
ENDBRANCH   1  17
TORSDOF 3
