REMARK  Name = ZINC37288571
REMARK  8 active torsions:
REMARK  status: ('A' for Active; 'I' for Inactive)
REMARK    1  A    between atoms: C_5  and  O_10
REMARK    2  A    between atoms: C_6  and  N_7
REMARK    3  A    between atoms: O_10  and  C_11
REMARK    4  A    between atoms: C_11  and  C_12
REMARK    5  A    between atoms: C_12  and  C_14
REMARK    6  A    between atoms: C_12  and  O_19
REMARK    7  A    between atoms: C_14  and  N_15
REMARK    8  A    between atoms: N_15  and  C_16
REMARK                            x       y       z     vdW  Elec       q    Type
REMARK                         _______ _______ _______ _____ _____    ______ ____
ROOT
ATOM      1  O   UNL     1       1.233  -2.040  -0.022  0.00  0.00    -0.486 OA
ENDROOT
BRANCH   1   6
ATOM      2  C   UNL     1      -0.017   1.377   0.010  0.00  0.00    +0.056 A 
ATOM      3  C   UNL     1       1.171   2.087   0.002  0.00  0.00    +0.044 A 
ATOM      4  C   UNL     1       2.381   1.414  -0.014  0.00  0.00    +0.039 A 
ATOM      5  C   UNL     1       2.404   0.032  -0.022  0.00  0.00    +0.063 A 
ATOM      6  C   UNL     1       1.213  -0.680  -0.014  0.00  0.00    +0.165 A 
ATOM      7  C   UNL     1       0.002  -0.004   0.002  0.00  0.00    +0.170 A 
ATOM      8 BR   UNL     1       4.056  -0.886  -0.044  0.00  0.00    -0.046 Br
ATOM      9 CL   UNL     1       1.145   3.822   0.012  0.00  0.00    -0.083 Cl
BRANCH   7  10
ATOM     10  N   UNL     1      -1.269  -0.762   0.010  0.00  0.00    +0.060 N 
ATOM     11  O   UNL     1      -2.325  -0.172   0.023  0.00  0.00    -0.126 OA
ATOM     12  O   UNL     1      -1.253  -1.971   0.004  0.00  0.00    -0.126 OA
ENDBRANCH   7  10
ENDBRANCH   1   6
BRANCH   1  13
ATOM     13  C   UNL     1       1.256  -2.696   1.247  0.00  0.00    +0.258 C 
BRANCH  13  14
ATOM     14  C   UNL     1       1.277  -4.211   1.037  0.00  0.00    +0.135 C 
BRANCH  14  15
ATOM     15  O   UNL     1       0.055  -4.623   0.420  0.00  0.00    -0.390 OA
ATOM     16  H   UNL     1      -0.736  -4.418   0.938  0.00  0.00    +0.210 HD
ENDBRANCH  14  15
BRANCH  14  17
ATOM     17  C   UNL     1       1.427  -4.912   2.389  0.00  0.00    -0.047 C 
BRANCH  17  18
ATOM     18  N   UNL     1       1.567  -6.359   2.179  0.00  0.00    +0.383 N 
ATOM     19  H   UNL     1       0.747  -6.711   1.707  0.00  0.00    -0.085 HD
ATOM     20  H   UNL     1       2.383  -6.539   1.614  0.00  0.00    -0.085 HD
BRANCH  18  21
ATOM     21  C   UNL     1       1.711  -7.031   3.477  0.00  0.00    -0.072 C 
ATOM     22  C   UNL     1       3.027  -7.760   3.753  0.00  0.00    -0.017 C 
ATOM     23  C   UNL     1       1.752  -8.560   3.480  0.00  0.00    -0.017 C 
ENDBRANCH  18  21
ENDBRANCH  17  18
ENDBRANCH  14  17
ENDBRANCH  13  14
ENDBRANCH   1  13
TORSDOF 8
