REMARK  Name = ZINC61941339
REMARK  4 active torsions:
REMARK  status: ('A' for Active; 'I' for Inactive)
REMARK    1  A    between atoms: C_3  and  C_19
REMARK    2  A    between atoms: C_5  and  N_8
REMARK    3  A    between atoms: N_11  and  C_14
REMARK    4  A    between atoms: C_14  and  C_15
REMARK                            x       y       z     vdW  Elec       q    Type
REMARK                         _______ _______ _______ _____ _____    ______ ____
ROOT
ATOM      1  N   UNL     1       1.705  -1.708   0.514  0.00  0.00    -0.296 NA
ATOM      2  C   UNL     1       2.262  -1.423  -0.816  0.00  0.00    +0.100 C 
ATOM      3  C   UNL     1       3.064  -2.633  -1.300  0.00  0.00    +0.100 C 
ATOM      4  N   UNL     1       2.190  -3.814  -1.340  0.00  0.00    -0.292 NA
ATOM      5  C   UNL     1       1.633  -4.098  -0.010  0.00  0.00    +0.100 C 
ATOM      6  C   UNL     1       0.831  -2.888   0.474  0.00  0.00    +0.100 C 
ENDROOT
BRANCH   1  10
ATOM      7  C   UNL     1       1.573   1.590   2.083  0.00  0.00    +0.003 C 
ATOM      8  C   UNL     1       1.543   0.523   3.206  0.00  0.00    +0.020 C 
ATOM      9  C   UNL     1       0.815  -0.678   2.568  0.00  0.00    +0.109 C 
ATOM     10  C   UNL     1       0.990  -0.540   1.046  0.00  0.00    +0.074 C 
ATOM     11  C   UNL     1       1.819   0.740   0.812  0.00  0.00    +0.020 C 
BRANCH   9  12
ATOM     12  C   UNL     1       1.417  -1.938   3.034  0.00  0.00    +0.067 C 
ATOM     13  N   UNL     1       1.882  -2.910   3.393  0.00  0.00    -0.196 NA
ENDBRANCH   9  12
ENDBRANCH   1  10
BRANCH   4  14
ATOM     14  C   UNL     1       2.905  -4.981  -1.872  0.00  0.00    +0.198 C 
BRANCH  14  15
ATOM     15  C   UNL     1       3.026  -4.856  -3.392  0.00  0.00    +0.402 C 
ATOM     16  F   UNL     1       3.848  -3.768  -3.706  0.00  0.00    -0.169 F 
ATOM     17  F   UNL     1       3.585  -6.028  -3.913  0.00  0.00    -0.169 F 
ATOM     18  F   UNL     1       1.757  -4.658  -3.946  0.00  0.00    -0.169 F 
ENDBRANCH  14  15
ENDBRANCH   4  14
TORSDOF 4
