REMARK  Name = ZINC64188127
REMARK  9 active torsions:
REMARK  status: ('A' for Active; 'I' for Inactive)
REMARK    1  A    between atoms: C_1  and  C_2
REMARK    2  A    between atoms: C_2  and  C_4
REMARK    3  A    between atoms: C_2  and  S_15
REMARK    4  A    between atoms: C_4  and  C_6
REMARK    5  A    between atoms: S_15  and  C_16
REMARK    6  A    between atoms: C_20  and  C_25
REMARK    7  A    between atoms: N_21  and  C_22
REMARK    8  A    between atoms: C_25  and  C_26
REMARK    9  A    between atoms: C_26  and  C_27
REMARK                            x       y       z     vdW  Elec       q    Type
REMARK                         _______ _______ _______ _____ _____    ______ ____
ROOT
ATOM      1  C   UNL     1       2.387  -0.024   1.131  0.00  0.00    +0.237 C 
ATOM      2  N   UNL     1       2.514   1.438   1.005  0.00  0.00    -0.238 N 
ATOM      3  N   UNL     1       3.274   1.664  -0.149  0.00  0.00    -0.174 NA
ATOM      4  C   UNL     1       3.610   0.564  -0.716  0.00  0.00    +0.118 C 
ATOM      5  N   UNL     1       3.130  -0.545  -0.029  0.00  0.00    -0.286 N 
ATOM      6  H   UNL     1       2.146   2.109   1.601  0.00  0.00    +0.171 HD
ENDROOT
BRANCH   5   7
ATOM      7  C   UNL     1       3.322  -1.953  -0.386  0.00  0.00    +0.077 C 
ATOM      8  C   UNL     1       2.636  -3.004   0.489  0.00  0.00    +0.024 C 
ATOM      9  C   UNL     1       4.152  -2.816   0.566  0.00  0.00    +0.024 C 
ENDBRANCH   5   7
BRANCH   1  10
ATOM     10  S   UNL     1       0.644  -0.522   1.048  0.00  0.00    -0.107 S 
BRANCH  10  12
ATOM     11  C   UNL     1       0.119   1.680  -0.487  0.00  0.00    +0.027 C 
ATOM     12  C   UNL     1       0.071   0.151  -0.535  0.00  0.00    +0.117 C 
BRANCH  12  13
ATOM     13  C   UNL     1      -1.345  -0.299  -0.789  0.00  0.00    +0.174 C 
ATOM     14  O   UNL     1      -2.064  -0.594   0.143  0.00  0.00    -0.291 OA
BRANCH  13  15
ATOM     15  C   UNL     1      -1.834  -0.377  -2.110  0.00  0.00    +0.024 C 
ATOM     16  C   UNL     1      -3.100  -0.762  -2.512  0.00  0.00    +0.006 A 
ATOM     17  C   UNL     1      -4.250  -1.179  -1.801  0.00  0.00    +0.010 A 
ATOM     18  C   UNL     1      -5.381  -1.505  -2.466  0.00  0.00    +0.001 A 
ATOM     19  C   UNL     1      -5.476  -1.450  -3.865  0.00  0.00    +0.002 A 
ATOM     20  C   UNL     1      -4.436  -1.066  -4.637  0.00  0.00    +0.026 A 
ATOM     21  C   UNL     1      -3.166  -0.693  -3.993  0.00  0.00    +0.043 A 
ATOM     22  N   UNL     1      -2.027  -0.294  -4.482  0.00  0.00    -0.380 N 
ATOM     23  C   UNL     1      -1.086  -0.050  -3.384  0.00  0.00    +0.152 C 
ATOM     24  H   UNL     1      -1.833  -0.173  -5.425  0.00  0.00    +0.160 HD
ENDBRANCH  13  15
ENDBRANCH  12  13
ENDBRANCH  10  12
ENDBRANCH   1  10
BRANCH   4  25
ATOM     25  C   UNL     1       4.429   0.482  -1.978  0.00  0.00    +0.082 C 
BRANCH  25  26
ATOM     26  C   UNL     1       4.672   1.892  -2.520  0.00  0.00    +0.103 C 
BRANCH  26  27
ATOM     27  C   UNL     1       5.492   1.810  -3.782  0.00  0.00    +0.211 C 
ATOM     28  O   UNL     1       5.846   0.730  -4.206  0.00  0.00    -0.276 OA
ATOM     29  N   UNL     1       5.830   2.937  -4.440  0.00  0.00    -0.329 N 
ATOM     30  H   UNL     1       5.546   3.800  -4.101  0.00  0.00    +0.145 HD
ATOM     31  H   UNL     1       6.358   2.884  -5.253  0.00  0.00    +0.145 HD
ENDBRANCH  26  27
ENDBRANCH  25  26
ENDBRANCH   4  25
TORSDOF 8
