REMARK  Name = ZINC36554329
REMARK  10 active torsions:
REMARK  status: ('A' for Active; 'I' for Inactive)
REMARK    1  A    between atoms: C_1  and  C_2
REMARK    2  A    between atoms: C_3  and  C_4
REMARK    3  A    between atoms: C_4  and  C_6
REMARK    4  A    between atoms: C_4  and  N_20
REMARK    5  A    between atoms: N_8  and  C_9
REMARK    6  A    between atoms: C_9  and  S_10
REMARK    7  A    between atoms: S_10  and  C_13
REMARK    8  A    between atoms: C_16  and  C_19
REMARK    9  A    between atoms: N_20  and  C_21
REMARK   10  A    between atoms: C_28  and  C_30
REMARK                            x       y       z     vdW  Elec       q    Type
REMARK                         _______ _______ _______ _____ _____    ______ ____
ROOT
ATOM      1  C   UNL     1      -1.176  -3.392  -0.402  0.00  0.00    +0.190 C 
ENDROOT
BRANCH   1   2
ATOM      2  C   UNL     1      -1.364  -4.404  -1.503  0.00  0.00    +0.239 C 
ATOM      3  O   UNL     1      -0.398  -4.875  -2.066  0.00  0.00    -0.273 OA
ATOM      4  N   UNL     1      -2.606  -4.785  -1.864  0.00  0.00    -0.294 N 
ATOM      5  H   UNL     1      -3.378  -4.408  -1.414  0.00  0.00    +0.150 HD
BRANCH   4   6
ATOM      6  C   UNL     1      -2.788  -5.768  -2.934  0.00  0.00    +0.278 C 
BRANCH   6   7
ATOM      7  S   UNL     1      -2.958  -7.423  -2.213  0.00  0.00    +0.013 S 
ATOM      8  O   UNL     1      -3.199  -8.381  -3.235  0.00  0.00    -0.168 OA
ATOM      9  O   UNL     1      -1.943  -7.641  -1.242  0.00  0.00    -0.168 OA
BRANCH   7  10
ATOM     10  C   UNL     1      -4.458  -7.364  -1.290  0.00  0.00    +0.090 A 
ATOM     11  C   UNL     1      -4.438  -6.976   0.037  0.00  0.00    +0.027 A 
ATOM     12  C   UNL     1      -5.614  -6.929   0.761  0.00  0.00    +0.005 A 
ATOM     13  C   UNL     1      -6.811  -7.270   0.158  0.00  0.00    -0.050 A 
ATOM     14  C   UNL     1      -6.831  -7.657  -1.169  0.00  0.00    +0.005 A 
ATOM     15  C   UNL     1      -5.655  -7.699  -1.894  0.00  0.00    +0.027 A 
ATOM     16  C   UNL     1      -8.094  -7.220   0.948  0.00  0.00    +0.044 C 
ENDBRANCH   7  10
ENDBRANCH   6   7
ENDBRANCH   4   6
ENDBRANCH   1   2
BRANCH   1  19
ATOM     17  C   UNL     1      -1.840   0.290  -1.265  0.00  0.00    +0.035 C 
ATOM     18  C   UNL     1      -1.159  -0.999  -0.884  0.00  0.00    -0.032 C 
ATOM     19  C   UNL     1      -1.857  -2.103  -0.782  0.00  0.00    +0.000 C 
ENDBRANCH   1  19
BRANCH   1  20
ATOM     20  N   UNL     1       0.254  -3.149  -0.202  0.00  0.00    -0.252 N 
ATOM     21  C   UNL     1       0.791  -3.264   1.029  0.00  0.00    +0.252 C 
ATOM     22  O   UNL     1       1.977  -3.054   1.197  0.00  0.00    -0.270 OA
BRANCH  20  23
ATOM     23  C   UNL     1       1.062  -2.797  -1.287  0.00  0.00    +0.039 A 
ATOM     24  C   UNL     1       0.488  -2.523  -2.522  0.00  0.00    +0.023 A 
ATOM     25  C   UNL     1       1.289  -2.175  -3.593  0.00  0.00    +0.003 A 
ATOM     26  C   UNL     1       2.661  -2.100  -3.437  0.00  0.00    +0.020 A 
ATOM     27  C   UNL     1       3.236  -2.373  -2.208  0.00  0.00    +0.043 A 
ATOM     28  C   UNL     1       2.440  -2.716  -1.132  0.00  0.00    +0.043 A 
ATOM     29 CL   UNL     1       4.959  -2.279  -2.018  0.00  0.00    -0.083 Cl
ENDBRANCH  20  23
BRANCH  21  30
ATOM     30  C   UNL     1      -0.060  -3.644   2.174  0.00  0.00    +0.037 A 
ATOM     31  C   UNL     1      -1.405  -3.267   2.203  0.00  0.00    +0.016 A 
ATOM     32  C   UNL     1      -2.195  -3.624   3.275  0.00  0.00    +0.039 A 
ATOM     33  C   UNL     1      -1.658  -4.357   4.322  0.00  0.00    +0.123 A 
ATOM     34  C   UNL     1      -0.323  -4.734   4.298  0.00  0.00    +0.039 A 
ATOM     35  C   UNL     1       0.474  -4.387   3.229  0.00  0.00    +0.016 A 
ATOM     36  F   UNL     1      -2.437  -4.704   5.370  0.00  0.00    -0.205 F 
ENDBRANCH  21  30
ENDBRANCH   1  20
TORSDOF 8
