REMARK  Name = ZINC35600904
REMARK  7 active torsions:
REMARK  status: ('A' for Active; 'I' for Inactive)
REMARK    1  A    between atoms: C_1  and  C_2
REMARK    2  A    between atoms: C_2  and  C_4
REMARK    3  A    between atoms: C_2  and  N_21
REMARK    4  A    between atoms: N_6  and  C_7
REMARK    5  A    between atoms: C_10  and  S_13
REMARK    6  A    between atoms: S_13  and  N_16
REMARK    7  A    between atoms: C_25  and  C_28
REMARK                            x       y       z     vdW  Elec       q    Type
REMARK                         _______ _______ _______ _____ _____    ______ ____
ROOT
ATOM      1  C   UNL     1      -1.415  -0.669  -0.057  0.00  0.00    +0.203 C 
ATOM      2  O   UNL     1      -1.739  -1.542   0.720  0.00  0.00    -0.277 OA
ATOM      3  N   UNL     1      -2.319  -0.166  -0.920  0.00  0.00    -0.287 N 
ATOM      4  H   UNL     1      -2.044   0.482  -1.587  0.00  0.00    +0.155 HD
ENDROOT
BRANCH   3   5
ATOM      5  C   UNL     1      -3.654  -0.580  -0.855  0.00  0.00    +0.033 A 
ATOM      6  C   UNL     1      -4.221  -0.913   0.368  0.00  0.00    +0.025 A 
ATOM      7  C   UNL     1      -5.539  -1.321   0.429  0.00  0.00    +0.030 A 
ATOM      8  C   UNL     1      -6.295  -1.398  -0.726  0.00  0.00    +0.106 A 
ATOM      9  C   UNL     1      -5.733  -1.067  -1.946  0.00  0.00    +0.030 A 
ATOM     10  C   UNL     1      -4.418  -0.652  -2.013  0.00  0.00    +0.025 A 
BRANCH   8  11
ATOM     11  S   UNL     1      -7.976  -1.919  -0.644  0.00  0.00    +0.061 S 
ATOM     12  O   UNL     1      -8.306  -2.429  -1.928  0.00  0.00    -0.153 OA
ATOM     13  O   UNL     1      -8.103  -2.694   0.540  0.00  0.00    -0.153 OA
BRANCH  11  14
ATOM     14  N   UNL     1      -8.899  -0.561  -0.423  0.00  0.00    -0.177 NA
ATOM     15  C   UNL     1      -9.274   0.018   0.875  0.00  0.00    +0.109 C 
ATOM     16  C   UNL     1     -10.153   1.253   0.589  0.00  0.00    +0.018 C 
ATOM     17  C   UNL     1     -10.692   0.973  -0.839  0.00  0.00    +0.018 C 
ATOM     18  C   UNL     1      -9.475   0.270  -1.496  0.00  0.00    +0.109 C 
ENDBRANCH  11  14
ENDBRANCH   8  11
ENDBRANCH   3   5
BRANCH   1  20
ATOM     19  C   UNL     1       0.097   1.056   0.885  0.00  0.00    -0.004 C 
ATOM     20  C   UNL     1      -0.002  -0.146  -0.056  0.00  0.00    +0.016 C 
BRANCH  20  21
ATOM     21  N   UNL     1       0.911  -1.202   0.401  0.00  0.00    +0.388 N 
ATOM     22  C   UNL     1       2.273  -0.664   0.493  0.00  0.00    -0.078 C 
ATOM     23  C   UNL     1       3.214  -1.736   1.047  0.00  0.00    -0.018 C 
ATOM     24  C   UNL     1       3.204  -2.948   0.110  0.00  0.00    +0.008 C 
ATOM     25  C   UNL     1       1.767  -3.456  -0.037  0.00  0.00    +0.077 C 
ATOM     26  C   UNL     1       0.880  -2.319  -0.550  0.00  0.00    -0.066 C 
ATOM     27  H   UNL     1       0.618  -1.528   1.310  0.00  0.00    -0.081 HD
BRANCH  25  28
ATOM     28  C   UNL     1       1.735  -4.619  -1.031  0.00  0.00    +0.391 C 
ATOM     29  F   UNL     1       2.550  -5.655  -0.562  0.00  0.00    -0.171 F 
ATOM     30  F   UNL     1       0.422  -5.082  -1.165  0.00  0.00    -0.171 F 
ATOM     31  F   UNL     1       2.205  -4.182  -2.274  0.00  0.00    -0.171 F 
ENDBRANCH  25  28
ENDBRANCH  20  21
ENDBRANCH   1  20
TORSDOF 6
