REMARK  Name = ZINC66199749
REMARK  12 active torsions:
REMARK  status: ('A' for Active; 'I' for Inactive)
REMARK    1  A    between atoms: C_1  and  C_2
REMARK    2  A    between atoms: C_2  and  C_4
REMARK    3  A    between atoms: C_2  and  C_14
REMARK    4  A    between atoms: C_7  and  C_10
REMARK    5  A    between atoms: C_10  and  C_11
REMARK    6  A    between atoms: C_11  and  C_12
REMARK    7  A    between atoms: C_11  and  C_13
REMARK    8  A    between atoms: N_16  and  C_17
REMARK    9  A    between atoms: C_17  and  N_19
REMARK   10  A    between atoms: N_22  and  C_25
REMARK   11  A    between atoms: C_25  and  C_26
REMARK   12  A    between atoms: C_25  and  C_32
REMARK                            x       y       z     vdW  Elec       q    Type
REMARK                         _______ _______ _______ _____ _____    ______ ____
ROOT
ATOM      1  N   UNL     1       3.915  -1.202   2.780  0.00  0.00    -0.310 N 
ATOM      2  C   UNL     1       4.422  -0.172   1.861  0.00  0.00    +0.122 C 
ATOM      3  C   UNL     1       5.787  -0.623   1.329  0.00  0.00    +0.104 C 
ATOM      4  N   UNL     1       6.670  -0.934   2.461  0.00  0.00    -0.289 NA
ATOM      5  C   UNL     1       6.149  -2.058   3.250  0.00  0.00    +0.104 C 
ATOM      6  C   UNL     1       4.796  -1.662   3.864  0.00  0.00    +0.122 C 
ENDROOT
BRANCH   1   7
ATOM      7  C   UNL     1       2.674  -1.707   2.636  0.00  0.00    +0.139 C 
ATOM      8  S   UNL     1       2.060  -2.812   3.791  0.00  0.00    -0.018 S 
BRANCH   7  11
ATOM      9  C   UNL     1       0.713  -1.919   1.387  0.00  0.00    +0.226 C 
ATOM     10  O   UNL     1       0.313  -2.765   2.158  0.00  0.00    -0.275 OA
ATOM     11  N   UNL     1       1.915  -1.343   1.583  0.00  0.00    -0.267 N 
ATOM     12  H   UNL     1       2.235  -0.666   0.967  0.00  0.00    +0.157 HD
BRANCH   9  14
ATOM     13  C   UNL     1      -0.452  -0.017   0.303  0.00  0.00    +0.022 C 
ATOM     14  C   UNL     1      -0.135  -1.511   0.210  0.00  0.00    +0.102 C 
BRANCH  14  15
ATOM     15  C   UNL     1      -1.420  -2.299   0.220  0.00  0.00    -0.036 A 
ATOM     16  C   UNL     1      -2.282  -2.201   1.296  0.00  0.00    +0.004 A 
ATOM     17  C   UNL     1      -3.461  -2.923   1.305  0.00  0.00    +0.004 A 
ATOM     18  C   UNL     1      -3.778  -3.743   0.238  0.00  0.00    -0.047 A 
ATOM     19  C   UNL     1      -2.916  -3.839  -0.839  0.00  0.00    +0.004 A 
ATOM     20  C   UNL     1      -1.739  -3.114  -0.850  0.00  0.00    +0.004 A 
BRANCH  18  21
ATOM     21  C   UNL     1      -5.062  -4.530   0.248  0.00  0.00    +0.038 C 
BRANCH  21  22
ATOM     22  C   UNL     1      -6.176  -3.698  -0.390  0.00  0.00    -0.013 C 
ATOM     23  C   UNL     1      -5.856  -3.466  -1.868  0.00  0.00    +0.007 C 
ATOM     24  C   UNL     1      -7.505  -4.446  -0.268  0.00  0.00    +0.007 C 
ENDBRANCH  21  22
ENDBRANCH  18  21
ENDBRANCH  14  15
ENDBRANCH   9  14
ENDBRANCH   7  11
ENDBRANCH   1   7
BRANCH   4  25
ATOM     25  C   UNL     1       8.039  -1.205   2.000  0.00  0.00    +0.117 C 
BRANCH  25  26
ATOM     26  C   UNL     1       8.566  -0.003   1.259  0.00  0.00    -0.026 A 
ATOM     27  C   UNL     1       8.267   1.270   1.706  0.00  0.00    +0.005 A 
ATOM     28  C   UNL     1       8.750   2.373   1.026  0.00  0.00    +0.000 A 
ATOM     29  C   UNL     1       9.534   2.201  -0.100  0.00  0.00    +0.000 A 
ATOM     30  C   UNL     1       9.833   0.928  -0.546  0.00  0.00    +0.000 A 
ATOM     31  C   UNL     1       9.353  -0.174   0.136  0.00  0.00    +0.005 A 
ENDBRANCH  25  26
BRANCH  25  32
ATOM     32  C   UNL     1       8.921  -1.489   3.189  0.00  0.00    -0.026 A 
ATOM     33  C   UNL     1       8.793  -0.736   4.341  0.00  0.00    +0.005 A 
ATOM     34  C   UNL     1       9.602  -0.997   5.431  0.00  0.00    +0.000 A 
ATOM     35  C   UNL     1      10.540  -2.010   5.368  0.00  0.00    +0.000 A 
ATOM     36  C   UNL     1      10.668  -2.764   4.217  0.00  0.00    +0.000 A 
ATOM     37  C   UNL     1       9.855  -2.506   3.128  0.00  0.00    +0.005 A 
ENDBRANCH  25  32
ENDBRANCH   4  25
TORSDOF 9
