REMARK  Name = ZINC35642650
REMARK  10 active torsions:
REMARK  status: ('A' for Active; 'I' for Inactive)
REMARK    1  A    between atoms: C_1  and  C_2
REMARK    2  A    between atoms: C_2  and  O_3
REMARK    3  A    between atoms: O_3  and  C_4
REMARK    4  A    between atoms: C_4  and  C_6
REMARK    5  A    between atoms: C_7  and  C_22
REMARK    6  A    between atoms: N_8  and  C_21
REMARK    7  A    between atoms: C_12  and  C_14
REMARK    8  A    between atoms: C_22  and  N_23
REMARK    9  A    between atoms: C_27  and  C_30
REMARK   10  A    between atoms: C_31  and  C_33
REMARK                            x       y       z     vdW  Elec       q    Type
REMARK                         _______ _______ _______ _____ _____    ______ ____
ROOT
ATOM      1  C   UNL     1       0.130  -2.142   0.671  0.00  0.00    +0.080 C 
ATOM      2  C   UNL     1       0.522  -3.327   0.156  0.00  0.00    +0.041 C 
ATOM      3  N   UNL     1       1.501  -3.394  -0.794  0.00  0.00    -0.260 N 
ATOM      4  C   UNL     1       2.137  -2.321  -1.281  0.00  0.00    +0.307 C 
ATOM      5  O   UNL     1       2.997  -2.480  -2.126  0.00  0.00    -0.252 OA
ATOM      6  N   UNL     1       1.856  -1.070  -0.865  0.00  0.00    -0.288 N 
ATOM      7  C   UNL     1       0.809  -0.889   0.154  0.00  0.00    +0.145 C 
ATOM      8  C   UNL     1       1.877  -4.713  -1.308  0.00  0.00    +0.139 C 
ATOM      9  H   UNL     1       2.329  -0.307  -1.231  0.00  0.00    +0.151 HD
ENDROOT
BRANCH   7  10
ATOM     10  C   UNL     1      -0.254   0.012  -0.419  0.00  0.00    -0.004 A 
ATOM     11  C   UNL     1      -0.573  -0.062  -1.762  0.00  0.00    +0.007 A 
ATOM     12  C   UNL     1      -1.548   0.765  -2.288  0.00  0.00    +0.000 A 
ATOM     13  C   UNL     1      -2.204   1.667  -1.471  0.00  0.00    +0.001 A 
ATOM     14  C   UNL     1      -1.886   1.742  -0.129  0.00  0.00    +0.020 A 
ATOM     15  C   UNL     1      -0.914   0.911   0.400  0.00  0.00    +0.046 A 
ATOM     16 CL   UNL     1      -0.519   1.000   2.088  0.00  0.00    -0.083 Cl
ENDBRANCH   7  10
BRANCH   1  17
ATOM     17  C   UNL     1      -0.885  -2.071   1.654  0.00  0.00    +0.339 C 
ATOM     18  O   UNL     1      -2.004  -1.704   1.348  0.00  0.00    -0.245 OA
BRANCH  17  19
ATOM     19  O   UNL     1      -0.611  -2.411   2.931  0.00  0.00    -0.462 OA
BRANCH  19  21
ATOM     20  C   UNL     1      -1.186  -2.739   5.255  0.00  0.00    +0.048 C 
ATOM     21  C   UNL     1      -1.683  -2.316   3.871  0.00  0.00    +0.229 C 
ENDBRANCH  19  21
ENDBRANCH  17  19
ENDBRANCH   1  17
BRANCH   2  22
ATOM     22  C   UNL     1      -0.131  -4.597   0.638  0.00  0.00    +0.136 C 
BRANCH  22  23
ATOM     23  N   UNL     1      -0.868  -5.220  -0.470  0.00  0.00    -0.294 NA
ATOM     24  C   UNL     1      -1.994  -4.377  -0.892  0.00  0.00    +0.104 C 
ATOM     25  C   UNL     1      -2.624  -4.968  -2.158  0.00  0.00    +0.124 C 
ATOM     26  N   UNL     1      -2.962  -6.375  -1.898  0.00  0.00    -0.292 N 
ATOM     27  C   UNL     1      -1.919  -7.251  -1.343  0.00  0.00    +0.087 C 
ATOM     28  C   UNL     1      -1.318  -6.571  -0.109  0.00  0.00    +0.107 C 
ATOM     29  C   UNL     1      -2.534  -8.595  -0.946  0.00  0.00    +0.029 C 
ATOM     30  C   UNL     1      -4.196  -6.850  -2.162  0.00  0.00    +0.247 C 
ATOM     31  O   UNL     1      -4.436  -8.033  -2.015  0.00  0.00    -0.270 OA
BRANCH  30  32
ATOM     32  C   UNL     1      -5.256  -5.933  -2.631  0.00  0.00    +0.037 A 
ATOM     33  C   UNL     1      -4.935  -4.852  -3.454  0.00  0.00    +0.013 A 
ATOM     34  C   UNL     1      -5.930  -4.000  -3.888  0.00  0.00    +0.001 A 
ATOM     35  C   UNL     1      -7.243  -4.214  -3.508  0.00  0.00    +0.000 A 
ATOM     36  C   UNL     1      -7.568  -5.283  -2.692  0.00  0.00    +0.001 A 
ATOM     37  C   UNL     1      -6.584  -6.147  -2.256  0.00  0.00    +0.013 A 
ENDBRANCH  30  32
ENDBRANCH  22  23
ENDBRANCH   2  22
TORSDOF 7
