REMARK  Name = ZINC09309700
REMARK  5 active torsions:
REMARK  status: ('A' for Active; 'I' for Inactive)
REMARK    1  A    between atoms: C_1  and  C_2
REMARK    2  A    between atoms: C_2  and  O_3
REMARK    3  A    between atoms: O_3  and  C_4
REMARK    4  A    between atoms: C_9  and  C_10
REMARK    5  A    between atoms: C_28  and  C_30
REMARK                            x       y       z     vdW  Elec       q    Type
REMARK                         _______ _______ _______ _____ _____    ______ ____
ROOT
ATOM      1  C   UNL     1       1.943  -1.788   3.604  0.00  0.00    +0.238 C 
ATOM      2  C   UNL     1       0.858  -1.212   4.465  0.00  0.00    +0.027 C 
ATOM      3  C   UNL     1       0.520  -1.800   5.631  0.00  0.00    +0.083 C 
ATOM      4  C   UNL     1       1.269  -3.020   6.024  0.00  0.00    +0.044 A 
ATOM      5  C   UNL     1       0.798  -3.873   7.013  0.00  0.00    +0.033 A 
ATOM      6  C   UNL     1       1.527  -5.000   7.346  0.00  0.00    +0.042 A 
ATOM      7  C   UNL     1       2.719  -5.276   6.697  0.00  0.00    +0.023 A 
ATOM      8  C   UNL     1       3.194  -4.430   5.712  0.00  0.00    +0.048 A 
ATOM      9  C   UNL     1       2.475  -3.298   5.370  0.00  0.00    +0.131 A 
ATOM     10  O   UNL     1       2.918  -2.449   4.413  0.00  0.00    -0.479 OA
ATOM     11 CL   UNL     1       0.946  -6.073   8.582  0.00  0.00    -0.084 Cl
ATOM     12  N   UNL     1      -0.463  -1.299   6.419  0.00  0.00    -0.213 NA
ATOM     13  C   UNL     1      -1.158  -0.221   6.140  0.00  0.00    +0.237 C 
ATOM     14  N   UNL     1      -2.153   0.408   6.804  0.00  0.00    -0.205 NA
ATOM     15  C   UNL     1      -2.548   1.460   6.141  0.00  0.00    +0.203 C 
ATOM     16  N   UNL     1      -1.821   1.573   4.995  0.00  0.00    -0.251 N 
ATOM     17  N   UNL     1      -0.928   0.499   4.985  0.00  0.00    -0.208 N 
ATOM     18  C   UNL     1       0.112   0.039   4.057  0.00  0.00    +0.160 C 
ATOM     19  H   UNL     1      -1.907   2.264   4.319  0.00  0.00    +0.171 HD
ENDROOT
BRANCH   1  25
ATOM     20  C   UNL     1       1.900  -2.948   1.381  0.00  0.00    +0.127 A 
ATOM     21  C   UNL     1       1.348  -3.864   0.498  0.00  0.00    +0.046 A 
ATOM     22  C   UNL     1       0.240  -4.600   0.871  0.00  0.00    +0.004 A 
ATOM     23  C   UNL     1      -0.317  -4.426   2.125  0.00  0.00    +0.001 A 
ATOM     24  C   UNL     1       0.231  -3.513   3.007  0.00  0.00    +0.011 A 
ATOM     25  C   UNL     1       1.342  -2.778   2.640  0.00  0.00    +0.039 A 
BRANCH  20  26
ATOM     26  O   UNL     1       2.990  -2.222   1.017  0.00  0.00    -0.492 OA
BRANCH  26  28
ATOM     27  C   UNL     1       4.730  -1.557  -0.522  0.00  0.00    +0.048 C 
ATOM     28  C   UNL     1       3.464  -2.392  -0.321  0.00  0.00    +0.225 C 
ENDBRANCH  26  28
ENDBRANCH  20  26
ENDBRANCH   1  25
BRANCH  18  29
ATOM     29  C   UNL     1      -0.531  -0.213   2.717  0.00  0.00    -0.003 A 
ATOM     30  C   UNL     1       0.037   0.295   1.559  0.00  0.00    +0.009 A 
ATOM     31  C   UNL     1      -0.590   0.038   0.349  0.00  0.00    +0.020 A 
ATOM     32  C   UNL     1      -1.751  -0.711   0.338  0.00  0.00    +0.111 A 
ATOM     33  N   UNL     1      -2.264  -1.178   1.459  0.00  0.00    -0.263 NA
ATOM     34  C   UNL     1      -1.692  -0.958   2.627  0.00  0.00    +0.116 A 
ENDBRANCH  18  29
TORSDOF 4
