REMARK  Name = ZINC39869048
REMARK  13 active torsions:
REMARK  status: ('A' for Active; 'I' for Inactive)
REMARK    1  A    between atoms: C_1  and  C_2
REMARK    2  A    between atoms: C_2  and  C_3
REMARK    3  A    between atoms: C_3  and  C_4
REMARK    4  A    between atoms: C_4  and  C_5
REMARK    5  A    between atoms: C_5  and  O_6
REMARK    6  A    between atoms: O_6  and  C_7
REMARK    7  A    between atoms: C_10  and  C_14
REMARK    8  A    between atoms: N_16  and  C_17
REMARK    9  A    between atoms: N_16  and  C_27
REMARK   10  A    between atoms: C_17  and  C_18
REMARK   11  A    between atoms: C_21  and  C_24
REMARK   12  A    between atoms: C_24  and  C_25
REMARK   13  A    between atoms: C_24  and  C_26
REMARK                            x       y       z     vdW  Elec       q    Type
REMARK                         _______ _______ _______ _____ _____    ______ ____
ROOT
ATOM      1  C   UNL     1       3.730  -7.250   6.542  0.00  0.00    +0.247 C 
ATOM      2  O   UNL     1       3.267  -6.628   5.605  0.00  0.00    -0.270 OA
ATOM      3  N   UNL     1       3.386  -6.923   7.803  0.00  0.00    -0.289 N 
ENDROOT
BRANCH   1   7
ATOM      4  C   UNL     1       6.430 -10.453   5.837  0.00  0.00    +0.157 A 
ATOM      5  C   UNL     1       5.241 -10.378   5.120  0.00  0.00    +0.085 A 
ATOM      6  C   UNL     1       4.362  -9.340   5.346  0.00  0.00    +0.036 A 
ATOM      7  C   UNL     1       4.668  -8.363   6.297  0.00  0.00    +0.040 A 
ATOM      8  C   UNL     1       5.864  -8.442   7.015  0.00  0.00    +0.036 A 
ATOM      9  C   UNL     1       6.735  -9.485   6.788  0.00  0.00    +0.085 A 
ATOM     10 CL   UNL     1       8.218  -9.588   7.684  0.00  0.00    -0.080 Cl
ATOM     11 CL   UNL     1       4.862 -11.592   3.939  0.00  0.00    -0.080 Cl
BRANCH   4  12
ATOM     12  O   UNL     1       7.293 -11.477   5.612  0.00  0.00    -0.489 OA
BRANCH  12  13
ATOM     13  C   UNL     1       7.117 -12.658   6.397  0.00  0.00    +0.229 C 
BRANCH  13  14
ATOM     14  C   UNL     1       8.173 -13.693   6.005  0.00  0.00    +0.041 C 
BRANCH  14  15
ATOM     15  C   UNL     1       7.985 -14.957   6.846  0.00  0.00    +0.003 C 
BRANCH  15  17
ATOM     16  C   UNL     1       8.853 -17.256   7.295  0.00  0.00    +0.004 C 
ATOM     17  C   UNL     1       9.041 -15.992   6.454  0.00  0.00    -0.003 C 
ENDBRANCH  15  17
ENDBRANCH  14  15
ENDBRANCH  13  14
ENDBRANCH  12  13
ENDBRANCH   4  12
ENDBRANCH   1   7
BRANCH   3  18
ATOM     18  C   UNL     1       2.364  -5.902   8.043  0.00  0.00    +0.099 C 
ATOM     19  C   UNL     1       2.862  -4.546   7.515  0.00  0.00    +0.047 C 
ATOM     20  C   UNL     1       1.658  -3.562   7.493  0.00  0.00    +0.168 C 
ATOM     21  S   UNL     1       0.326  -4.675   6.873  0.00  0.00    -0.029 S 
ATOM     22  O   UNL     1       0.257  -4.569   5.457  0.00  0.00    -0.174 OA
ATOM     23  O   UNL     1      -0.847  -4.467   7.647  0.00  0.00    -0.174 OA
ATOM     24  C   UNL     1       1.058  -6.302   7.315  0.00  0.00    +0.188 C 
ENDBRANCH   3  18
BRANCH   3  25
ATOM     25  C   UNL     1       4.036  -7.589   8.935  0.00  0.00    +0.143 C 
BRANCH  25  26
ATOM     26  C   UNL     1       4.342  -6.574  10.007  0.00  0.00    -0.030 A 
ATOM     27  C   UNL     1       5.499  -5.821   9.935  0.00  0.00    +0.005 A 
ATOM     28  C   UNL     1       5.780  -4.890  10.917  0.00  0.00    +0.004 A 
ATOM     29  C   UNL     1       4.904  -4.712  11.972  0.00  0.00    -0.045 A 
ATOM     30  C   UNL     1       3.747  -5.465  12.043  0.00  0.00    +0.004 A 
ATOM     31  C   UNL     1       3.464  -6.393  11.058  0.00  0.00    +0.005 A 
BRANCH  29  32
ATOM     32  C   UNL     1       5.211  -3.698  13.043  0.00  0.00    +0.013 C 
ATOM     33  C   UNL     1       4.095  -2.654  13.092  0.00  0.00    +0.012 C 
ATOM     34  C   UNL     1       5.311  -4.402  14.398  0.00  0.00    +0.012 C 
ENDBRANCH  29  32
ENDBRANCH  25  26
ENDBRANCH   3  25
TORSDOF 10
