REMARK  Name = ZINC53211293
REMARK  5 active torsions:
REMARK  status: ('A' for Active; 'I' for Inactive)
REMARK    1  A    between atoms: C_4  and  N_9
REMARK    2  A    between atoms: C_5  and  C_6
REMARK    3  A    between atoms: C_10  and  C_12
REMARK    4  A    between atoms: C_12  and  N_13
REMARK    5  A    between atoms: C_17  and  C_19
REMARK                            x       y       z     vdW  Elec       q    Type
REMARK                         _______ _______ _______ _____ _____    ______ ____
ROOT
ATOM      1  N   UNL     1       1.543  -1.963  -0.023  0.00  0.00    -0.281 N 
ATOM      2  C   UNL     1       2.826  -2.376  -0.037  0.00  0.00    +0.201 C 
ATOM      3  O   UNL     1       3.725  -1.562  -0.041  0.00  0.00    -0.278 OA
ATOM      4  H   UNL     1       0.824  -2.614  -0.020  0.00  0.00    +0.155 HD
ENDROOT
BRANCH   1   8
ATOM      5  C   UNL     1      -0.018   1.441   0.010  0.00  0.00    +0.022 A 
ATOM      6  C   UNL     1       1.186   2.044   0.002  0.00  0.00    +0.048 A 
ATOM      7  S   UNL     1       2.328   0.679  -0.017  0.00  0.00    -0.081 S 
ATOM      8  C   UNL     1       1.251  -0.607  -0.013  0.00  0.00    +0.084 A 
ATOM      9  C   UNL     1       0.002  -0.004   0.002  0.00  0.00    +0.065 A 
BRANCH   9  10
ATOM     10  C   UNL     1      -1.234  -0.792   0.010  0.00  0.00    +0.244 C 
ATOM     11  O   UNL     1      -1.181  -2.008   0.003  0.00  0.00    -0.270 OA
ATOM     12  N   UNL     1      -2.430  -0.170   0.024  0.00  0.00    -0.325 N 
ATOM     13  H   UNL     1      -2.472   0.800   0.029  0.00  0.00    +0.145 HD
ATOM     14  H   UNL     1      -3.248  -0.691   0.029  0.00  0.00    +0.145 HD
ENDBRANCH   9  10
ENDBRANCH   1   8
BRANCH   2  15
ATOM     15  C   UNL     1       3.143  -3.849  -0.048  0.00  0.00    +0.019 C 
BRANCH  15  16
ATOM     16  N   UNL     1       4.600  -4.036  -0.062  0.00  0.00    +0.387 N 
ATOM     17  C   UNL     1       5.177  -3.542   1.206  0.00  0.00    -0.078 C 
ATOM     18  C   UNL     1       5.300  -4.800   2.101  0.00  0.00    -0.020 C 
ATOM     19  C   UNL     1       5.704  -5.883   1.066  0.00  0.00    -0.017 C 
ATOM     20  C   UNL     1       4.915  -5.471  -0.194  0.00  0.00    -0.065 C 
ATOM     21  H   UNL     1       5.001  -3.528  -0.837  0.00  0.00    -0.081 HD
BRANCH  20  22
ATOM     22  C   UNL     1       5.768  -5.704  -1.442  0.00  0.00    -0.025 C 
ATOM     23  C   UNL     1       4.999  -5.240  -2.681  0.00  0.00    +0.002 C 
ATOM     24  C   UNL     1       5.853  -5.473  -3.929  0.00  0.00    +0.000 C 
ATOM     25  C   UNL     1       6.173  -6.964  -4.056  0.00  0.00    +0.000 C 
ATOM     26  C   UNL     1       6.943  -7.428  -2.818  0.00  0.00    +0.000 C 
ATOM     27  C   UNL     1       6.089  -7.194  -1.570  0.00  0.00    +0.002 C 
ENDBRANCH  20  22
ENDBRANCH  15  16
ENDBRANCH   2  15
TORSDOF 5
