REMARK  Name = ZINC57606473
REMARK  5 active torsions:
REMARK  status: ('A' for Active; 'I' for Inactive)
REMARK    1  A    between atoms: C_1  and  C_2
REMARK    2  A    between atoms: C_6  and  N_9
REMARK    3  A    between atoms: C_7  and  C_8
REMARK    4  A    between atoms: N_12  and  C_15
REMARK    5  A    between atoms: C_21  and  N_23
REMARK                            x       y       z     vdW  Elec       q    Type
REMARK                         _______ _______ _______ _____ _____    ______ ____
ROOT
ATOM      1  N   UNL     1       0.025  -2.796   2.391  0.00  0.00    -0.327 N 
ATOM      2  C   UNL     1      -1.215  -3.190   3.075  0.00  0.00    +0.120 C 
ATOM      3  C   UNL     1      -1.143  -4.688   3.390  0.00  0.00    +0.103 C 
ATOM      4  N   UNL     1       0.093  -4.971   4.133  0.00  0.00    -0.296 NA
ATOM      5  C   UNL     1       1.281  -4.666   3.325  0.00  0.00    +0.103 C 
ATOM      6  C   UNL     1       1.308  -3.172   3.004  0.00  0.00    +0.120 C 
ENDROOT
BRANCH   1  12
ATOM      7  C   UNL     1      -0.068   1.502   0.011  0.00  0.00    +0.044 C 
ATOM      8  C   UNL     1      -0.060  -0.004   0.003  0.00  0.00    -0.046 A 
ATOM      9  C   UNL     1      -0.091  -0.689  -1.198  0.00  0.00    +0.004 A 
ATOM     10  C   UNL     1      -0.085  -2.072  -1.210  0.00  0.00    +0.002 A 
ATOM     11  C   UNL     1      -0.046  -2.774  -0.021  0.00  0.00    +0.023 A 
ATOM     12  C   UNL     1      -0.014  -2.090   1.187  0.00  0.00    +0.033 A 
ATOM     13  C   UNL     1      -0.015  -0.700   1.195  0.00  0.00    -0.027 A 
ATOM     14  C   UNL     1       0.025   0.046   2.503  0.00  0.00    +0.046 C 
ENDBRANCH   1  12
BRANCH   4  15
ATOM     15  C   UNL     1       0.119  -6.362   4.603  0.00  0.00    +0.068 C 
ATOM     16  C   UNL     1      -0.178  -7.303   3.432  0.00  0.00    +0.177 C 
ATOM     17  O   UNL     1      -0.209  -8.652   3.903  0.00  0.00    -0.378 OA
ATOM     18  C   UNL     1      -1.218  -8.904   4.884  0.00  0.00    +0.158 C 
ATOM     19  C   UNL     1      -0.963  -8.027   6.113  0.00  0.00    +0.013 C 
ATOM     20  C   UNL     1      -0.946  -6.556   5.687  0.00  0.00    -0.053 C 
BRANCH  20  21
ATOM     21  N   UNL     1      -0.626  -5.712   6.846  0.00  0.00    +0.381 N 
ATOM     22  H   UNL     1      -0.688  -4.740   6.582  0.00  0.00    -0.090 HD
ATOM     23  H   UNL     1      -1.280  -5.900   7.591  0.00  0.00    -0.090 HD
ATOM     24  H   UNL     1       0.311  -5.915   7.162  0.00  0.00    -0.090 HD
ENDBRANCH  20  21
ENDBRANCH   4  15
TORSDOF 3
