REMARK  Name = ZINC09328968
REMARK  11 active torsions:
REMARK  status: ('A' for Active; 'I' for Inactive)
REMARK    1  A    between atoms: C_1  and  C_2
REMARK    2  A    between atoms: C_2  and  O_3
REMARK    3  A    between atoms: O_3  and  C_4
REMARK    4  A    between atoms: C_7  and  C_10
REMARK    5  A    between atoms: C_17  and  N_33
REMARK    6  A    between atoms: C_18  and  C_31
REMARK    7  A    between atoms: C_19  and  C_21
REMARK    8  A    between atoms: C_24  and  O_29
REMARK    9  A    between atoms: C_26  and  O_27
REMARK   10  A    between atoms: O_27  and  C_28
REMARK   11  A    between atoms: O_29  and  C_30
REMARK                            x       y       z     vdW  Elec       q    Type
REMARK                         _______ _______ _______ _____ _____    ______ ____
ROOT
ATOM      1  C   UNL     1       1.149  -6.048   1.762  0.00  0.00    +0.074 A 
ATOM      2  C   UNL     1       1.015  -6.739   2.920  0.00  0.00    +0.054 A 
ATOM      3  C   UNL     1       1.197  -8.107   2.636  0.00  0.00    +0.245 A 
ATOM      4  N   UNL     1       1.433  -8.233   1.361  0.00  0.00    -0.135 NA
ATOM      5  N   UNL     1       1.404  -6.958   0.775  0.00  0.00    -0.273 N 
ATOM      6  H   UNL     1       1.543  -6.758  -0.163  0.00  0.00    +0.189 HD
ATOM      7  O   UNL     1       1.119  -9.060   3.604  0.00  0.00    -0.421 OA
ATOM      8  C   UNL     1       0.595  -8.697   4.792  0.00  0.00    +0.201 C 
ATOM      9  C   UNL     1       0.386  -7.421   5.178  0.00  0.00    +0.098 C 
ATOM     10  C   UNL     1       0.724  -6.235   4.311  0.00  0.00    +0.105 C 
ENDROOT
BRANCH   1  14
ATOM     11  C   UNL     1       0.819  -1.838   1.285  0.00  0.00    +0.121 A 
ATOM     12  C   UNL     1       1.885  -2.518   0.713  0.00  0.00    +0.046 A 
ATOM     13  C   UNL     1       1.996  -3.884   0.865  0.00  0.00    +0.013 A 
ATOM     14  C   UNL     1       1.034  -4.582   1.596  0.00  0.00    +0.000 A 
ATOM     15  C   UNL     1      -0.036  -3.895   2.170  0.00  0.00    +0.013 A 
ATOM     16  C   UNL     1      -0.137  -2.529   2.017  0.00  0.00    +0.046 A 
BRANCH  11  17
ATOM     17  O   UNL     1       0.713  -0.492   1.132  0.00  0.00    -0.492 OA
BRANCH  17  19
ATOM     18  C   UNL     1       1.445   1.658   0.305  0.00  0.00    +0.048 C 
ATOM     19  C   UNL     1       1.731   0.156   0.366  0.00  0.00    +0.225 C 
ENDBRANCH  17  19
ENDBRANCH  11  17
ENDBRANCH   1  14
BRANCH  10  20
ATOM     20  C   UNL     1       1.938  -5.532   4.861  0.00  0.00    +0.007 A 
ATOM     21  C   UNL     1       3.157  -6.182   4.893  0.00  0.00    +0.012 A 
ATOM     22  C   UNL     1       4.272  -5.540   5.396  0.00  0.00    +0.046 A 
ATOM     23  C   UNL     1       4.170  -4.240   5.872  0.00  0.00    +0.124 A 
ATOM     24  C   UNL     1       2.948  -3.586   5.841  0.00  0.00    +0.091 A 
ATOM     25  C   UNL     1       1.832  -4.230   5.330  0.00  0.00    +0.128 A 
BRANCH  25  26
ATOM     26  O   UNL     1       0.634  -3.590   5.293  0.00  0.00    -0.495 OA
ATOM     27  C   UNL     1       0.599  -2.251   5.792  0.00  0.00    +0.277 C 
ENDBRANCH  25  26
BRANCH  23  28
ATOM     28  O   UNL     1       5.266  -3.609   6.368  0.00  0.00    -0.495 OA
ATOM     29  C   UNL     1       6.492  -4.344   6.369  0.00  0.00    +0.277 C 
ENDBRANCH  23  28
ENDBRANCH  10  20
BRANCH   8  30
ATOM     30  N   UNL     1       0.251  -9.695   5.670  0.00  0.00    -0.328 N 
ATOM     31  H   UNL     1       0.388 -10.624   5.426  0.00  0.00    +0.145 HD
ATOM     32  H   UNL     1      -0.128  -9.471   6.534  0.00  0.00    +0.145 HD
ENDBRANCH   8  30
BRANCH   9  33
ATOM     33  C   UNL     1      -0.183  -7.183   6.471  0.00  0.00    +0.101 C 
ATOM     34  N   UNL     1      -0.635  -6.993   7.496  0.00  0.00    -0.191 NA
ENDBRANCH   9  33
TORSDOF 8
