REMARK  Name = ZINC10619225
REMARK  9 active torsions:
REMARK  status: ('A' for Active; 'I' for Inactive)
REMARK    1  A    between atoms: C_1  and  C_2
REMARK    2  A    between atoms: C_2  and  O_3
REMARK    3  A    between atoms: O_3  and  C_4
REMARK    4  A    between atoms: C_12  and  N_17
REMARK    5  A    between atoms: C_13  and  C_14
REMARK    6  A    between atoms: C_18  and  C_20
REMARK    7  A    between atoms: C_20  and  S_21
REMARK    8  A    between atoms: S_21  and  C_24
REMARK    9  A    between atoms: C_24  and  C_25
REMARK                            x       y       z     vdW  Elec       q    Type
REMARK                         _______ _______ _______ _____ _____    ______ ____
ROOT
ATOM      1  C   UNL     1      -0.858  -7.665   9.576  0.00  0.00    +0.403 C 
ATOM      2  O   UNL     1      -1.012  -8.842   9.838  0.00  0.00    -0.226 OA
ATOM      3  N   UNL     1      -0.044  -7.302   8.565  0.00  0.00    -0.262 N 
ATOM      4  C   UNL     1       0.669  -8.306   7.761  0.00  0.00    +0.116 C 
ATOM      5  C   UNL     1       0.171  -8.252   6.315  0.00  0.00    +0.056 C 
ATOM      6  C   UNL     1       0.149  -6.803   5.845  0.00  0.00    -0.020 A 
ATOM      7  C   UNL     1       0.144  -5.780   6.727  0.00  0.00    +0.013 A 
ATOM      8  S   UNL     1       0.115  -4.319   5.728  0.00  0.00    -0.076 S 
ATOM      9  C   UNL     1       0.110  -5.054   4.159  0.00  0.00    +0.084 A 
ATOM     10  C   UNL     1       0.126  -6.411   4.446  0.00  0.00    +0.068 A 
ATOM     11  C   UNL     1       0.164  -5.881   8.222  0.00  0.00    +0.153 C 
ENDROOT
BRANCH  10  12
ATOM     12  C   UNL     1       0.122  -7.414   3.376  0.00  0.00    +0.244 C 
ATOM     13  O   UNL     1       1.175  -7.821   2.920  0.00  0.00    -0.270 OA
ATOM     14  N   UNL     1      -1.046  -7.885   2.897  0.00  0.00    -0.325 N 
ATOM     15  H   UNL     1      -1.885  -7.560   3.260  0.00  0.00    +0.145 HD
ATOM     16  H   UNL     1      -1.048  -8.548   2.189  0.00  0.00    +0.145 HD
ENDBRANCH  10  12
BRANCH   9  17
ATOM     17  N   UNL     1       0.090  -4.435   2.918  0.00  0.00    -0.278 N 
ATOM     18  C   UNL     1       0.071  -3.090   2.836  0.00  0.00    +0.239 C 
ATOM     19  O   UNL     1       0.071  -2.421   3.847  0.00  0.00    -0.274 OA
ATOM     20  H   UNL     1       0.090  -4.971   2.109  0.00  0.00    +0.155 HD
BRANCH  18  21
ATOM     21  C   UNL     1       0.049  -2.418   1.487  0.00  0.00    +0.262 C 
BRANCH  21  22
ATOM     22  S   UNL     1       0.027  -0.618   1.709  0.00  0.00    -0.019 S 
ATOM     23  O   UNL     1       1.252  -0.224   2.311  0.00  0.00    -0.174 OA
ATOM     24  O   UNL     1      -1.198  -0.257   2.334  0.00  0.00    -0.174 OA
BRANCH  22  25
ATOM     25  C   UNL     1       0.002  -0.004   0.002  0.00  0.00    +0.201 C 
BRANCH  25  26
ATOM     26  C   UNL     1      -0.018   1.503   0.010  0.00  0.00    -0.027 A 
ATOM     27  C   UNL     1      -1.225   2.178   0.020  0.00  0.00    +0.005 A 
ATOM     28  C   UNL     1      -1.244   3.560   0.032  0.00  0.00    +0.000 A 
ATOM     29  C   UNL     1      -0.056   4.267   0.025  0.00  0.00    +0.000 A 
ATOM     30  C   UNL     1       1.151   3.592   0.010  0.00  0.00    +0.000 A 
ATOM     31  C   UNL     1       1.169   2.210   0.003  0.00  0.00    +0.005 A 
ENDBRANCH  25  26
ENDBRANCH  22  25
ENDBRANCH  21  22
ENDBRANCH  18  21
ENDBRANCH   9  17
BRANCH   1  32
ATOM     32  O   UNL     1      -1.499  -6.725  10.296  0.00  0.00    -0.451 OA
BRANCH  32  34
ATOM     33  C   UNL     1      -2.996  -5.987  12.069  0.00  0.00    +0.048 C 
ATOM     34  C   UNL     1      -2.359  -7.189  11.370  0.00  0.00    +0.230 C 
ENDBRANCH  32  34
ENDBRANCH   1  32
TORSDOF 8
