REMARK  Name = ZINC29517151
REMARK  8 active torsions:
REMARK  status: ('A' for Active; 'I' for Inactive)
REMARK    1  A    between atoms: C_1  and  C_2
REMARK    2  A    between atoms: C_4  and  C_13
REMARK    3  A    between atoms: C_5  and  C_12
REMARK    4  A    between atoms: C_14  and  C_15
REMARK    5  A    between atoms: C_15  and  O_17
REMARK    6  A    between atoms: O_17  and  C_18
REMARK    7  A    between atoms: C_18  and  C_19
REMARK    8  A    between atoms: C_23  and  C_32
REMARK                            x       y       z     vdW  Elec       q    Type
REMARK                         _______ _______ _______ _____ _____    ______ ____
ROOT
ATOM      1  C   UNL     1       2.538  -2.676  -0.019  0.00  0.00    +0.328 C 
ENDROOT
BRANCH   1   2
ATOM      2  C   UNL     1       2.359  -4.172  -0.043  0.00  0.00    +0.258 C 
ATOM      3  O   UNL     1       1.249  -4.651   0.043  0.00  0.00    -0.272 OA
ATOM      4  N   UNL     1       3.434  -4.977  -0.159  0.00  0.00    -0.261 N 
ATOM      5  C   UNL     1       4.801  -4.428  -0.172  0.00  0.00    +0.168 C 
ATOM      6  C   UNL     1       5.591  -5.177  -1.254  0.00  0.00    +0.276 C 
ATOM      7  O   UNL     1       5.574  -6.574  -0.952  0.00  0.00    -0.476 OA
ATOM      8  C   UNL     1       4.374  -7.147  -0.673  0.00  0.00    +0.143 A 
ATOM      9  C   UNL     1       3.290  -6.371  -0.267  0.00  0.00    +0.078 A 
ATOM     10  C   UNL     1       2.073  -6.968   0.013  0.00  0.00    +0.027 A 
ATOM     11  C   UNL     1       1.935  -8.340  -0.104  0.00  0.00    +0.002 A 
ATOM     12  C   UNL     1       3.009  -9.112  -0.503  0.00  0.00    +0.004 A 
ATOM     13  C   UNL     1       4.226  -8.521  -0.788  0.00  0.00    +0.047 A 
BRANCH   6  14
ATOM     14  C   UNL     1       7.015  -4.682  -1.273  0.00  0.00    +0.253 C 
ATOM     15  O   UNL     1       7.921  -5.430  -0.974  0.00  0.00    -0.272 OA
ATOM     16  N   UNL     1       7.280  -3.408  -1.623  0.00  0.00    -0.326 N 
ATOM     17  H   UNL     1       8.319  -3.046  -1.637  0.00  0.00    +0.145 HD
ATOM     18  H   UNL     1       6.458  -2.729  -1.894  0.00  0.00    +0.145 HD
ENDBRANCH   6  14
ENDBRANCH   1   2
BRANCH   1  19
ATOM     19  O   UNL     1       1.257  -2.043  -0.006  0.00  0.00    -0.452 OA
BRANCH  19  20
ATOM     20  C   UNL     1       1.240  -0.694   0.016  0.00  0.00    +0.332 C 
ATOM     21  O   UNL     1       2.286  -0.072   0.024  0.00  0.00    -0.246 OA
BRANCH  20  23
ATOM     22  C   UNL     1      -0.010   1.351   0.051  0.00  0.00    +0.016 C 
ATOM     23  C   UNL     1       0.006  -0.002   0.029  0.00  0.00    +0.092 C 
BRANCH  22  27
ATOM     24  C   UNL     1      -5.005   2.373   0.053  0.00  0.00    +0.064 C 
ATOM     25  C   UNL     1      -3.503   2.502   0.060  0.00  0.00    +0.023 A 
ATOM     26  C   UNL     1      -2.634   1.478   0.039  0.00  0.00    +0.031 A 
ATOM     27  C   UNL     1      -1.290   2.069   0.059  0.00  0.00    -0.004 A 
ATOM     28  C   UNL     1      -1.475   3.437   0.081  0.00  0.00    +0.030 A 
ATOM     29  N   UNL     1      -2.809   3.680   0.081  0.00  0.00    -0.296 N 
ATOM     30  C   UNL     1      -3.389   4.947   0.100  0.00  0.00    +0.178 A 
ATOM     31  N   UNL     1      -2.801   6.127   0.126  0.00  0.00    -0.231 NA
ATOM     32  C   UNL     1      -3.504   7.241   0.137  0.00  0.00    +0.121 A 
ATOM     33  C   UNL     1      -4.857   7.151   0.131  0.00  0.00    +0.068 A 
ATOM     34  S   UNL     1      -5.071   5.377   0.102  0.00  0.00    -0.058 S 
ATOM     35  C   UNL     1      -0.385   4.478   0.101  0.00  0.00    +0.064 C 
ENDBRANCH  22  27
ENDBRANCH  20  23
ENDBRANCH  19  20
ENDBRANCH   1  19
TORSDOF 6
