REMARK  Name = ZINC09724127
REMARK  8 active torsions:
REMARK  status: ('A' for Active; 'I' for Inactive)
REMARK    1  A    between atoms: C_1  and  C_2
REMARK    2  A    between atoms: C_3  and  C_29
REMARK    3  A    between atoms: C_11  and  C_13
REMARK    4  A    between atoms: C_13  and  C_15
REMARK    5  A    between atoms: C_13  and  S_16
REMARK    6  A    between atoms: S_16  and  C_17
REMARK    7  A    between atoms: N_22  and  C_23
REMARK    8  A    between atoms: C_23  and  C_24
REMARK                            x       y       z     vdW  Elec       q    Type
REMARK                         _______ _______ _______ _____ _____    ______ ____
ROOT
ATOM      1  C   UNL     1       3.988  10.044   2.122  0.00  0.00    +0.116 C 
ATOM      2  C   UNL     1       5.194   9.554   1.318  0.00  0.00    +0.027 C 
ENDROOT
BRANCH   1  13
ATOM      3  C   UNL     1       5.647  15.509   5.634  0.00  0.00    +0.045 C 
ATOM      4  C   UNL     1       5.124  15.200   4.255  0.00  0.00    -0.026 A 
ATOM      5  C   UNL     1       4.878  16.191   3.383  0.00  0.00    -0.008 A 
ATOM      6  S   UNL     1       4.291  15.332   1.936  0.00  0.00    -0.073 S 
ATOM      7  C   UNL     1       4.394  13.668   2.543  0.00  0.00    +0.116 A 
ATOM      8  C   UNL     1       4.881  13.827   3.853  0.00  0.00    +0.075 A 
ATOM      9  C   UNL     1       5.066  12.615   4.596  0.00  0.00    +0.260 A 
ATOM     10  O   UNL     1       5.485  12.649   5.740  0.00  0.00    -0.267 OA
ATOM     11  N   UNL     1       4.771  11.440   4.010  0.00  0.00    -0.309 N 
ATOM     12  H   UNL     1       4.895  10.617   4.507  0.00  0.00    +0.170 HD
ATOM     13  C   UNL     1       4.304  11.384   2.736  0.00  0.00    +0.124 A 
ATOM     14  N   UNL     1       4.130  12.469   2.031  0.00  0.00    -0.225 NA
ATOM     15  C   UNL     1       5.054  17.674   3.582  0.00  0.00    +0.052 C 
ENDBRANCH   1  13
BRANCH   1  16
ATOM     16  S   UNL     1       3.611   8.851   3.436  0.00  0.00    -0.086 S 
BRANCH  16  17
ATOM     17  C   UNL     1       3.124   7.398   2.566  0.00  0.00    +0.161 A 
ATOM     18  N   UNL     1       3.042   7.191   1.265  0.00  0.00    -0.133 NA
ATOM     19  N   UNL     1       2.635   5.965   0.793  0.00  0.00    -0.125 NA
ATOM     20  C   UNL     1       2.329   5.003   1.641  0.00  0.00    +0.183 A 
ATOM     21  S   UNL     1       2.605   5.815   3.208  0.00  0.00    -0.025 S 
ATOM     22  N   UNL     1       1.900   3.706   1.385  0.00  0.00    -0.315 N 
ATOM     23  H   UNL     1       1.711   3.103   2.121  0.00  0.00    +0.148 HD
BRANCH  22  24
ATOM     24  C   UNL     1       1.735   3.249   0.003  0.00  0.00    +0.178 C 
BRANCH  24  25
ATOM     25  C   UNL     1       1.265   1.817  -0.000  0.00  0.00    +0.122 A 
ATOM     26  C   UNL     1      -0.017   1.410   0.010  0.00  0.00    +0.046 A 
ATOM     27  C   UNL     1       0.002  -0.004   0.002  0.00  0.00    +0.041 A 
ATOM     28  C   UNL     1       1.295  -0.376  -0.012  0.00  0.00    +0.195 A 
ATOM     29  O   UNL     1       2.055   0.731  -0.014  0.00  0.00    -0.466 OA
ENDBRANCH  24  25
ENDBRANCH  22  24
ENDBRANCH  16  17
ENDBRANCH   1  16
TORSDOF 5
