REMARK  Name = ZINC36949154
REMARK  9 active torsions:
REMARK  status: ('A' for Active; 'I' for Inactive)
REMARK    1  A    between atoms: C_1  and  C_2
REMARK    2  A    between atoms: C_2  and  C_3
REMARK    3  A    between atoms: C_2  and  N_4
REMARK    4  A    between atoms: N_4  and  C_5
REMARK    5  A    between atoms: C_5  and  C_6
REMARK    6  A    between atoms: C_6  and  C_8
REMARK    7  A    between atoms: C_6  and  O_19
REMARK    8  A    between atoms: C_8  and  O_9
REMARK    9  A    between atoms: O_9  and  C_10
REMARK                            x       y       z     vdW  Elec       q    Type
REMARK                         _______ _______ _______ _____ _____    ______ ____
ROOT
ATOM      1  C   UNL     1      -0.084  -0.238   4.893  0.00  0.00    +0.258 C 
ENDROOT
BRANCH   1   2
ATOM      2  C   UNL     1       0.700  -0.626   3.637  0.00  0.00    +0.135 C 
BRANCH   2   3
ATOM      3  O   UNL     1       0.821  -2.048   3.571  0.00  0.00    -0.390 OA
ATOM      4  H   UNL     1      -0.025  -2.514   3.534  0.00  0.00    +0.210 HD
ENDBRANCH   2   3
BRANCH   2   5
ATOM      5  C   UNL     1      -0.040  -0.119   2.398  0.00  0.00    -0.047 C 
BRANCH   5   6
ATOM      6  N   UNL     1       0.713  -0.491   1.192  0.00  0.00    +0.382 N 
ATOM      7  H   UNL     1       0.798  -1.495   1.145  0.00  0.00    -0.085 HD
ATOM      8  H   UNL     1       1.632  -0.076   1.228  0.00  0.00    -0.085 HD
BRANCH   6  10
ATOM      9  C   UNL     1      -0.019   1.526   0.010  0.00  0.00    -0.014 C 
ATOM     10  C   UNL     1       0.002  -0.004   0.002  0.00  0.00    -0.078 C 
ATOM     11  C   UNL     1       0.718  -0.497  -1.257  0.00  0.00    -0.014 C 
ENDBRANCH   6  10
ENDBRANCH   5   6
ENDBRANCH   2   5
ENDBRANCH   1   2
BRANCH   1  12
ATOM     12  O   UNL     1       0.663  -0.608   6.054  0.00  0.00    -0.487 OA
BRANCH  12  13
ATOM     13  C   UNL     1       0.104  -0.332   7.262  0.00  0.00    +0.148 A 
ATOM     14  C   UNL     1       0.346   0.888   7.877  0.00  0.00    +0.062 A 
ATOM     15  C   UNL     1      -0.223   1.167   9.105  0.00  0.00    +0.034 A 
ATOM     16  C   UNL     1      -1.034   0.230   9.721  0.00  0.00    +0.020 A 
ATOM     17  C   UNL     1      -1.277  -0.987   9.110  0.00  0.00    +0.034 A 
ATOM     18  C   UNL     1      -0.714  -1.268   7.879  0.00  0.00    +0.062 A 
ATOM     19 BR   UNL     1      -1.053  -2.928   7.040  0.00  0.00    -0.046 Br
ATOM     20 BR   UNL     1      -1.812   0.614  11.401  0.00  0.00    -0.050 Br
ATOM     21 BR   UNL     1       1.455   2.168   7.036  0.00  0.00    -0.046 Br
ENDBRANCH  12  13
ENDBRANCH   1  12
TORSDOF 7
