REMARK  Name = ZINC36612784
REMARK  9 active torsions:
REMARK  status: ('A' for Active; 'I' for Inactive)
REMARK    1  A    between atoms: C_1  and  C_2
REMARK    2  A    between atoms: C_2  and  O_4
REMARK    3  A    between atoms: O_4  and  C_5
REMARK    4  A    between atoms: C_9  and  C_37
REMARK    5  A    between atoms: C_21  and  C_36
REMARK    6  A    between atoms: N_27  and  N_28
REMARK    7  A    between atoms: C_29  and  C_31
REMARK    8  A    between atoms: C_31  and  C_32
REMARK    9  A    between atoms: C_32  and  C_33
REMARK                            x       y       z     vdW  Elec       q    Type
REMARK                         _______ _______ _______ _____ _____    ______ ____
ROOT
ATOM      1  C   UNL     1      -1.057  -2.118   0.001  0.00  0.00    +0.177 C 
ATOM      2  C   UNL     1      -1.008  -2.633   1.438  0.00  0.00    +0.045 C 
ATOM      3  C   UNL     1      -0.980  -4.158   1.468  0.00  0.00    +0.011 C 
ATOM      4  C   UNL     1      -2.206  -4.743   0.748  0.00  0.00    -0.026 C 
ATOM      5  C   UNL     1      -2.192  -4.222  -0.693  0.00  0.00    -0.001 C 
ATOM      6  C   UNL     1      -2.273  -2.701  -0.724  0.00  0.00    +0.048 C 
ATOM      7  C   UNL     1      -3.337  -4.847  -1.486  0.00  0.00    +0.004 C 
ATOM      8  C   UNL     1      -3.089  -6.356  -1.577  0.00  0.00    +0.004 C 
ATOM      9  C   UNL     1      -3.065  -6.971  -0.178  0.00  0.00    -0.003 C 
ATOM     10  C   UNL     1      -2.089  -6.260   0.734  0.00  0.00    -0.001 C 
ATOM     11  C   UNL     1      -2.072  -6.872   2.124  0.00  0.00    +0.005 C 
ATOM     12  C   UNL     1      -3.447  -7.079   2.726  0.00  0.00    +0.013 C 
ATOM     13  C   UNL     1      -4.461  -7.690   1.794  0.00  0.00    +0.011 C 
ATOM     14  C   UNL     1      -4.477  -7.069   0.388  0.00  0.00    +0.004 C 
ATOM     15  C   UNL     1      -5.218  -8.163  -0.437  0.00  0.00    +0.010 C 
ATOM     16  C   UNL     1      -4.780  -9.495   0.204  0.00  0.00    +0.053 C 
ATOM     17  C   UNL     1      -4.238  -9.169   1.582  0.00  0.00    +0.043 C 
ATOM     18  N   UNL     1      -3.699  -9.988   2.407  0.00  0.00    -0.189 NA
ATOM     19  C   UNL     1      -5.852  -7.505   2.417  0.00  0.00    +0.018 C 
ATOM     20  C   UNL     1      -3.466  -4.271   1.465  0.00  0.00    +0.012 C 
ENDROOT
BRANCH  18  21
ATOM     21  N   UNL     1      -3.562 -11.339   2.063  0.00  0.00    -0.207 N 
ATOM     22  C   UNL     1      -2.995 -12.201   2.930  0.00  0.00    +0.233 C 
ATOM     23  O   UNL     1      -2.604 -11.806   4.009  0.00  0.00    -0.274 OA
ATOM     24  H   UNL     1      -3.875 -11.655   1.201  0.00  0.00    +0.177 HD
BRANCH  22  25
ATOM     25  C   UNL     1      -2.848 -13.654   2.561  0.00  0.00    +0.109 C 
BRANCH  25  26
ATOM     26  C   UNL     1      -2.179 -14.408   3.712  0.00  0.00    +0.134 C 
BRANCH  26  27
ATOM     27  C   UNL     1      -2.031 -15.861   3.343  0.00  0.00    +0.356 C 
ATOM     28  O   UNL     1      -2.424 -16.258   2.259  0.00  0.00    -0.246 OA
ATOM     29  O   UNL     1      -1.518 -16.641   4.127  0.00  0.00    -0.246 OA
ENDBRANCH  26  27
ENDBRANCH  25  26
ENDBRANCH  22  25
ENDBRANCH  18  21
BRANCH   1  30
ATOM     30  O   UNL     1      -1.151  -0.691   0.009  0.00  0.00    -0.462 OA
BRANCH  30  32
ATOM     31  C   UNL     1      -0.018   1.503   0.010  0.00  0.00    +0.136 C 
ATOM     32  C   UNL     1       0.002  -0.004   0.002  0.00  0.00    +0.304 C 
ATOM     33  O   UNL     1       1.056  -0.594  -0.011  0.00  0.00    -0.251 OA
ENDBRANCH  30  32
ENDBRANCH   1  30
TORSDOF 6
