REMARK  Name = ZINC20694428
REMARK  7 active torsions:
REMARK  status: ('A' for Active; 'I' for Inactive)
REMARK    1  A    between atoms: C_1  and  O_2
REMARK    2  A    between atoms: O_2  and  C_3
REMARK    3  A    between atoms: C_7  and  C_10
REMARK    4  A    between atoms: C_8  and  O_9
REMARK    5  A    between atoms: C_21  and  O_26
REMARK    6  A    between atoms: O_26  and  C_27
REMARK    7  A    between atoms: C_27  and  C_28
REMARK                            x       y       z     vdW  Elec       q    Type
REMARK                         _______ _______ _______ _____ _____    ______ ____
ROOT
ATOM      1  C   UNL     1      -1.320   3.531   0.036  0.00  0.00    +0.109 C 
ATOM      2  C   UNL     1      -0.106   4.003   0.815  0.00  0.00    +0.029 C 
ATOM      3  C   UNL     1       0.181   5.510   0.823  0.00  0.00    +0.033 C 
ATOM      4  C   UNL     1       1.702   5.532   0.984  0.00  0.00    -0.030 C 
ATOM      5  C   UNL     1       2.225   4.407   0.511  0.00  0.00    -0.023 C 
ATOM      6  C   UNL     1       1.128   3.563  -0.029  0.00  0.00    +0.049 C 
ATOM      7  C   UNL     1       1.194   2.086   0.002  0.00  0.00    -0.016 A 
ATOM      8  C   UNL     1       2.389   1.400   0.005  0.00  0.00    +0.051 A 
ATOM      9  C   UNL     1       2.400   0.013   0.004  0.00  0.00    +0.121 A 
ATOM     10  C   UNL     1       1.201  -0.686  -0.001  0.00  0.00    +0.047 A 
ATOM     11  C   UNL     1       0.002  -0.004   0.002  0.00  0.00    +0.027 A 
ATOM     12  C   UNL     1      -0.017   1.385   0.010  0.00  0.00    +0.032 A 
ATOM     13  N   UNL     1      -1.250   2.054   0.045  0.00  0.00    -0.336 N 
ATOM     14  H   UNL     1      -2.175   1.459   0.081  0.00  0.00    +0.147 HD
ENDROOT
BRANCH   1  19
ATOM     15  C   UNL     1      -4.253   5.689   1.071  0.00  0.00    +0.162 A 
ATOM     16  C   UNL     1      -4.911   4.847   1.952  0.00  0.00    +0.049 A 
ATOM     17  C   UNL     1      -4.407   3.586   2.210  0.00  0.00    +0.004 A 
ATOM     18  C   UNL     1      -3.247   3.162   1.590  0.00  0.00    +0.009 A 
ATOM     19  C   UNL     1      -2.585   3.997   0.710  0.00  0.00    +0.018 A 
ATOM     20  C   UNL     1      -3.081   5.264   0.451  0.00  0.00    +0.163 A 
BRANCH  15  22
ATOM     21  C   UNL     1      -5.950   7.301   1.492  0.00  0.00    +0.277 C 
ATOM     22  O   UNL     1      -4.747   6.930   0.816  0.00  0.00    -0.491 OA
ENDBRANCH  15  22
BRANCH  20  23
ATOM     23  O   UNL     1      -2.428   6.090  -0.410  0.00  0.00    -0.503 OA
ATOM     24  H   UNL     1      -1.502   5.753  -0.899  0.00  0.00    +0.292 HD
ENDBRANCH  20  23
ENDBRANCH   1  19
BRANCH   9  25
ATOM     25  O   UNL     1       3.581  -0.659   0.007  0.00  0.00    -0.489 OA
BRANCH  25  26
ATOM     26  C   UNL     1       3.515  -2.087   0.006  0.00  0.00    +0.260 C 
BRANCH  26  27
ATOM     27  C   UNL     1       4.932  -2.663   0.011  0.00  0.00    +0.156 C 
ATOM     28  C   UNL     1       4.883  -4.211   0.065  0.00  0.00    +0.037 C 
ATOM     29  C   UNL     1       6.253  -4.572  -0.574  0.00  0.00    +0.031 C 
ATOM     30  C   UNL     1       6.433  -3.449  -1.617  0.00  0.00    +0.160 C 
ATOM     31  O   UNL     1       5.601  -2.352  -1.222  0.00  0.00    -0.373 OA
ENDBRANCH  26  27
ENDBRANCH  25  26
ENDBRANCH   9  25
TORSDOF 6
