REMARK  Name = ZINC11867357
REMARK  6 active torsions:
REMARK  status: ('A' for Active; 'I' for Inactive)
REMARK    1  A    between atoms: C_1  and  C_2
REMARK    2  A    between atoms: C_6  and  C_32
REMARK    3  A    between atoms: C_10  and  C_31
REMARK    4  A    between atoms: C_15  and  C_16
REMARK    5  A    between atoms: C_16  and  C_17
REMARK    6  A    between atoms: C_22  and  O_30
REMARK                            x       y       z     vdW  Elec       q    Type
REMARK                         _______ _______ _______ _____ _____    ______ ____
ROOT
ATOM      1  C   UNL     1      -6.096  -2.741  -3.478  0.00  0.00    +0.045 C 
ATOM      2  C   UNL     1      -6.650  -1.944  -4.630  0.00  0.00    -0.029 A 
ATOM      3  C   UNL     1      -7.061  -2.605  -5.873  0.00  0.00    +0.022 A 
ATOM      4  C   UNL     1      -6.949  -3.988  -6.018  0.00  0.00    +0.024 A 
ATOM      5  C   UNL     1      -7.347  -4.581  -7.205  0.00  0.00    +0.029 A 
ATOM      6  C   UNL     1      -7.371  -5.972  -7.699  0.00  0.00    +0.028 A 
ATOM      7  C   UNL     1      -7.875  -5.911  -8.951  0.00  0.00    +0.204 A 
ATOM      8  O   UNL     1      -8.160  -4.638  -9.273  0.00  0.00    -0.462 OA
ATOM      9  C   UNL     1      -7.861  -3.800  -8.258  0.00  0.00    +0.142 A 
ATOM     10  C   UNL     1      -7.970  -2.425  -8.108  0.00  0.00    +0.035 A 
ATOM     11  C   UNL     1      -7.576  -1.821  -6.927  0.00  0.00    +0.146 A 
ATOM     12  O   UNL     1      -7.681  -0.482  -6.775  0.00  0.00    -0.422 OA
ATOM     13  C   UNL     1      -7.311   0.126  -5.637  0.00  0.00    +0.341 A 
ATOM     14  O   UNL     1      -7.429   1.335  -5.546  0.00  0.00    -0.245 OA
ATOM     15  C   UNL     1      -6.783  -0.596  -4.546  0.00  0.00    +0.049 A 
ATOM     16  C   UNL     1      -8.520  -1.587  -9.233  0.00  0.00    +0.051 C 
ENDROOT
BRANCH   6  17
ATOM     17  C   UNL     1      -6.933  -7.186  -6.970  0.00  0.00    -0.014 A 
ATOM     18  C   UNL     1      -5.681  -7.221  -6.357  0.00  0.00    +0.008 A 
ATOM     19  C   UNL     1      -5.281  -8.352  -5.676  0.00  0.00    +0.001 A 
ATOM     20  C   UNL     1      -6.114  -9.455  -5.610  0.00  0.00    +0.000 A 
ATOM     21  C   UNL     1      -7.354  -9.428  -6.221  0.00  0.00    +0.001 A 
ATOM     22  C   UNL     1      -7.768  -8.300  -6.900  0.00  0.00    +0.008 A 
ENDBRANCH   6  17
BRANCH  15  23
ATOM     23  C   UNL     1      -6.374   0.126  -3.289  0.00  0.00    +0.138 C 
BRANCH  23  24
ATOM     24  C   UNL     1      -4.925   0.529  -3.390  0.00  0.00    +0.220 C 
ATOM     25  O   UNL     1      -4.288   0.256  -4.385  0.00  0.00    -0.275 OA
ATOM     26  N   UNL     1      -4.338   1.192  -2.374  0.00  0.00    -0.301 N 
ATOM     27  C   UNL     1      -5.096   1.531  -1.162  0.00  0.00    +0.110 C 
ATOM     28  C   UNL     1      -4.336   0.999   0.057  0.00  0.00    +0.054 C 
ATOM     29  C   UNL     1      -2.905   1.543   0.041  0.00  0.00    +0.072 C 
ATOM     30  C   UNL     1      -2.159   1.034   1.276  0.00  0.00    +0.035 C 
ATOM     31  C   UNL     1      -0.730   1.580   1.266  0.00  0.00    +0.003 C 
ATOM     32  C   UNL     1      -0.013   1.086   0.008  0.00  0.00    +0.001 C 
ATOM     33  C   UNL     1      -0.753   1.593  -1.231  0.00  0.00    +0.008 C 
ATOM     34  C   UNL     1      -2.188   1.062  -1.223  0.00  0.00    +0.038 C 
ATOM     35  C   UNL     1      -2.924   1.586  -2.461  0.00  0.00    +0.114 C 
BRANCH  29  36
ATOM     36  O   UNL     1      -2.936   2.972   0.057  0.00  0.00    -0.388 OA
ATOM     37  H   UNL     1      -3.376   3.347   0.832  0.00  0.00    +0.210 HD
ENDBRANCH  29  36
ENDBRANCH  23  24
ENDBRANCH  15  23
TORSDOF 4
