REMARK  Name = ZINC66581719
REMARK  10 active torsions:
REMARK  status: ('A' for Active; 'I' for Inactive)
REMARK    1  A    between atoms: C_1  and  C_2
REMARK    2  A    between atoms: C_5  and  C_9
REMARK    3  A    between atoms: C_6  and  C_8
REMARK    4  A    between atoms: C_9  and  C_10
REMARK    5  A    between atoms: C_10  and  C_12
REMARK    6  A    between atoms: C_10  and  N_13
REMARK    7  A    between atoms: N_13  and  S_14
REMARK    8  A    between atoms: S_14  and  C_17
REMARK    9  A    between atoms: C_22  and  S_23
REMARK   10  A    between atoms: S_23  and  C_26
REMARK                            x       y       z     vdW  Elec       q    Type
REMARK                         _______ _______ _______ _____ _____    ______ ____
ROOT
ATOM      1  N   UNL     1      -2.209  -4.965   2.903  0.00  0.00    -0.187 NA
ATOM      2  H   UNL     1      -1.634  -4.992   3.683  0.00  0.00    +0.148 HD
ENDROOT
BRANCH   1   3
ATOM      3  S   UNL     1      -3.562  -4.010   2.904  0.00  0.00    +0.060 S 
ATOM      4  O   UNL     1      -3.579  -3.331   4.152  0.00  0.00    -0.153 OA
ATOM      5  O   UNL     1      -3.574  -3.321   1.661  0.00  0.00    -0.153 OA
BRANCH   3   6
ATOM      6  C   UNL     1      -4.958  -5.085   2.897  0.00  0.00    +0.130 A 
ATOM      7  C   UNL     1      -4.798  -6.427   3.188  0.00  0.00    +0.030 A 
ATOM      8  C   UNL     1      -5.893  -7.271   3.182  0.00  0.00    +0.002 A 
ATOM      9  C   UNL     1      -7.148  -6.772   2.886  0.00  0.00    +0.002 A 
ATOM     10  C   UNL     1      -7.308  -5.430   2.597  0.00  0.00    +0.029 A 
ATOM     11  C   UNL     1      -6.214  -4.586   2.607  0.00  0.00    +0.114 A 
BRANCH  11  12
ATOM     12  S   UNL     1      -6.418  -2.874   2.243  0.00  0.00    -0.004 S 
ATOM     13  O   UNL     1      -5.494  -2.612   1.197  0.00  0.00    -0.170 OA
ATOM     14  O   UNL     1      -7.815  -2.712   2.034  0.00  0.00    -0.170 OA
ATOM     15  C   UNL     1      -5.910  -2.012   3.756  0.00  0.00    +0.200 C 
ENDBRANCH  11  12
ENDBRANCH   3   6
ENDBRANCH   1   3
BRANCH   1  16
ATOM     16  C   UNL     1      -1.880  -5.768   1.723  0.00  0.00    +0.078 C 
ATOM     17  C   UNL     1      -1.622  -7.215   2.147  0.00  0.00    +0.026 C 
BRANCH  16  18
ATOM     18  C   UNL     1      -0.627  -5.201   1.053  0.00  0.00    +0.055 C 
BRANCH  18  23
ATOM     19  C   UNL     1      -1.754   0.084  -0.994  0.00  0.00    +0.044 C 
ATOM     20  C   UNL     1      -1.460  -1.294  -0.460  0.00  0.00    -0.050 A 
ATOM     21  C   UNL     1      -0.833  -1.443   0.763  0.00  0.00    +0.003 A 
ATOM     22  C   UNL     1      -0.564  -2.707   1.253  0.00  0.00    +0.004 A 
ATOM     23  C   UNL     1      -0.921  -3.823   0.519  0.00  0.00    -0.043 A 
ATOM     24  C   UNL     1      -1.549  -3.675  -0.703  0.00  0.00    -0.047 A 
ATOM     25  C   UNL     1      -1.822  -2.410  -1.191  0.00  0.00    +0.007 A 
ATOM     26  C   UNL     1      -1.939  -4.891  -1.502  0.00  0.00    +0.044 C 
ENDBRANCH  18  23
ENDBRANCH  16  18
ENDBRANCH   1  16
TORSDOF 6
