REMARK  Name = ZINC28806896
REMARK  6 active torsions:
REMARK  status: ('A' for Active; 'I' for Inactive)
REMARK    1  A    between atoms: C_1  and  C_2
REMARK    2  A    between atoms: C_2  and  C_4
REMARK    3  A    between atoms: C_2  and  S_15
REMARK    4  A    between atoms: N_6  and  C_7
REMARK    5  A    between atoms: S_15  and  C_16
REMARK    6  A    between atoms: C_19  and  C_22
REMARK                            x       y       z     vdW  Elec       q    Type
REMARK                         _______ _______ _______ _____ _____    ______ ____
ROOT
ATOM      1  C   UNL     1       3.419   3.292  -1.340  0.00  0.00    +0.029 C 
ATOM      2  C   UNL     1       3.977   2.714  -0.038  0.00  0.00    +0.137 C 
ENDROOT
BRANCH   2   3
ATOM      3  C   UNL     1       5.436   3.072   0.086  0.00  0.00    +0.230 C 
ATOM      4  O   UNL     1       6.286   2.291  -0.287  0.00  0.00    -0.274 OA
ATOM      5  N   UNL     1       5.796   4.260   0.610  0.00  0.00    -0.283 N 
ATOM      6  H   UNL     1       5.027   4.998   0.880  0.00  0.00    +0.155 HD
BRANCH   5   7
ATOM      7  C   UNL     1       7.150   4.554   0.812  0.00  0.00    +0.052 A 
ATOM      8  C   UNL     1       8.105   4.082  -0.079  0.00  0.00    +0.026 A 
ATOM      9  C   UNL     1       9.440   4.374   0.122  0.00  0.00    +0.022 A 
ATOM     10  C   UNL     1       9.827   5.138   1.210  0.00  0.00    +0.042 A 
ATOM     11  C   UNL     1       8.878   5.611   2.099  0.00  0.00    +0.041 A 
ATOM     12  C   UNL     1       7.540   5.325   1.900  0.00  0.00    +0.064 A 
ATOM     13 CL   UNL     1       6.349   5.923   3.013  0.00  0.00    -0.082 Cl
ATOM     14 CL   UNL     1      11.505   5.503   1.458  0.00  0.00    -0.083 Cl
ENDBRANCH   5   7
ENDBRANCH   2   3
BRANCH   2  15
ATOM     15  S   UNL     1       3.797   0.913  -0.052  0.00  0.00    -0.074 S 
BRANCH  15  16
ATOM     16  C   UNL     1       2.040   0.781  -0.049  0.00  0.00    +0.185 A 
ATOM     17  N   UNL     1       1.314  -0.376  -0.057  0.00  0.00    -0.201 NA
ATOM     18  H   UNL     1       1.363   2.863  -0.031  0.00  0.00    +0.191 HD
ATOM     19  C   UNL     1      -0.005   0.014  -0.050  0.00  0.00    +0.182 A 
ATOM     20  N   UNL     1      -0.019   1.326  -0.040  0.00  0.00    -0.152 NA
ATOM     21  N   UNL     1       1.184   1.778  -0.039  0.00  0.00    -0.253 N 
BRANCH  19  22
ATOM     22  C   UNL     1      -1.184  -0.878  -0.054  0.00  0.00    +0.021 A 
ATOM     23  C   UNL     1      -1.015  -2.263  -0.071  0.00  0.00    +0.013 A 
ATOM     24  C   UNL     1      -2.119  -3.090  -0.069  0.00  0.00    +0.021 A 
ATOM     25  C   UNL     1      -3.394  -2.548  -0.061  0.00  0.00    +0.041 A 
ATOM     26  C   UNL     1      -3.568  -1.175  -0.049  0.00  0.00    +0.021 A 
ATOM     27  C   UNL     1      -2.471  -0.338  -0.045  0.00  0.00    +0.013 A 
ATOM     28 CL   UNL     1      -4.779  -3.595  -0.066  0.00  0.00    -0.084 Cl
ENDBRANCH  19  22
ENDBRANCH  15  16
ENDBRANCH   2  15
TORSDOF 5
