REMARK  Name = ZINC38627416
REMARK  14 active torsions:
REMARK  status: ('A' for Active; 'I' for Inactive)
REMARK    1  A    between atoms: C_1  and  C_2
REMARK    2  A    between atoms: C_2  and  C_3
REMARK    3  A    between atoms: C_3  and  C_4
REMARK    4  A    between atoms: C_4  and  C_5
REMARK    5  A    between atoms: C_5  and  C_6
REMARK    6  A    between atoms: C_6  and  N_7
REMARK    7  A    between atoms: C_9  and  C_17
REMARK    8  A    between atoms: C_10  and  C_16
REMARK    9  A    between atoms: C_11  and  C_14
REMARK   10  A    between atoms: C_17  and  C_19
REMARK   11  A    between atoms: C_19  and  C_20
REMARK   12  A    between atoms: C_20  and  C_21
REMARK   13  A    between atoms: C_21  and  N_22
REMARK   14  A    between atoms: C_26  and  C_27
REMARK                            x       y       z     vdW  Elec       q    Type
REMARK                         _______ _______ _______ _____ _____    ______ ____
ROOT
ATOM      1  C   UNL     1       6.298  -3.611   1.981  0.00  0.00    +0.169 C 
ATOM      2  O   UNL     1       6.616  -4.298   2.929  0.00  0.00    -0.292 OA
ENDROOT
BRANCH   1   5
ATOM      3  N   UNL     1       3.213  -2.330   0.325  0.00  0.00    -0.274 N 
ATOM      4  C   UNL     1       4.514  -2.534   0.638  0.00  0.00    +0.265 A 
ATOM      5  C   UNL     1       4.884  -3.409   1.665  0.00  0.00    +0.086 A 
ATOM      6  C   UNL     1       3.895  -4.097   2.395  0.00  0.00    -0.012 A 
ATOM      7  C   UNL     1       2.559  -3.888   2.075  0.00  0.00    +0.120 A 
ATOM      8  C   UNL     1       2.228  -2.958   0.995  0.00  0.00    +0.272 A 
ATOM      9  O   UNL     1       1.064  -2.755   0.699  0.00  0.00    -0.266 OA
ATOM     10  C   UNL     1       4.280  -5.043   3.503  0.00  0.00    +0.046 C 
ATOM     11  O   UNL     1       5.469  -1.884  -0.052  0.00  0.00    -0.267 OA
BRANCH   7  12
ATOM     12  C   UNL     1       1.523  -4.568   2.794  0.00  0.00    +0.105 C 
ATOM     13  N   UNL     1       0.702  -5.107   3.364  0.00  0.00    -0.191 NA
ENDBRANCH   7  12
BRANCH   3  14
ATOM     14  C   UNL     1       2.870  -1.405  -0.758  0.00  0.00    +0.128 C 
BRANCH  14  15
ATOM     15  C   UNL     1       2.700   0.005  -0.190  0.00  0.00    +0.022 C 
BRANCH  15  16
ATOM     16  C   UNL     1       2.342   0.971  -1.321  0.00  0.00    +0.002 C 
BRANCH  16  17
ATOM     17  C   UNL     1       2.173   2.381  -0.753  0.00  0.00    -0.000 C 
BRANCH  17  19
ATOM     18  C   UNL     1       1.645   4.758  -1.316  0.00  0.00    +0.004 C 
ATOM     19  C   UNL     1       1.815   3.347  -1.884  0.00  0.00    -0.003 C 
ENDBRANCH  17  19
ENDBRANCH  16  17
ENDBRANCH  15  16
ENDBRANCH  14  15
ENDBRANCH   3  14
ENDBRANCH   1   5
BRANCH   1  20
ATOM     20  C   UNL     1       7.359  -2.965   1.128  0.00  0.00    +0.081 C 
BRANCH  20  21
ATOM     21  C   UNL     1       8.739  -3.447   1.579  0.00  0.00    +0.027 C 
BRANCH  21  22
ATOM     22  C   UNL     1       9.817  -2.792   0.713  0.00  0.00    +0.115 C 
BRANCH  22  23
ATOM     23  N   UNL     1      11.138  -3.254   1.145  0.00  0.00    -0.255 N 
ATOM     24  C   UNL     1      11.783  -2.581   2.084  0.00  0.00    +0.258 C 
ATOM     25  O   UNL     1      11.306  -1.588   2.600  0.00  0.00    -0.269 OA
ATOM     26  C   UNL     1      13.111  -3.099   2.475  0.00  0.00    +0.077 C 
ATOM     27  C   UNL     1      13.988  -2.626   3.395  0.00  0.00    +0.028 C 
ATOM     28  S   UNL     1      13.244  -4.523   1.402  0.00  0.00    -0.061 S 
ATOM     29  C   UNL     1      11.667  -4.358   0.580  0.00  0.00    +0.121 C 
ATOM     30  S   UNL     1      10.991  -5.359  -0.633  0.00  0.00    -0.027 S 
BRANCH  27  31
ATOM     31  C   UNL     1      15.349  -3.175   3.464  0.00  0.00    -0.024 A 
ATOM     32  C   UNL     1      15.808  -4.046   2.470  0.00  0.00    +0.008 A 
ATOM     33  C   UNL     1      17.086  -4.558   2.542  0.00  0.00    +0.001 A 
ATOM     34  C   UNL     1      17.915  -4.211   3.595  0.00  0.00    +0.000 A 
ATOM     35  C   UNL     1      17.470  -3.350   4.583  0.00  0.00    +0.001 A 
ATOM     36  C   UNL     1      16.196  -2.825   4.522  0.00  0.00    +0.008 A 
ENDBRANCH  27  31
ENDBRANCH  22  23
ENDBRANCH  21  22
ENDBRANCH  20  21
ENDBRANCH   1  20
TORSDOF 12
