REMARK  Name = ZINC23227725
REMARK  14 active torsions:
REMARK  status: ('A' for Active; 'I' for Inactive)
REMARK    1  A    between atoms: C_1  and  C_2
REMARK    2  A    between atoms: C_2  and  C_3
REMARK    3  A    between atoms: C_2  and  C_4
REMARK    4  A    between atoms: C_4  and  N_5
REMARK    5  A    between atoms: C_6  and  N_30
REMARK    6  A    between atoms: C_7  and  N_14
REMARK    7  A    between atoms: N_14  and  C_15
REMARK    8  A    between atoms: C_15  and  C_16
REMARK    9  A    between atoms: C_16  and  C_17
REMARK   10  A    between atoms: C_16  and  C_18
REMARK   11  A    between atoms: C_19  and  C_21
REMARK   12  A    between atoms: C_24  and  C_27
REMARK   13  A    between atoms: C_27  and  O_28
REMARK   14  A    between atoms: O_28  and  C_29
REMARK                            x       y       z     vdW  Elec       q    Type
REMARK                         _______ _______ _______ _____ _____    ______ ____
ROOT
ATOM      1  N   UNL     1      -5.263   5.250   7.393  0.00  0.00    -0.280 N 
ATOM      2  C   UNL     1      -4.467   4.718   6.405  0.00  0.00    +0.127 A 
ATOM      3  C   UNL     1      -3.098   4.697   6.582  0.00  0.00    +0.140 A 
ATOM      4  C   UNL     1      -2.558   5.232   7.767  0.00  0.00    +0.277 A 
ATOM      5  O   UNL     1      -1.352   5.229   7.947  0.00  0.00    -0.266 OA
ATOM      6  N   UNL     1      -3.382   5.746   8.701  0.00  0.00    -0.273 N 
ATOM      7  H   UNL     1      -2.968   6.166   9.629  0.00  0.00    +0.173 HD
ATOM      8  C   UNL     1      -4.714   5.753   8.513  0.00  0.00    +0.331 A 
ATOM      9  O   UNL     1      -5.435   6.223   9.372  0.00  0.00    -0.246 OA
ENDROOT
BRANCH   3  10
ATOM     10  N   UNL     1      -2.256   4.153   5.591  0.00  0.00    -0.260 N 
ATOM     11  C   UNL     1      -2.352   2.848   5.266  0.00  0.00    +0.251 C 
ATOM     12  O   UNL     1      -1.571   2.361   4.471  0.00  0.00    -0.270 OA
BRANCH  11  13
ATOM     13  C   UNL     1      -3.406   2.010   5.876  0.00  0.00    +0.037 A 
ATOM     14  C   UNL     1      -3.864   0.869   5.216  0.00  0.00    +0.013 A 
ATOM     15  C   UNL     1      -4.847   0.091   5.791  0.00  0.00    +0.006 A 
ATOM     16  C   UNL     1      -5.379   0.440   7.020  0.00  0.00    -0.022 A 
ATOM     17  C   UNL     1      -4.933   1.573   7.677  0.00  0.00    +0.006 A 
ATOM     18  C   UNL     1      -3.947   2.357   7.115  0.00  0.00    +0.013 A 
BRANCH  16  19
ATOM     19  C   UNL     1      -6.453  -0.415   7.642  0.00  0.00    +0.194 C 
BRANCH  19  20
ATOM     20  O   UNL     1      -5.848  -1.422   8.456  0.00  0.00    -0.378 OA
ATOM     21  C   UNL     1      -6.785  -2.291   9.096  0.00  0.00    +0.194 C 
ENDBRANCH  19  20
ENDBRANCH  16  19
ENDBRANCH  11  13
BRANCH  10  22
ATOM     22  C   UNL     1      -1.275   5.006   4.915  0.00  0.00    +0.117 C 
BRANCH  22  23
ATOM     23  C   UNL     1      -1.950   5.733   3.749  0.00  0.00    +0.001 C 
ATOM     24  C   UNL     1      -0.962   6.720   3.124  0.00  0.00    +0.009 C 
ATOM     25  C   UNL     1      -2.386   4.712   2.696  0.00  0.00    +0.009 C 
ENDBRANCH  22  23
ENDBRANCH  10  22
ENDBRANCH   3  10
BRANCH   2  26
ATOM     26  N   UNL     1      -5.028   4.210   5.258  0.00  0.00    -0.343 N 
ATOM     27  H   UNL     1      -4.385   3.786   4.473  0.00  0.00    +0.144 HD
ATOM     28  H   UNL     1      -6.120   4.227   5.126  0.00  0.00    +0.144 HD
ENDBRANCH   2  26
BRANCH   1  29
ATOM     29  C   UNL     1      -6.718   5.274   7.221  0.00  0.00    +0.131 C 
BRANCH  29  31
ATOM     30  C   UNL     1      -6.553   6.609   5.115  0.00  0.00    +0.009 C 
ATOM     31  C   UNL     1      -7.129   6.577   6.532  0.00  0.00    +0.003 C 
ATOM     32  C   UNL     1      -8.655   6.660   6.465  0.00  0.00    +0.009 C 
ENDBRANCH  29  31
ENDBRANCH   1  29
TORSDOF 9
