REMARK  Name = ZINC20850710
REMARK  7 active torsions:
REMARK  status: ('A' for Active; 'I' for Inactive)
REMARK    1  A    between atoms: C_1  and  C_2
REMARK    2  A    between atoms: C_2  and  C_35
REMARK    3  A    between atoms: C_6  and  C_23
REMARK    4  A    between atoms: C_11  and  S_13
REMARK    5  A    between atoms: S_13  and  C_14
REMARK    6  A    between atoms: C_14  and  C_15
REMARK    7  A    between atoms: C_26  and  N_29
REMARK                            x       y       z     vdW  Elec       q    Type
REMARK                         _______ _______ _______ _____ _____    ______ ____
ROOT
ATOM      1  C   UNL     1       1.131  -0.985  -7.921  0.00  0.00    +0.011 C 
ATOM      2  C   UNL     1       2.657  -0.892  -7.983  0.00  0.00    -0.023 C 
ATOM      3  C   UNL     1       3.164   0.015  -6.860  0.00  0.00    +0.058 C 
ATOM      4  C   UNL     1       2.778  -0.570  -5.522  0.00  0.00    +0.020 C 
ATOM      5  C   UNL     1       2.678  -1.905  -5.351  0.00  0.00    +0.041 C 
ATOM      6  C   UNL     1       2.311  -2.521  -4.018  0.00  0.00    +0.175 C 
ATOM      7  N   UNL     1       1.785  -1.497  -3.124  0.00  0.00    -0.220 N 
ATOM      8  C   UNL     1       1.902  -0.168  -3.360  0.00  0.00    +0.219 A 
ATOM      9  N   UNL     1       1.338   0.472  -2.372  0.00  0.00    -0.187 NA
ATOM     10  C   UNL     1       0.848  -0.411  -1.489  0.00  0.00    +0.211 A 
ATOM     11  N   UNL     1       1.107  -1.629  -1.913  0.00  0.00    -0.141 NA
ATOM     12  N   UNL     1       2.531   0.312  -4.497  0.00  0.00    -0.287 N 
ATOM     13  C   UNL     1       2.912  -2.789  -6.420  0.00  0.00    +0.164 C 
ATOM     14  O   UNL     1       2.827  -3.986  -6.231  0.00  0.00    -0.292 OA
ATOM     15  C   UNL     1       3.267  -2.285  -7.791  0.00  0.00    +0.086 C 
ATOM     16  C   UNL     1       3.085  -0.324  -9.338  0.00  0.00    +0.011 C 
ATOM     17  H   UNL     1       2.832   1.366  -4.594  0.00  0.00    +0.155 HD
ENDROOT
BRANCH   6  18
ATOM     18  C   UNL     1       3.537  -3.143  -3.401  0.00  0.00    -0.018 A 
ATOM     19  C   UNL     1       4.638  -2.359  -3.111  0.00  0.00    +0.008 A 
ATOM     20  C   UNL     1       5.761  -2.929  -2.540  0.00  0.00    +0.033 A 
ATOM     21  C   UNL     1       5.786  -4.284  -2.269  0.00  0.00    +0.126 A 
ATOM     22  C   UNL     1       4.687  -5.069  -2.563  0.00  0.00    +0.033 A 
ATOM     23  C   UNL     1       3.562  -4.498  -3.129  0.00  0.00    +0.008 A 
BRANCH  21  24
ATOM     24  N   UNL     1       6.991  -4.895  -1.663  0.00  0.00    +0.056 N 
ATOM     25  O   UNL     1       7.013  -6.089  -1.424  0.00  0.00    -0.126 OA
ATOM     26  O   UNL     1       7.959  -4.204  -1.403  0.00  0.00    -0.126 OA
ENDBRANCH  21  24
ENDBRANCH   6  18
BRANCH  10  27
ATOM     27  S   UNL     1       0.002  -0.004   0.002  0.00  0.00    -0.080 S 
BRANCH  27  28
ATOM     28  C   UNL     1      -0.022   1.810   0.012  0.00  0.00    +0.112 C 
BRANCH  28  29
ATOM     29  C   UNL     1      -0.728   2.296   1.252  0.00  0.00    -0.034 A 
ATOM     30  C   UNL     1      -0.009   2.530   2.409  0.00  0.00    +0.004 A 
ATOM     31  C   UNL     1      -0.654   2.975   3.547  0.00  0.00    +0.003 A 
ATOM     32  C   UNL     1      -2.020   3.188   3.529  0.00  0.00    +0.038 A 
ATOM     33  C   UNL     1      -2.741   2.954   2.371  0.00  0.00    +0.124 A 
ATOM     34  C   UNL     1      -2.092   2.513   1.230  0.00  0.00    +0.042 A 
ATOM     35  F   UNL     1      -4.076   3.162   2.352  0.00  0.00    -0.205 F 
ENDBRANCH  28  29
ENDBRANCH  27  28
ENDBRANCH  10  27
TORSDOF 5
