REMARK  Name = ZINC28682396
REMARK  4 active torsions:
REMARK  status: ('A' for Active; 'I' for Inactive)
REMARK    1  A    between atoms: C_1  and  C_2
REMARK    2  A    between atoms: C_2  and  C_4
REMARK    3  A    between atoms: C_2  and  S_12
REMARK    4  A    between atoms: S_12  and  C_13
REMARK                            x       y       z     vdW  Elec       q    Type
REMARK                         _______ _______ _______ _____ _____    ______ ____
ROOT
ATOM      1  C   UNL     1       3.702   3.803  -0.012  0.00  0.00    +0.198 A 
ATOM      2  N   UNL     1       4.288   4.972  -0.011  0.00  0.00    -0.121 NA
ATOM      3  N   UNL     1       3.291   5.957   0.003  0.00  0.00    -0.121 NA
ATOM      4  C   UNL     1       2.142   5.351   0.011  0.00  0.00    +0.202 A 
ATOM      5  N   UNL     1       2.329   3.994   0.001  0.00  0.00    -0.264 N 
ATOM      6  C   UNL     1       1.192   3.171   0.008  0.00  0.00    +0.065 A 
ATOM      7  C   UNL     1       1.176   1.766   0.000  0.00  0.00    +0.027 A 
ATOM      8  C   UNL     1      -0.013   1.076   0.008  0.00  0.00    +0.002 A 
ATOM      9  C   UNL     1      -1.228   1.739   0.017  0.00  0.00    +0.001 A 
ATOM     10  C   UNL     1      -1.242   3.122   0.029  0.00  0.00    +0.017 A 
ATOM     11  C   UNL     1      -0.051   3.812   0.022  0.00  0.00    +0.040 A 
ATOM     12  S   UNL     1       0.374   5.536   0.028  0.00  0.00    -0.048 S 
ENDROOT
BRANCH   1  13
ATOM     13  S   UNL     1       4.521   2.243  -0.028  0.00  0.00    -0.073 S 
BRANCH  13  15
ATOM     14  C   UNL     1       6.646   3.379   1.266  0.00  0.00    +0.029 C 
ATOM     15  C   UNL     1       6.284   2.674  -0.042  0.00  0.00    +0.137 C 
BRANCH  15  16
ATOM     16  C   UNL     1       7.106   1.419  -0.180  0.00  0.00    +0.229 C 
ATOM     17  O   UNL     1       6.621   0.342   0.097  0.00  0.00    -0.274 OA
ATOM     18  N   UNL     1       8.380   1.492  -0.613  0.00  0.00    -0.301 N 
ATOM     19  C   UNL     1       8.980   2.788  -0.959  0.00  0.00    +0.108 C 
ATOM     20  C   UNL     1      10.288   2.949  -0.169  0.00  0.00    +0.019 C 
ATOM     21  C   UNL     1      11.193   1.745  -0.443  0.00  0.00    +0.003 C 
ATOM     22  C   UNL     1      10.499   0.465   0.029  0.00  0.00    +0.019 C 
ATOM     23  C   UNL     1       9.195   0.278  -0.753  0.00  0.00    +0.108 C 
ENDBRANCH  15  16
ENDBRANCH  13  15
ENDBRANCH   1  13
TORSDOF 3
