REMARK  Name = ZINC22473306
REMARK  11 active torsions:
REMARK  status: ('A' for Active; 'I' for Inactive)
REMARK    1  A    between atoms: C_1  and  C_2
REMARK    2  A    between atoms: C_6  and  C_10
REMARK    3  A    between atoms: C_7  and  O_8
REMARK    4  A    between atoms: O_8  and  C_9
REMARK    5  A    between atoms: N_12  and  C_13
REMARK    6  A    between atoms: N_12  and  C_28
REMARK    7  A    between atoms: C_13  and  C_14
REMARK    8  A    between atoms: C_14  and  C_15
REMARK    9  A    between atoms: C_15  and  N_16
REMARK   10  A    between atoms: C_19  and  O_20
REMARK   11  A    between atoms: C_28  and  C_29
REMARK                            x       y       z     vdW  Elec       q    Type
REMARK                         _______ _______ _______ _____ _____    ______ ____
ROOT
ATOM      1  C   UNL     1      -6.916   2.810   1.092  0.00  0.00    +0.250 C 
ATOM      2  O   UNL     1      -7.625   3.781   0.910  0.00  0.00    -0.270 OA
ATOM      3  N   UNL     1      -6.452   2.107   0.039  0.00  0.00    -0.293 N 
ENDROOT
BRANCH   1   9
ATOM      4  C   UNL     1      -7.985   2.655   5.974  0.00  0.00    +0.047 C 
ATOM      5  C   UNL     1      -7.074   2.322   4.820  0.00  0.00    -0.008 A 
ATOM      6  C   UNL     1      -5.901   1.629   5.045  0.00  0.00    +0.007 A 
ATOM      7  C   UNL     1      -5.057   1.319   3.992  0.00  0.00    +0.001 A 
ATOM      8  C   UNL     1      -5.380   1.699   2.707  0.00  0.00    +0.017 A 
ATOM      9  C   UNL     1      -6.564   2.400   2.465  0.00  0.00    +0.079 A 
ATOM     10  C   UNL     1      -7.412   2.717   3.535  0.00  0.00    +0.135 A 
BRANCH  10  11
ATOM     11  O   UNL     1      -8.561   3.403   3.313  0.00  0.00    -0.494 OA
ATOM     12  C   UNL     1      -9.734   2.633   3.038  0.00  0.00    +0.277 C 
ENDBRANCH  10  11
ENDBRANCH   1   9
BRANCH   3  13
ATOM     13  C   UNL     1      -5.633   0.913   0.259  0.00  0.00    +0.110 C 
BRANCH  13  14
ATOM     14  C   UNL     1      -4.181   1.213  -0.122  0.00  0.00    +0.040 C 
BRANCH  14  15
ATOM     15  C   UNL     1      -3.326  -0.035   0.108  0.00  0.00    +0.114 C 
BRANCH  15  16
ATOM     16  N   UNL     1      -1.936   0.252  -0.257  0.00  0.00    -0.384 N 
ATOM     17  C   UNL     1      -0.976  -0.727  -0.133  0.00  0.00    +0.053 A 
ATOM     18  C   UNL     1      -1.296  -1.977   0.329  0.00  0.00    +0.113 A 
ATOM     19  C   UNL     1      -0.298  -2.954   0.438  0.00  0.00    +0.286 A 
ATOM     20  O   UNL     1       0.978  -2.705   0.102  0.00  0.00    -0.425 OA
ATOM     21  C   UNL     1       1.368  -1.497  -0.360  0.00  0.00    +0.141 A 
ATOM     22  C   UNL     1       0.427  -0.465  -0.499  0.00  0.00    +0.041 A 
ATOM     23  C   UNL     1       0.825   0.785  -0.976  0.00  0.00    +0.013 A 
ATOM     24  C   UNL     1       2.145   0.997  -1.310  0.00  0.00    +0.001 A 
ATOM     25  C   UNL     1       3.074  -0.024  -1.174  0.00  0.00    +0.004 A 
ATOM     26  C   UNL     1       2.693  -1.263  -0.702  0.00  0.00    +0.047 A 
ATOM     27  H   UNL     1      -1.660   1.250  -0.629  0.00  0.00    +0.160 HD
BRANCH  19  28
ATOM     28  O   UNL     1      -0.597  -4.062   0.849  0.00  0.00    -0.480 OA
ATOM     29  H   UNL     1       0.175  -4.841   0.941  0.00  0.00    +0.295 HD
ENDBRANCH  19  28
ENDBRANCH  15  16
ENDBRANCH  14  15
ENDBRANCH  13  14
ENDBRANCH   3  13
BRANCH   3  30
ATOM     30  C   UNL     1      -6.767   2.539  -1.325  0.00  0.00    +0.143 C 
BRANCH  30  31
ATOM     31  C   UNL     1      -8.091   1.953  -1.744  0.00  0.00    -0.030 A 
ATOM     32  C   UNL     1      -8.129   0.764  -2.448  0.00  0.00    +0.005 A 
ATOM     33  C   UNL     1      -9.343   0.224  -2.828  0.00  0.00    +0.000 A 
ATOM     34  C   UNL     1     -10.519   0.879  -2.513  0.00  0.00    +0.000 A 
ATOM     35  C   UNL     1     -10.481   2.071  -1.813  0.00  0.00    +0.000 A 
ATOM     36  C   UNL     1      -9.267   2.607  -1.429  0.00  0.00    +0.005 A 
ENDBRANCH  30  31
ENDBRANCH   3  30
TORSDOF 9
