REMARK  Name = ZINC18353731
REMARK  6 active torsions:
REMARK  status: ('A' for Active; 'I' for Inactive)
REMARK    1  A    between atoms: C_4  and  C_7
REMARK    2  A    between atoms: N_14  and  C_17
REMARK    3  A    between atoms: C_17  and  C_18
REMARK    4  A    between atoms: N_20  and  C_21
REMARK    5  A    between atoms: C_21  and  C_23
REMARK    6  A    between atoms: C_21  and  C_29
REMARK                            x       y       z     vdW  Elec       q    Type
REMARK                         _______ _______ _______ _____ _____    ______ ____
ROOT
ATOM      1  C   UNL     1       2.462   0.920  -0.017  0.00  0.00    +0.222 C 
ENDROOT
BRANCH   1   9
ATOM      2  C   UNL     1       6.790   4.749  -2.071  0.00  0.00    +0.022 A 
ATOM      3  C   UNL     1       5.780   3.867  -2.286  0.00  0.00    +0.031 A 
ATOM      4  C   UNL     1       5.124   3.275  -1.195  0.00  0.00    +0.073 A 
ATOM      5  C   UNL     1       5.585   3.662   0.079  0.00  0.00    +0.116 A 
ATOM      6  S   UNL     1       6.888   4.811  -0.290  0.00  0.00    -0.068 S 
ATOM      7  N   UNL     1       5.054   3.181   1.197  0.00  0.00    -0.230 NA
ATOM      8  C   UNL     1       4.073   2.319   1.160  0.00  0.00    +0.203 A 
ATOM      9  N   UNL     1       3.562   1.887  -0.022  0.00  0.00    -0.290 N 
ATOM     10  C   UNL     1       4.049   2.324  -1.198  0.00  0.00    +0.263 A 
ATOM     11  O   UNL     1       3.582   1.921  -2.249  0.00  0.00    -0.267 OA
BRANCH   2  15
ATOM     12  C   UNL     1       9.133   6.843  -4.928  0.00  0.00    +0.000 A 
ATOM     13  C   UNL     1       9.366   7.029  -3.577  0.00  0.00    +0.001 A 
ATOM     14  C   UNL     1       8.608   6.353  -2.644  0.00  0.00    +0.009 A 
ATOM     15  C   UNL     1       7.605   5.478  -3.065  0.00  0.00    -0.011 A 
ATOM     16  C   UNL     1       7.379   5.290  -4.430  0.00  0.00    +0.009 A 
ATOM     17  C   UNL     1       8.140   5.978  -5.353  0.00  0.00    +0.001 A 
ENDBRANCH   2  15
ENDBRANCH   1   9
BRANCH   1  18
ATOM     18  C   UNL     1       1.147   1.655   0.000  0.00  0.00    +0.234 C 
ATOM     19  O   UNL     1       1.130   2.868   0.007  0.00  0.00    -0.274 OA
ATOM     20  N   UNL     1      -0.011   0.966   0.007  0.00  0.00    -0.303 N 
ATOM     21  H   UNL     1       0.002  -0.004   0.002  0.00  0.00    +0.150 HD
BRANCH  20  22
ATOM     22  C   UNL     1      -1.290   1.681   0.017  0.00  0.00    +0.140 C 
BRANCH  22  23
ATOM     23  C   UNL     1      -2.360   0.806  -0.583  0.00  0.00    -0.022 A 
ATOM     24  C   UNL     1      -2.384  -0.548  -0.302  0.00  0.00    +0.006 A 
ATOM     25  C   UNL     1      -3.368  -1.350  -0.849  0.00  0.00    +0.000 A 
ATOM     26  C   UNL     1      -4.322  -0.800  -1.684  0.00  0.00    +0.000 A 
ATOM     27  C   UNL     1      -4.295   0.552  -1.970  0.00  0.00    +0.000 A 
ATOM     28  C   UNL     1      -3.313   1.355  -1.419  0.00  0.00    +0.006 A 
ENDBRANCH  22  23
BRANCH  22  29
ATOM     29  C   UNL     1      -1.661   2.027   1.436  0.00  0.00    +0.014 A 
ATOM     30  C   UNL     1      -2.219   3.163   1.920  0.00  0.00    +0.013 A 
ATOM     31  C   UNL     1      -2.475   3.260   3.275  0.00  0.00    +0.008 A 
ATOM     32  C   UNL     1      -2.162   2.216   4.080  0.00  0.00    +0.045 A 
ATOM     33  S   UNL     1      -1.487   1.042   2.916  0.00  0.00    -0.099 S 
ENDBRANCH  22  29
ENDBRANCH  20  22
ENDBRANCH   1  18
TORSDOF 6
