REMARK  Name = ZINC05025253
REMARK  12 active torsions:
REMARK  status: ('A' for Active; 'I' for Inactive)
REMARK    1  A    between atoms: C_1  and  C_2
REMARK    2  A    between atoms: C_2  and  N_3
REMARK    3  A    between atoms: N_3  and  C_4
REMARK    4  A    between atoms: N_3  and  C_6
REMARK    5  A    between atoms: C_4  and  C_5
REMARK    6  A    between atoms: C_6  and  C_7
REMARK    7  A    between atoms: C_7  and  N_8
REMARK    8  A    between atoms: C_9  and  C_11
REMARK    9  A    between atoms: C_16  and  N_17
REMARK   10  A    between atoms: N_17  and  C_18
REMARK   11  A    between atoms: C_18  and  C_19
REMARK   12  A    between atoms: C_19  and  O_20
REMARK                            x       y       z     vdW  Elec       q    Type
REMARK                         _______ _______ _______ _____ _____    ______ ____
ROOT
ATOM      1  C   UNL     1       4.851  -4.521   3.542  0.00  0.00    +0.058 A 
ATOM      2  C   UNL     1       5.364  -4.200   2.286  0.00  0.00    +0.015 A 
ATOM      3  C   UNL     1       5.472  -5.170   1.306  0.00  0.00    +0.013 A 
ATOM      4  C   UNL     1       5.069  -6.477   1.561  0.00  0.00    +0.035 A 
ATOM      5  C   UNL     1       4.549  -6.818   2.823  0.00  0.00    +0.055 A 
ATOM      6  C   UNL     1       4.444  -5.838   3.819  0.00  0.00    +0.051 A 
ATOM      7  C   UNL     1       4.121  -8.200   3.097  0.00  0.00    +0.196 C 
ATOM      8  O   UNL     1       3.671  -8.492   4.188  0.00  0.00    -0.287 OA
ATOM      9  C   UNL     1       4.237  -9.232   2.045  0.00  0.00    +0.033 A 
ATOM     10  C   UNL     1       3.833 -10.540   2.297  0.00  0.00    +0.012 A 
ATOM     11  C   UNL     1       3.946 -11.500   1.306  0.00  0.00    +0.001 A 
ATOM     12  C   UNL     1       4.457 -11.168   0.065  0.00  0.00    +0.001 A 
ATOM     13  C   UNL     1       4.864  -9.873  -0.203  0.00  0.00    +0.012 A 
ATOM     14  C   UNL     1       4.757  -8.895   0.783  0.00  0.00    +0.033 A 
ATOM     15  C   UNL     1       5.187  -7.509   0.507  0.00  0.00    +0.195 C 
ATOM     16  O   UNL     1       5.636  -7.217  -0.584  0.00  0.00    -0.287 OA
ENDROOT
BRANCH   1  18
ATOM     17  N   UNL     1       5.081  -2.206   4.300  0.00  0.00    -0.313 N 
ATOM     18  C   UNL     1       4.740  -3.479   4.582  0.00  0.00    +0.246 C 
ATOM     19  O   UNL     1       4.341  -3.769   5.693  0.00  0.00    -0.270 OA
ATOM     20  H   UNL     1       5.399  -1.974   3.413  0.00  0.00    +0.149 HD
BRANCH  17  21
ATOM     21  C   UNL     1       4.971  -1.172   5.332  0.00  0.00    +0.086 C 
BRANCH  21  22
ATOM     22  C   UNL     1       5.417   0.174   4.756  0.00  0.00    -0.060 C 
BRANCH  22  23
ATOM     23  N   UNL     1       5.181   1.233   5.746  0.00  0.00    +0.380 N 
ATOM     24  H   UNL     1       4.213   1.218   6.031  0.00  0.00    -0.082 HD
BRANCH  23  26
ATOM     25  C   UNL     1       5.706   2.036   7.999  0.00  0.00    -0.017 C 
ATOM     26  C   UNL     1       6.039   1.007   6.917  0.00  0.00    -0.082 C 
ENDBRANCH  23  26
BRANCH  23  27
ATOM     27  C   UNL     1       5.498   2.538   5.152  0.00  0.00    -0.082 C 
ATOM     28  C   UNL     1       4.496   2.847   4.037  0.00  0.00    -0.017 C 
ENDBRANCH  23  27
ENDBRANCH  22  23
ENDBRANCH  21  22
ENDBRANCH  17  21
ENDBRANCH   1  18
BRANCH   6  29
ATOM     29  N   UNL     1       3.941  -6.162   5.062  0.00  0.00    -0.341 N 
ATOM     30  H   UNL     1       3.024  -5.939   5.288  0.00  0.00    +0.146 HD
BRANCH  29  31
ATOM     31  C   UNL     1       4.790  -6.845   6.042  0.00  0.00    +0.129 C 
BRANCH  31  32
ATOM     32  C   UNL     1       4.827  -6.033   7.338  0.00  0.00    +0.174 C 
BRANCH  32  33
ATOM     33  O   UNL     1       3.523  -6.007   7.922  0.00  0.00    -0.393 OA
ATOM     34  H   UNL     1       3.471  -5.508   8.749  0.00  0.00    +0.209 HD
ENDBRANCH  32  33
ENDBRANCH  31  32
ENDBRANCH  29  31
ENDBRANCH   6  29
TORSDOF 10
