REMARK  Name = ZINC38806224
REMARK  11 active torsions:
REMARK  status: ('A' for Active; 'I' for Inactive)
REMARK    1  A    between atoms: C_1  and  C_2
REMARK    2  A    between atoms: C_2  and  C_34
REMARK    3  A    between atoms: C_5  and  C_30
REMARK    4  A    between atoms: C_6  and  N_13
REMARK    5  A    between atoms: C_9  and  C_11
REMARK    6  A    between atoms: C_9  and  C_12
REMARK    7  A    between atoms: C_14  and  C_16
REMARK    8  A    between atoms: C_18  and  C_26
REMARK    9  A    between atoms: C_20  and  C_22
REMARK   10  A    between atoms: C_30  and  O_32
REMARK   11  A    between atoms: O_32  and  C_33
REMARK                            x       y       z     vdW  Elec       q    Type
REMARK                         _______ _______ _______ _____ _____    ______ ____
ROOT
ATOM      1  C   UNL     1      -0.019   1.526   0.010  0.00  0.00    -0.010 C 
ATOM      2  C   UNL     1       0.002  -0.004   0.002  0.00  0.00    -0.069 C 
ATOM      3  C   UNL     1      -1.434  -0.533  -0.096  0.00  0.00    +0.024 C 
ATOM      4  C   UNL     1      -2.143  -0.138   1.190  0.00  0.00    -0.024 A 
ATOM      5  C   UNL     1      -3.548   0.162   1.353  0.00  0.00    +0.091 A 
ATOM      6  C   UNL     1      -3.973   0.507   2.631  0.00  0.00    +0.086 A 
ATOM      7  S   UNL     1      -2.577   0.437   3.562  0.00  0.00    -0.079 S 
ATOM      8  C   UNL     1      -1.412  -0.053   2.326  0.00  0.00    -0.016 A 
ATOM      9  C   UNL     1       0.047  -0.333   2.463  0.00  0.00    -0.041 C 
ATOM     10  N   UNL     1       0.700  -0.526   1.169  0.00  0.00    +0.389 N 
ATOM     11  C   UNL     1       0.719   0.815   3.229  0.00  0.00    -0.005 C 
ATOM     12  C   UNL     1       0.216  -1.619   3.296  0.00  0.00    -0.005 C 
ATOM     13  C   UNL     1       0.759  -0.459  -1.260  0.00  0.00    -0.010 C 
ATOM     14  H   UNL     1       0.858  -1.526   1.031  0.00  0.00    -0.084 HD
ATOM     15  H   UNL     1       1.629  -0.104   1.208  0.00  0.00    -0.084 HD
ENDROOT
BRANCH   6  16
ATOM     16  N   UNL     1      -5.255   0.834   3.040  0.00  0.00    -0.275 N 
ATOM     17  C   UNL     1      -5.492   1.146   4.330  0.00  0.00    +0.249 C 
ATOM     18  O   UNL     1      -4.580   1.142   5.134  0.00  0.00    -0.270 OA
ATOM     19  H   UNL     1      -5.982   0.838   2.399  0.00  0.00    +0.156 HD
BRANCH  17  20
ATOM     20  C   UNL     1      -6.860   1.495   4.766  0.00  0.00    +0.038 A 
ATOM     21  C   UNL     1      -7.910   1.496   3.847  0.00  0.00    +0.025 A 
ATOM     22  C   UNL     1      -9.185   1.821   4.261  0.00  0.00    +0.056 A 
ATOM     23  C   UNL     1      -9.424   2.147   5.585  0.00  0.00    +0.024 A 
ATOM     24  C   UNL     1      -8.387   2.149   6.501  0.00  0.00    +0.056 A 
ATOM     25  C   UNL     1      -7.109   1.819   6.101  0.00  0.00    +0.025 A 
BRANCH  24  26
ATOM     26  C   UNL     1      -8.656   2.506   7.940  0.00  0.00    +0.417 C 
ATOM     27  F   UNL     1      -8.977   1.348   8.656  0.00  0.00    -0.166 F 
ATOM     28  F   UNL     1      -7.516   3.097   8.495  0.00  0.00    -0.166 F 
ATOM     29  F   UNL     1      -9.726   3.406   8.005  0.00  0.00    -0.166 F 
ENDBRANCH  24  26
BRANCH  22  30
ATOM     30  C   UNL     1     -10.320   1.823   3.270  0.00  0.00    +0.417 C 
ATOM     31  F   UNL     1      -9.837   1.465   2.007  0.00  0.00    -0.166 F 
ATOM     32  F   UNL     1     -11.294   0.903   3.675  0.00  0.00    -0.166 F 
ATOM     33  F   UNL     1     -10.884   3.102   3.208  0.00  0.00    -0.166 F 
ENDBRANCH  22  30
ENDBRANCH  17  20
ENDBRANCH   6  16
BRANCH   5  34
ATOM     34  C   UNL     1      -4.490   0.103   0.234  0.00  0.00    +0.342 C 
ATOM     35  O   UNL     1      -5.072  -0.935  -0.018  0.00  0.00    -0.245 OA
BRANCH  34  36
ATOM     36  O   UNL     1      -4.712   1.200  -0.519  0.00  0.00    -0.464 OA
ATOM     37  C   UNL     1      -5.643   1.072  -1.595  0.00  0.00    +0.280 C 
ENDBRANCH  34  36
ENDBRANCH   5  34
TORSDOF 6
