REMARK  Name = ZINC30735260
REMARK  8 active torsions:
REMARK  status: ('A' for Active; 'I' for Inactive)
REMARK    1  A    between atoms: C_1  and  C_2
REMARK    2  A    between atoms: C_5  and  S_8
REMARK    3  A    between atoms: S_8  and  N_11
REMARK    4  A    between atoms: N_14  and  C_17
REMARK    5  A    between atoms: C_17  and  C_18
REMARK    6  A    between atoms: N_20  and  N_21
REMARK    7  A    between atoms: C_22  and  C_23
REMARK    8  A    between atoms: C_26  and  C_29
REMARK                            x       y       z     vdW  Elec       q    Type
REMARK                         _______ _______ _______ _____ _____    ______ ____
ROOT
ATOM      1  C   UNL     1       2.267   5.202   0.890  0.00  0.00    +0.020 C 
ENDROOT
BRANCH   1   5
ATOM      2  N   UNL     1       5.854   6.931   2.215  0.00  0.00    -0.180 NA
ATOM      3  C   UNL     1       5.192   7.564   1.064  0.00  0.00    +0.091 C 
ATOM      4  C   UNL     1       3.723   7.130   1.048  0.00  0.00    -0.061 C 
ATOM      5  N   UNL     1       3.649   5.663   1.078  0.00  0.00    +0.387 N 
ATOM      6  C   UNL     1       4.219   5.126   2.321  0.00  0.00    -0.061 C 
ATOM      7  C   UNL     1       5.709   5.478   2.389  0.00  0.00    +0.091 C 
ATOM      8  H   UNL     1       4.251   5.280   0.240  0.00  0.00    -0.081 HD
BRANCH   2   9
ATOM      9  S   UNL     1       6.738   7.832   3.288  0.00  0.00    +0.061 S 
ATOM     10  O   UNL     1       7.661   6.942   3.900  0.00  0.00    -0.153 OA
ATOM     11  O   UNL     1       7.152   9.000   2.593  0.00  0.00    -0.153 OA
BRANCH   9  16
ATOM     12  C   UNL     1       2.962   9.652   7.628  0.00  0.00    +0.044 C 
ATOM     13  C   UNL     1       3.905   9.197   6.544  0.00  0.00    -0.050 A 
ATOM     14  C   UNL     1       4.582   7.999   6.675  0.00  0.00    +0.005 A 
ATOM     15  C   UNL     1       5.447   7.582   5.680  0.00  0.00    +0.029 A 
ATOM     16  C   UNL     1       5.635   8.363   4.555  0.00  0.00    +0.105 A 
ATOM     17  C   UNL     1       4.962   9.563   4.427  0.00  0.00    +0.029 A 
ATOM     18  C   UNL     1       4.093   9.978   5.419  0.00  0.00    +0.005 A 
ENDBRANCH   9  16
ENDBRANCH   2   9
ENDBRANCH   1   5
BRANCH   1  19
ATOM     19  C   UNL     1       2.259   3.709   0.681  0.00  0.00    +0.216 C 
ATOM     20  O   UNL     1       3.302   3.091   0.688  0.00  0.00    -0.276 OA
ATOM     21  N   UNL     1       1.093   3.062   0.487  0.00  0.00    -0.209 N 
ATOM     22  H   UNL     1       0.147   3.623   0.481  0.00  0.00    +0.177 HD
BRANCH  21  23
ATOM     23  N   UNL     1       1.086   1.674   0.293  0.00  0.00    -0.188 NA
ATOM     24  C   UNL     1      -0.019   1.068  -0.018  0.00  0.00    +0.138 C 
BRANCH  24  25
ATOM     25  C   UNL     1      -1.138   1.829  -0.601  0.00  0.00    -0.005 A 
ATOM     26  C   UNL     1      -2.428   1.290  -0.596  0.00  0.00    +0.010 A 
ATOM     27  C   UNL     1      -3.474   2.004  -1.136  0.00  0.00    +0.009 A 
ATOM     28  C   UNL     1      -3.245   3.261  -1.697  0.00  0.00    -0.018 A 
ATOM     29  C   UNL     1      -1.957   3.798  -1.707  0.00  0.00    +0.009 A 
ATOM     30  C   UNL     1      -0.910   3.088  -1.163  0.00  0.00    +0.010 A 
BRANCH  28  31
ATOM     31  C   UNL     1      -4.371   4.027  -2.283  0.00  0.00    -0.018 A 
ATOM     32  C   UNL     1      -4.147   5.285  -2.839  0.00  0.00    +0.008 A 
ATOM     33  C   UNL     1      -5.198   5.992  -3.387  0.00  0.00    +0.001 A 
ATOM     34  C   UNL     1      -6.474   5.458  -3.376  0.00  0.00    +0.000 A 
ATOM     35  C   UNL     1      -6.704   4.212  -2.821  0.00  0.00    +0.001 A 
ATOM     36  C   UNL     1      -5.659   3.494  -2.274  0.00  0.00    +0.008 A 
ENDBRANCH  28  31
ENDBRANCH  24  25
ENDBRANCH  21  23
ENDBRANCH   1  19
TORSDOF 7
