REMARK  Name = ZINC59417611
REMARK  6 active torsions:
REMARK  status: ('A' for Active; 'I' for Inactive)
REMARK    1  A    between atoms: N_13  and  C_16
REMARK    2  A    between atoms: C_23  and  S_25
REMARK    3  A    between atoms: S_25  and  C_26
REMARK    4  A    between atoms: C_26  and  C_27
REMARK    5  A    between atoms: C_27  and  C_29
REMARK    6  A    between atoms: C_32  and  O_35
REMARK                            x       y       z     vdW  Elec       q    Type
REMARK                         _______ _______ _______ _____ _____    ______ ____
ROOT
ATOM      1  C   UNL     1       2.513  -4.175  -0.044  0.00  0.00    +0.046 A 
ATOM      2  C   UNL     1       1.333  -4.908   0.063  0.00  0.00    +0.026 A 
ATOM      3  C   UNL     1       1.338  -6.268   0.059  0.00  0.00    +0.031 A 
ATOM      4  C   UNL     1       2.548  -6.991  -0.055  0.00  0.00    +0.080 A 
ATOM      5  C   UNL     1       3.729  -6.222  -0.162  0.00  0.00    +0.042 A 
ATOM      6  C   UNL     1       3.721  -4.850  -0.163  0.00  0.00    +0.041 A 
ATOM      7  S   UNL     1       4.986  -7.472  -0.282  0.00  0.00    -0.061 S 
ATOM      8  C   UNL     1       3.903  -8.890  -0.186  0.00  0.00    +0.136 A 
ATOM      9  N   UNL     1       2.719  -8.332  -0.075  0.00  0.00    -0.233 NA
ENDROOT
BRANCH   1  22
ATOM     10  C   UNL     1       2.608   1.434   2.375  0.00  0.00    +0.001 A 
ATOM     11  C   UNL     1       2.483   2.142   1.214  0.00  0.00    +0.008 A 
ATOM     12  C   UNL     1       2.384   1.466  -0.014  0.00  0.00    -0.016 A 
ATOM     13  C   UNL     1       2.253   2.149  -1.236  0.00  0.00    +0.008 A 
ATOM     14  C   UNL     1       2.159   1.449  -2.404  0.00  0.00    +0.001 A 
ATOM     15  C   UNL     1       2.189   0.059  -2.425  0.00  0.00    +0.014 A 
ATOM     16  C   UNL     1       2.317  -0.652  -1.241  0.00  0.00    +0.046 A 
ATOM     17  C   UNL     1       2.416   0.056  -0.022  0.00  0.00    +0.006 A 
ATOM     18  C   UNL     1       2.546  -0.660   1.190  0.00  0.00    +0.046 A 
ATOM     19  C   UNL     1       2.641   0.045   2.381  0.00  0.00    +0.014 A 
ATOM     20  C   UNL     1       2.576  -2.129   1.142  0.00  0.00    +0.258 C 
ATOM     21  O   UNL     1       2.687  -2.765   2.172  0.00  0.00    -0.269 OA
ATOM     22  N   UNL     1       2.480  -2.773  -0.036  0.00  0.00    -0.202 N 
ATOM     23  C   UNL     1       2.353  -2.122  -1.208  0.00  0.00    +0.258 C 
ATOM     24  O   UNL     1       2.268  -2.752  -2.244  0.00  0.00    -0.269 OA
ENDBRANCH   1  22
BRANCH   8  25
ATOM     25  S   UNL     1       4.318 -10.602  -0.230  0.00  0.00    -0.091 S 
BRANCH  25  26
ATOM     26  C   UNL     1       2.718 -11.445  -0.084  0.00  0.00    +0.156 C 
BRANCH  26  27
ATOM     27  C   UNL     1       2.933 -12.937  -0.108  0.00  0.00    +0.173 C 
ATOM     28  O   UNL     1       4.054 -13.387  -0.214  0.00  0.00    -0.291 OA
BRANCH  27  29
ATOM     29  C   UNL     1       1.784 -13.845  -0.004  0.00  0.00    +0.018 A 
ATOM     30  C   UNL     1       0.487 -13.329   0.111  0.00  0.00    +0.015 A 
ATOM     31  C   UNL     1      -0.582 -14.181   0.208  0.00  0.00    +0.046 A 
ATOM     32  C   UNL     1      -0.381 -15.557   0.191  0.00  0.00    +0.117 A 
ATOM     33  C   UNL     1       0.904 -16.076   0.076  0.00  0.00    +0.046 A 
ATOM     34  C   UNL     1       1.980 -15.232  -0.027  0.00  0.00    +0.015 A 
BRANCH  32  35
ATOM     35  O   UNL     1      -1.443 -16.397   0.287  0.00  0.00    -0.507 OA
ATOM     36  H   UNL     1      -1.829 -16.641  -0.565  0.00  0.00    +0.292 HD
ENDBRANCH  32  35
ENDBRANCH  27  29
ENDBRANCH  26  27
ENDBRANCH  25  26
ENDBRANCH   8  25
TORSDOF 6
