REMARK  Name = ZINC36595142
REMARK  12 active torsions:
REMARK  status: ('A' for Active; 'I' for Inactive)
REMARK    1  A    between atoms: C_1  and  C_2
REMARK    2  A    between atoms: C_5  and  C_7
REMARK    3  A    between atoms: C_7  and  N_8
REMARK    4  A    between atoms: N_8  and  C_9
REMARK    5  A    between atoms: C_9  and  C_11
REMARK    6  A    between atoms: C_9  and  C_17
REMARK    7  A    between atoms: N_19  and  C_20
REMARK    8  A    between atoms: C_20  and  C_21
REMARK    9  A    between atoms: C_20  and  C_22
REMARK   10  A    between atoms: C_20  and  C_23
REMARK   11  A    between atoms: C_24  and  C_26
REMARK   12  A    between atoms: C_26  and  C_27
REMARK                            x       y       z     vdW  Elec       q    Type
REMARK                         _______ _______ _______ _____ _____    ______ ____
ROOT
ATOM      1  N   UNL     1       1.767  -3.611  -1.650  0.00  0.00    -0.282 N 
ATOM      2  C   UNL     1       1.269  -3.617  -0.398  0.00  0.00    +0.221 C 
ATOM      3  O   UNL     1       1.858  -3.039   0.491  0.00  0.00    -0.275 OA
ENDROOT
BRANCH   1   4
ATOM      4  C   UNL     1       1.056  -4.310  -2.724  0.00  0.00    +0.182 C 
BRANCH   4   9
ATOM      5  C   UNL     1       3.929  -8.164  -4.250  0.00  0.00    +0.086 C 
ATOM      6  C   UNL     1       2.860  -7.379  -3.534  0.00  0.00    +0.102 A 
ATOM      7  C   UNL     1       1.960  -7.882  -2.670  0.00  0.00    +0.045 A 
ATOM      8  C   UNL     1       1.155  -6.801  -2.242  0.00  0.00    +0.046 A 
ATOM      9  C   UNL     1       1.611  -5.703  -2.871  0.00  0.00    +0.122 A 
ATOM     10  O   UNL     1       2.647  -6.058  -3.648  0.00  0.00    -0.463 OA
ENDBRANCH   4   9
ENDBRANCH   1   4
BRANCH   1  11
ATOM     11  C   UNL     1       3.019  -2.908  -1.938  0.00  0.00    +0.165 C 
BRANCH  11  12
ATOM     12  C   UNL     1       4.117  -3.416  -1.000  0.00  0.00    +0.018 C 
ATOM     13  C   UNL     1       5.454  -2.785  -1.393  0.00  0.00    +0.006 C 
ATOM     14  C   UNL     1       6.552  -3.294  -0.456  0.00  0.00    +0.000 C 
ATOM     15  C   UNL     1       6.653  -4.816  -0.567  0.00  0.00    +0.000 C 
ATOM     16  C   UNL     1       5.315  -5.446  -0.175  0.00  0.00    +0.000 C 
ATOM     17  C   UNL     1       4.218  -4.938  -1.112  0.00  0.00    +0.006 C 
ENDBRANCH  11  12
BRANCH  11  18
ATOM     18  C   UNL     1       2.824  -1.428  -1.727  0.00  0.00    +0.234 C 
ATOM     19  O   UNL     1       1.894  -1.028  -1.059  0.00  0.00    -0.274 OA
ATOM     20  N   UNL     1       3.682  -0.549  -2.281  0.00  0.00    -0.309 N 
ATOM     21  H   UNL     1       4.388  -0.865  -2.867  0.00  0.00    +0.149 HD
BRANCH  20  22
ATOM     22  C   UNL     1       3.549   0.882  -1.998  0.00  0.00    +0.026 C 
ATOM     23  C   UNL     1       3.696   1.120  -0.494  0.00  0.00    +0.031 C 
ATOM     24  C   UNL     1       4.639   1.653  -2.745  0.00  0.00    +0.031 C 
ATOM     25  C   UNL     1       2.174   1.368  -2.459  0.00  0.00    +0.031 C 
ENDBRANCH  20  22
ENDBRANCH  11  18
ENDBRANCH   1  11
BRANCH   2  26
ATOM     26  C   UNL     1      -0.019  -4.341  -0.102  0.00  0.00    +0.131 C 
BRANCH  26  27
ATOM     27  C   UNL     1      -0.353  -4.195   1.361  0.00  0.00    -0.039 A 
ATOM     28  C   UNL     1       0.115  -5.122   2.272  0.00  0.00    +0.005 A 
ATOM     29  C   UNL     1      -0.191  -4.988   3.614  0.00  0.00    +0.015 A 
ATOM     30  C   UNL     1      -0.965  -3.926   4.043  0.00  0.00    +0.018 A 
ATOM     31  C   UNL     1      -1.433  -2.998   3.131  0.00  0.00    +0.015 A 
ATOM     32  C   UNL     1      -1.123  -3.130   1.790  0.00  0.00    +0.005 A 
ATOM     33 BR   UNL     1      -1.385  -3.742   5.878  0.00  0.00    -0.050 Br
ENDBRANCH  26  27
ENDBRANCH   2  26
TORSDOF 8
