REMARK  Name = ZINC40285877
REMARK  3 active torsions:
REMARK  status: ('A' for Active; 'I' for Inactive)
REMARK    1  A    between atoms: C_3  and  C_9
REMARK    2  A    between atoms: C_6  and  C_7
REMARK    3  A    between atoms: N_19  and  C_20
REMARK                            x       y       z     vdW  Elec       q    Type
REMARK                         _______ _______ _______ _____ _____    ______ ____
ROOT
ATOM      1  C   UNL     1       3.670   2.194  -0.021  0.00  0.00    +0.080 C 
ATOM      2  C   UNL     1       4.500   1.825   1.211  0.00  0.00    +0.110 C 
ATOM      3  C   UNL     1       5.148   0.478   1.054  0.00  0.00    +0.219 C 
ATOM      4  O   UNL     1       5.249  -0.241   2.026  0.00  0.00    -0.275 OA
ATOM      5  N   UNL     1       5.620   0.043  -0.134  0.00  0.00    -0.270 N 
ATOM      6  C   UNL     1       5.372   0.826  -1.263  0.00  0.00    +0.133 A 
ATOM      7  C   UNL     1       4.464   1.843  -1.254  0.00  0.00    +0.089 A 
ATOM      8  N   UNL     1       4.448   2.396  -2.465  0.00  0.00    -0.238 NA
ATOM      9  C   UNL     1       5.305   1.776  -3.235  0.00  0.00    +0.205 A 
ATOM     10  N   UNL     1       5.907   0.781  -2.513  0.00  0.00    -0.287 N 
ATOM     11  H   UNL     1       6.117  -0.787  -0.201  0.00  0.00    +0.156 HD
ENDROOT
BRANCH  10  12
ATOM     12  C   UNL     1       6.886  -0.112  -2.972  0.00  0.00    +0.055 A 
ATOM     13  C   UNL     1       8.049  -0.304  -2.240  0.00  0.00    +0.064 A 
ATOM     14  C   UNL     1       9.014  -1.185  -2.694  0.00  0.00    +0.128 A 
ATOM     15  C   UNL     1       8.820  -1.875  -3.879  0.00  0.00    +0.076 A 
ATOM     16  C   UNL     1       7.660  -1.684  -4.611  0.00  0.00    +0.128 A 
ATOM     17  C   UNL     1       6.690  -0.808  -4.156  0.00  0.00    +0.064 A 
ATOM     18  F   UNL     1       7.473  -2.357  -5.767  0.00  0.00    -0.205 F 
ATOM     19  F   UNL     1      10.146  -1.373  -1.982  0.00  0.00    -0.205 F 
ENDBRANCH  10  12
BRANCH   1  22
ATOM     20  C   UNL     1      -0.017   1.392   0.010  0.00  0.00    +0.019 A 
ATOM     21  C   UNL     1       1.170   2.095   0.002  0.00  0.00    +0.005 A 
ATOM     22  C   UNL     1       2.378   1.419  -0.013  0.00  0.00    -0.038 A 
ATOM     23  C   UNL     1       2.404   0.036  -0.021  0.00  0.00    +0.005 A 
ATOM     24  C   UNL     1       1.224  -0.679  -0.014  0.00  0.00    +0.019 A 
ATOM     25  C   UNL     1       0.002  -0.004   0.002  0.00  0.00    +0.052 A 
BRANCH  25  26
ATOM     26  C   UNL     1      -1.226  -0.740   0.010  0.00  0.00    +0.099 C 
ATOM     27  N   UNL     1      -2.201  -1.324   0.017  0.00  0.00    -0.191 NA
ENDBRANCH  25  26
ENDBRANCH   1  22
TORSDOF 3
