REMARK  Name = ZINC09389878
REMARK  9 active torsions:
REMARK  status: ('A' for Active; 'I' for Inactive)
REMARK    1  A    between atoms: C_1  and  C_2
REMARK    2  A    between atoms: C_2  and  C_3
REMARK    3  A    between atoms: C_6  and  C_9
REMARK    4  A    between atoms: C_15  and  C_17
REMARK    5  A    between atoms: C_17  and  C_19
REMARK    6  A    between atoms: C_17  and  S_20
REMARK    7  A    between atoms: S_20  and  C_21
REMARK    8  A    between atoms: C_24  and  C_27
REMARK    9  A    between atoms: N_25  and  N_26
REMARK                            x       y       z     vdW  Elec       q    Type
REMARK                         _______ _______ _______ _____ _____    ______ ____
ROOT
ATOM      1  C   UNL     1      -4.987   2.168   3.241  0.00  0.00    +0.080 A 
ATOM      2  C   UNL     1      -4.451   3.325   3.735  0.00  0.00    +0.076 A 
ATOM      3  S   UNL     1      -2.944   3.427   2.778  0.00  0.00    -0.060 S 
ATOM      4  C   UNL     1      -3.186   1.936   1.822  0.00  0.00    +0.165 A 
ATOM      5  N   UNL     1      -4.339   1.503   2.296  0.00  0.00    -0.225 NA
ATOM      6  N   UNL     1      -2.373   1.378   0.843  0.00  0.00    -0.264 N 
ATOM      7  C   UNL     1      -1.220   1.984   0.498  0.00  0.00    +0.232 C 
ATOM      8  O   UNL     1      -0.892   3.018   1.042  0.00  0.00    -0.274 OA
ATOM      9  H   UNL     1      -2.635   0.551   0.408  0.00  0.00    +0.157 HD
ENDROOT
BRANCH   1  13
ATOM     10  C   UNL     1      -8.697   0.716   4.726  0.00  0.00    -0.048 A 
ATOM     11  C   UNL     1      -8.029   0.015   3.739  0.00  0.00    +0.004 A 
ATOM     12  C   UNL     1      -6.824   0.482   3.253  0.00  0.00    +0.010 A 
ATOM     13  C   UNL     1      -6.281   1.662   3.759  0.00  0.00    +0.001 A 
ATOM     14  C   UNL     1      -6.957   2.361   4.758  0.00  0.00    +0.010 A 
ATOM     15  C   UNL     1      -8.163   1.888   5.232  0.00  0.00    +0.004 A 
BRANCH  10  17
ATOM     16  C   UNL     1      -9.756  -0.728   6.442  0.00  0.00    +0.009 C 
ATOM     17  C   UNL     1     -10.012   0.201   5.253  0.00  0.00    +0.032 C 
ENDBRANCH  10  17
ENDBRANCH   1  13
BRANCH   7  18
ATOM     18  C   UNL     1      -0.338   1.379  -0.564  0.00  0.00    +0.137 C 
ATOM     19  C   UNL     1      -0.818   1.831  -1.944  0.00  0.00    +0.029 C 
BRANCH  18  20
ATOM     20  S   UNL     1       1.370   1.922  -0.311  0.00  0.00    -0.072 S 
BRANCH  20  21
ATOM     21  C   UNL     1       2.179   0.974  -1.556  0.00  0.00    +0.209 A 
ATOM     22  N   UNL     1       1.610   0.128  -2.385  0.00  0.00    -0.121 NA
ATOM     23  N   UNL     1       2.493  -0.387  -3.165  0.00  0.00    -0.127 NA
ATOM     24  C   UNL     1       3.680   0.091  -2.875  0.00  0.00    +0.183 A 
ATOM     25  N   UNL     1       3.516   0.978  -1.836  0.00  0.00    -0.224 N 
BRANCH  24  26
ATOM     26  C   UNL     1       4.954  -0.258  -3.539  0.00  0.00    +0.039 A 
ATOM     27  C   UNL     1       6.179   0.037  -2.929  0.00  0.00    +0.014 A 
ATOM     28  C   UNL     1       7.343  -0.311  -3.593  0.00  0.00    +0.020 A 
ATOM     29  C   UNL     1       7.259  -0.932  -4.826  0.00  0.00    +0.111 A 
ATOM     30  N   UNL     1       6.090  -1.198  -5.377  0.00  0.00    -0.263 NA
ATOM     31  C   UNL     1       4.956  -0.891  -4.783  0.00  0.00    +0.122 A 
ENDBRANCH  24  26
BRANCH  25  32
ATOM     32  N   UNL     1       4.488   1.709  -1.214  0.00  0.00    -0.295 N 
ATOM     33  H   UNL     1       4.939   1.170  -0.491  0.00  0.00    +0.163 HD
ATOM     34  H   UNL     1       5.161   2.056  -1.880  0.00  0.00    +0.163 HD
ENDBRANCH  25  32
ENDBRANCH  20  21
ENDBRANCH  18  20
ENDBRANCH   7  18
TORSDOF 7
