REMARK  Name = ZINC65138111
REMARK  8 active torsions:
REMARK  status: ('A' for Active; 'I' for Inactive)
REMARK    1  A    between atoms: C_1  and  C_2
REMARK    2  A    between atoms: C_12  and  C_14
REMARK    3  A    between atoms: C_14  and  N_15
REMARK    4  A    between atoms: C_18  and  S_28
REMARK    5  A    between atoms: N_22  and  C_25
REMARK    6  A    between atoms: C_25  and  C_26
REMARK    7  A    between atoms: C_25  and  C_27
REMARK    8  A    between atoms: S_28  and  N_31
REMARK                            x       y       z     vdW  Elec       q    Type
REMARK                         _______ _______ _______ _____ _____    ______ ____
ROOT
ATOM      1  N   UNL     1       0.654  -0.482   4.855  0.00  0.00    -0.283 N 
ATOM      2  C   UNL     1       0.962   0.668   5.579  0.00  0.00    +0.072 A 
ATOM      3  C   UNL     1       1.823   1.732   5.354  0.00  0.00    +0.056 A 
ATOM      4  C   UNL     1       1.912   2.752   6.280  0.00  0.00    +0.108 A 
ATOM      5  C   UNL     1       1.146   2.717   7.433  0.00  0.00    +0.030 A 
ATOM      6  C   UNL     1       0.286   1.661   7.666  0.00  0.00    +0.030 A 
ATOM      7  C   UNL     1       0.189   0.633   6.741  0.00  0.00    +0.070 A 
ATOM      8  N   UNL     1      -0.565  -0.537   6.688  0.00  0.00    -0.289 N 
ATOM      9  C   UNL     1      -0.268  -1.181   5.543  0.00  0.00    +0.331 A 
ATOM     10  O   UNL     1      -0.757  -2.237   5.186  0.00  0.00    -0.246 OA
ENDROOT
BRANCH   8  11
ATOM     11  C   UNL     1      -1.522  -0.987   7.702  0.00  0.00    +0.086 C 
ATOM     12  C   UNL     1      -2.910  -1.116   7.071  0.00  0.00    +0.031 C 
ATOM     13  C   UNL     1      -1.082  -2.346   8.250  0.00  0.00    +0.031 C 
ENDBRANCH   8  11
BRANCH   4  14
ATOM     14  S   UNL     1       3.006   4.103   5.995  0.00  0.00    +0.061 S 
ATOM     15  O   UNL     1       3.310   4.656   7.268  0.00  0.00    -0.153 OA
ATOM     16  O   UNL     1       4.012   3.631   5.110  0.00  0.00    -0.153 OA
BRANCH  14  17
ATOM     17  N   UNL     1       2.153   5.258   5.170  0.00  0.00    -0.177 NA
ATOM     18  C   UNL     1       2.043   5.360   3.707  0.00  0.00    +0.109 C 
ATOM     19  C   UNL     1       1.175   6.598   3.398  0.00  0.00    +0.018 C 
ATOM     20  C   UNL     1       1.313   7.450   4.688  0.00  0.00    +0.018 C 
ATOM     21  C   UNL     1       1.372   6.350   5.780  0.00  0.00    +0.109 C 
ENDBRANCH  14  17
ENDBRANCH   4  14
BRANCH   1  22
ATOM     22  C   UNL     1       1.231  -0.862   3.564  0.00  0.00    +0.223 C 
BRANCH  22  33
ATOM     23  C   UNL     1      -0.019   1.526   0.010  0.00  0.00    +0.029 C 
ATOM     24  C   UNL     1       0.002  -0.004   0.002  0.00  0.00    +0.083 C 
ATOM     25  C   UNL     1       0.778  -0.520  -1.221  0.00  0.00    +0.059 C 
ATOM     26  C   UNL     1       1.932  -1.304  -0.637  0.00  0.00    -0.024 A 
ATOM     27  C   UNL     1       2.960  -1.995  -1.249  0.00  0.00    +0.005 A 
ATOM     28  C   UNL     1       3.912  -2.643  -0.485  0.00  0.00    +0.000 A 
ATOM     29  C   UNL     1       3.833  -2.599   0.895  0.00  0.00    +0.002 A 
ATOM     30  C   UNL     1       2.809  -1.912   1.510  0.00  0.00    +0.024 A 
ATOM     31  C   UNL     1       1.844  -1.254   0.745  0.00  0.00    +0.040 A 
ATOM     32  N   UNL     1       0.735  -0.509   1.166  0.00  0.00    -0.267 N 
ATOM     33  C   UNL     1       0.393  -0.287   2.450  0.00  0.00    +0.240 C 
ATOM     34  O   UNL     1      -0.589   0.375   2.711  0.00  0.00    -0.273 OA
ENDBRANCH  22  33
ENDBRANCH   1  22
TORSDOF 5
