REMARK  Name = ZINC01314613
REMARK  4 active torsions:
REMARK  status: ('A' for Active; 'I' for Inactive)
REMARK    1  A    between atoms: C_4  and  N_7
REMARK    2  A    between atoms: C_8  and  C_26
REMARK    3  A    between atoms: C_18  and  C_19
REMARK    4  A    between atoms: C_30  and  N_32
REMARK                            x       y       z     vdW  Elec       q    Type
REMARK                         _______ _______ _______ _____ _____    ______ ____
ROOT
ATOM      1  N   UNL     1       3.140  -2.169   1.044  0.00  0.00    -0.255 N 
ATOM      2  C   UNL     1       1.999  -2.082   0.119  0.00  0.00    +0.146 C 
ATOM      3  C   UNL     1       1.317  -0.787   0.437  0.00  0.00    +0.027 C 
ATOM      4  C   UNL     1       2.035  -0.176   1.413  0.00  0.00    +0.098 C 
ATOM      5  C   UNL     1       3.147  -1.053   1.803  0.00  0.00    +0.266 C 
ATOM      6  O   UNL     1       3.954  -0.809   2.678  0.00  0.00    -0.268 OA
ATOM      7  N   UNL     1       1.706   1.083   1.891  0.00  0.00    -0.338 N 
ATOM      8  C   UNL     1       1.852   2.222   0.978  0.00  0.00    +0.122 C 
ATOM      9  C   UNL     1       1.369   1.830  -0.423  0.00  0.00    +0.131 C 
ATOM     10  N   UNL     1       0.109   1.095  -0.424  0.00  0.00    -0.382 N 
ATOM     11  C   UNL     1       0.098  -0.187  -0.112  0.00  0.00    +0.050 C 
ATOM     12  H   UNL     1       1.347   1.243   2.918  0.00  0.00    +0.146 HD
ATOM     13  H   UNL     1      -0.830   1.606  -0.684  0.00  0.00    +0.160 HD
ENDROOT
BRANCH  11  14
ATOM     14  C   UNL     1      -1.122  -1.004  -0.314  0.00  0.00    -0.002 A 
ATOM     15  C   UNL     1      -1.898  -0.832  -1.460  0.00  0.00    +0.011 A 
ATOM     16  C   UNL     1      -3.029  -1.599  -1.646  0.00  0.00    +0.020 A 
ATOM     17  C   UNL     1      -3.402  -2.530  -0.691  0.00  0.00    +0.041 A 
ATOM     18  C   UNL     1      -2.639  -2.700   0.452  0.00  0.00    +0.020 A 
ATOM     19  C   UNL     1      -1.502  -1.943   0.644  0.00  0.00    +0.011 A 
ATOM     20 CL   UNL     1      -4.832  -3.486  -0.927  0.00  0.00    -0.084 Cl
ENDBRANCH  11  14
BRANCH   1  24
ATOM     21  C   UNL     1       5.866  -5.310   1.283  0.00  0.00    +0.000 A 
ATOM     22  C   UNL     1       5.993  -4.221   2.126  0.00  0.00    +0.002 A 
ATOM     23  C   UNL     1       5.091  -3.177   2.049  0.00  0.00    +0.023 A 
ATOM     24  C   UNL     1       4.055  -3.223   1.125  0.00  0.00    +0.038 A 
ATOM     25  C   UNL     1       3.927  -4.321   0.283  0.00  0.00    +0.023 A 
ATOM     26  C   UNL     1       4.836  -5.358   0.361  0.00  0.00    +0.002 A 
ENDBRANCH   1  24
BRANCH   2  27
ATOM     27  C   UNL     1       1.056  -3.236   0.345  0.00  0.00    -0.020 A 
ATOM     28  C   UNL     1       0.804  -3.681   1.629  0.00  0.00    +0.006 A 
ATOM     29  C   UNL     1      -0.064  -4.737   1.837  0.00  0.00    +0.003 A 
ATOM     30  C   UNL     1      -0.673  -5.353   0.759  0.00  0.00    +0.033 A 
ATOM     31  C   UNL     1      -0.417  -4.911  -0.525  0.00  0.00    +0.127 A 
ATOM     32  C   UNL     1       0.448  -3.852  -0.732  0.00  0.00    +0.038 A 
BRANCH  31  33
ATOM     33  N   UNL     1      -1.069  -5.571  -1.679  0.00  0.00    +0.056 N 
ATOM     34  O   UNL     1      -0.844  -5.181  -2.810  0.00  0.00    -0.126 OA
ATOM     35  O   UNL     1      -1.831  -6.503  -1.496  0.00  0.00    -0.126 OA
ENDBRANCH  31  33
ENDBRANCH   2  27
TORSDOF 4
