REMARK  Name = ZINC38685227
REMARK  16 active torsions:
REMARK  status: ('A' for Active; 'I' for Inactive)
REMARK    1  A    between atoms: C_1  and  C_2
REMARK    2  A    between atoms: C_2  and  C_3
REMARK    3  A    between atoms: C_3  and  C_4
REMARK    4  A    between atoms: C_4  and  O_5
REMARK    5  A    between atoms: O_5  and  C_6
REMARK    6  A    between atoms: C_10  and  C_12
REMARK    7  A    between atoms: C_17  and  O_26
REMARK    8  A    between atoms: C_21  and  N_25
REMARK    9  A    between atoms: C_22  and  C_23
REMARK   10  A    between atoms: O_26  and  C_27
REMARK   11  A    between atoms: C_27  and  C_29
REMARK   12  A    between atoms: C_29  and  O_30
REMARK   13  A    between atoms: O_30  and  C_31
REMARK   14  A    between atoms: C_34  and  C_37
REMARK   15  A    between atoms: C_37  and  C_38
REMARK   16  A    between atoms: C_37  and  C_39
REMARK                            x       y       z     vdW  Elec       q    Type
REMARK                         _______ _______ _______ _____ _____    ______ ____
ROOT
ATOM      1  C   UNL     1       3.001  -6.329  -5.093  0.00  0.00    +0.098 C 
ATOM      2  C   UNL     1       2.024  -7.165  -5.877  0.00  0.00    +0.008 A 
ATOM      3  C   UNL     1       1.008  -6.543  -6.582  0.00  0.00    +0.012 A 
ATOM      4  C   UNL     1       0.103  -7.293  -7.306  0.00  0.00    +0.047 A 
ATOM      5  C   UNL     1       0.211  -8.677  -7.329  0.00  0.00    +0.135 A 
ATOM      6  C   UNL     1       1.226  -9.303  -6.625  0.00  0.00    +0.093 A 
ATOM      7  C   UNL     1       2.136  -8.546  -5.897  0.00  0.00    +0.138 A 
ATOM      8  O   UNL     1       3.124  -9.174  -5.213  0.00  0.00    -0.441 OA
ATOM      9  C   UNL     1       4.216  -8.489  -4.834  0.00  0.00    +0.199 C 
ATOM     10  C   UNL     1       4.220  -7.140  -4.756  0.00  0.00    +0.098 C 
ENDROOT
BRANCH   1  15
ATOM     11  C   UNL     1       1.604  -4.075  -2.401  0.00  0.00    +0.121 A 
ATOM     12  C   UNL     1       1.144  -5.003  -1.478  0.00  0.00    +0.045 A 
ATOM     13  C   UNL     1       1.286  -6.354  -1.729  0.00  0.00    +0.004 A 
ATOM     14  C   UNL     1       1.886  -6.782  -2.899  0.00  0.00    +0.005 A 
ATOM     15  C   UNL     1       2.346  -5.860  -3.820  0.00  0.00    -0.031 A 
ATOM     16  C   UNL     1       2.202  -4.507  -3.576  0.00  0.00    +0.050 A 
BRANCH  11  17
ATOM     17  O   UNL     1       1.465  -2.746  -2.157  0.00  0.00    -0.492 OA
BRANCH  17  18
ATOM     18  C   UNL     1       0.841  -2.374  -0.927  0.00  0.00    +0.229 C 
BRANCH  18  19
ATOM     19  C   UNL     1       0.773  -0.849  -0.829  0.00  0.00    +0.041 C 
BRANCH  19  21
ATOM     20  C   UNL     1       0.038   1.075   0.585  0.00  0.00    +0.004 C 
ATOM     21  C   UNL     1       0.105  -0.450   0.488  0.00  0.00    -0.000 C 
ENDBRANCH  19  21
ENDBRANCH  18  19
ENDBRANCH  17  18
ENDBRANCH  11  17
ENDBRANCH   1  15
BRANCH   9  22
ATOM     22  N   UNL     1       5.359  -9.180  -4.516  0.00  0.00    -0.328 N 
ATOM     23  H   UNL     1       5.370 -10.149  -4.566  0.00  0.00    +0.145 HD
ATOM     24  H   UNL     1       6.155  -8.699  -4.240  0.00  0.00    +0.145 HD
ENDBRANCH   9  22
BRANCH  10  25
ATOM     25  C   UNL     1       5.417  -6.470  -4.345  0.00  0.00    +0.101 C 
ATOM     26  N   UNL     1       6.366  -5.939  -4.018  0.00  0.00    -0.191 NA
ENDBRANCH  10  25
BRANCH   5  27
ATOM     27  O   UNL     1      -0.680  -9.417  -8.042  0.00  0.00    -0.423 OA
BRANCH  27  28
ATOM     28  C   UNL     1      -1.553 -10.178  -7.363  0.00  0.00    +0.350 C 
ATOM     29  O   UNL     1      -1.601 -10.112  -6.157  0.00  0.00    -0.247 OA
BRANCH  28  30
ATOM     30  C   UNL     1      -2.472 -11.114  -8.104  0.00  0.00    +0.349 C 
BRANCH  30  31
ATOM     31  O   UNL     1      -3.300 -11.808  -7.169  0.00  0.00    -0.481 OA
BRANCH  31  32
ATOM     32  C   UNL     1      -4.193 -12.698  -7.677  0.00  0.00    +0.121 A 
ATOM     33  C   UNL     1      -4.267 -12.902  -9.047  0.00  0.00    +0.046 A 
ATOM     34  C   UNL     1      -5.176 -13.807  -9.561  0.00  0.00    +0.007 A 
ATOM     35  C   UNL     1      -6.011 -14.508  -8.712  0.00  0.00    -0.045 A 
ATOM     36  C   UNL     1      -5.939 -14.306  -7.346  0.00  0.00    +0.007 A 
ATOM     37  C   UNL     1      -5.028 -13.407  -6.826  0.00  0.00    +0.046 A 
BRANCH  35  38
ATOM     38  C   UNL     1      -7.001 -15.495  -9.275  0.00  0.00    +0.013 C 
ATOM     39  C   UNL     1      -6.713 -16.887  -8.710  0.00  0.00    +0.012 C 
ATOM     40  C   UNL     1      -8.419 -15.071  -8.888  0.00  0.00    +0.012 C 
ENDBRANCH  35  38
ENDBRANCH  31  32
ENDBRANCH  30  31
ENDBRANCH  28  30
ENDBRANCH  27  28
ENDBRANCH   5  27
TORSDOF 13
