REMARK  Name = ZINC45772300
REMARK  8 active torsions:
REMARK  status: ('A' for Active; 'I' for Inactive)
REMARK    1  A    between atoms: C_1  and  C_2
REMARK    2  A    between atoms: N_11  and  C_15
REMARK    3  A    between atoms: C_15  and  C_16
REMARK    4  A    between atoms: N_18  and  C_19
REMARK    5  A    between atoms: C_24  and  C_25
REMARK    6  A    between atoms: C_25  and  N_26
REMARK    7  A    between atoms: N_26  and  C_27
REMARK    8  A    between atoms: N_26  and  C_28
REMARK                            x       y       z     vdW  Elec       q    Type
REMARK                         _______ _______ _______ _____ _____    ______ ____
ROOT
ATOM      1  C   UNL     1       3.700   2.816   1.979  0.00  0.00    +0.235 C 
ATOM      2  O   UNL     1       3.164   3.035   0.913  0.00  0.00    -0.274 OA
ATOM      3  N   UNL     1       4.255   3.827   2.674  0.00  0.00    -0.284 N 
ATOM      4  H   UNL     1       4.626   3.664   3.556  0.00  0.00    +0.155 HD
ENDROOT
BRANCH   3   5
ATOM      5  C   UNL     1       4.298   5.114   2.125  0.00  0.00    +0.035 A 
ATOM      6  C   UNL     1       3.258   5.561   1.321  0.00  0.00    +0.023 A 
ATOM      7  C   UNL     1       3.303   6.831   0.780  0.00  0.00    +0.002 A 
ATOM      8  C   UNL     1       4.382   7.657   1.038  0.00  0.00    +0.000 A 
ATOM      9  C   UNL     1       5.419   7.214   1.838  0.00  0.00    +0.003 A 
ATOM     10  C   UNL     1       5.377   5.947   2.387  0.00  0.00    -0.043 A 
BRANCH  10  11
ATOM     11  C   UNL     1       6.505   5.468   3.265  0.00  0.00    -0.041 C 
BRANCH  11  12
ATOM     12  N   UNL     1       7.404   4.610   2.481  0.00  0.00    +0.382 N 
ATOM     13  C   UNL     1       8.045   5.407   1.427  0.00  0.00    -0.095 C 
ATOM     14  H   UNL     1       6.874   3.861   2.062  0.00  0.00    -0.081 HD
BRANCH  12  15
ATOM     15  C   UNL     1       8.435   4.047   3.364  0.00  0.00    -0.069 C 
ATOM     16  C   UNL     1       9.372   3.154   2.548  0.00  0.00    -0.015 C 
ATOM     17  C   UNL     1      10.446   2.567   3.466  0.00  0.00    -0.002 C 
ATOM     18  C   UNL     1       9.778   1.737   4.565  0.00  0.00    -0.000 C 
ATOM     19  C   UNL     1       8.841   2.630   5.381  0.00  0.00    -0.002 C 
ATOM     20  C   UNL     1       7.768   3.217   4.462  0.00  0.00    -0.015 C 
ENDBRANCH  12  15
ENDBRANCH  11  12
ENDBRANCH  10  11
ENDBRANCH   3   5
BRANCH   1  21
ATOM     21  C   UNL     1       3.744   1.412   2.526  0.00  0.00    +0.214 C 
BRANCH  21  31
ATOM     22  C   UNL     1       2.181   0.986  -1.602  0.00  0.00    +0.010 C 
ATOM     23  C   UNL     1       2.473  -0.515  -1.554  0.00  0.00    +0.018 C 
ATOM     24  C   UNL     1       3.765  -0.808  -2.321  0.00  0.00    +0.006 C 
ATOM     25  C   UNL     1       4.067  -2.306  -2.256  0.00  0.00    +0.000 C 
ATOM     26  C   UNL     1       4.245  -2.728  -0.796  0.00  0.00    +0.003 C 
ATOM     27  C   UNL     1       2.955  -2.443  -0.022  0.00  0.00    +0.035 C 
ATOM     28  C   UNL     1       2.630  -0.956  -0.103  0.00  0.00    +0.115 C 
ATOM     29  C   UNL     1       3.702  -0.141   0.583  0.00  0.00    +0.247 C 
ATOM     30  O   UNL     1       4.877  -0.080   0.290  0.00  0.00    -0.273 OA
ATOM     31  N   UNL     1       3.077   0.502   1.591  0.00  0.00    -0.215 N 
ATOM     32  C   UNL     1       1.772   0.207   1.630  0.00  0.00    +0.310 C 
ATOM     33  O   UNL     1       1.000   0.664   2.449  0.00  0.00    -0.252 OA
ATOM     34  N   UNL     1       1.411  -0.655   0.660  0.00  0.00    -0.285 N 
ATOM     35  H   UNL     1       0.522  -1.006   0.497  0.00  0.00    +0.151 HD
ENDBRANCH  21  31
ENDBRANCH   1  21
TORSDOF 6
