REMARK  Name = ZINC04024591
REMARK  11 active torsions:
REMARK  status: ('A' for Active; 'I' for Inactive)
REMARK    1  A    between atoms: C_1  and  C_2
REMARK    2  A    between atoms: C_2  and  O_3
REMARK    3  A    between atoms: O_3  and  C_4
REMARK    4  A    between atoms: C_4  and  C_6
REMARK    5  A    between atoms: C_6  and  C_7
REMARK    6  A    between atoms: C_7  and  C_8
REMARK    7  A    between atoms: C_8  and  C_10
REMARK    8  A    between atoms: C_8  and  C_11
REMARK    9  A    between atoms: C_17  and  C_35
REMARK   10  A    between atoms: C_28  and  O_34
REMARK   11  A    between atoms: C_32  and  C_33
REMARK                            x       y       z     vdW  Elec       q    Type
REMARK                         _______ _______ _______ _____ _____    ______ ____
ROOT
ATOM      1  C   UNL     1      -3.578  -0.666   4.193  0.00  0.00    -0.002 C 
ATOM      2  C   UNL     1      -3.175   0.479   5.159  0.00  0.00    +0.004 C 
ATOM      3  C   UNL     1      -2.308   1.470   4.330  0.00  0.00    +0.004 C 
ATOM      4  C   UNL     1      -2.713   1.135   2.889  0.00  0.00    -0.001 C 
ATOM      5  C   UNL     1      -2.751  -0.405   2.926  0.00  0.00    -0.026 C 
ATOM      6  C   UNL     1      -3.309  -0.919   1.622  0.00  0.00    +0.007 C 
ATOM      7  C   UNL     1      -2.360  -0.467   0.489  0.00  0.00    +0.005 C 
ATOM      8  C   UNL     1      -2.251   1.045   0.453  0.00  0.00    +0.002 C 
ATOM      9  C   UNL     1      -1.855   1.681   1.777  0.00  0.00    -0.003 C 
ATOM     10  C   UNL     1      -0.380   1.696   2.108  0.00  0.00    +0.008 C 
ATOM     11  C   UNL     1       0.492   1.319   0.912  0.00  0.00    +0.031 C 
ATOM     12  C   UNL     1      -0.095   2.015  -0.294  0.00  0.00    -0.065 C 
ATOM     13  C   UNL     1       0.551   2.949  -0.914  0.00  0.00    +0.004 C 
ATOM     14  C   UNL     1       0.050   3.705  -2.098  0.00  0.00    +0.137 C 
ATOM     15  C   UNL     1      -1.385   3.385  -2.474  0.00  0.00    +0.036 C 
ATOM     16  C   UNL     1      -2.184   2.812  -1.310  0.00  0.00    +0.014 C 
ATOM     17  C   UNL     1      -1.472   1.583  -0.735  0.00  0.00    -0.008 C 
ATOM     18  C   UNL     1      -1.330   0.522  -1.829  0.00  0.00    +0.016 C 
ATOM     19  C   UNL     1      -1.375  -1.031   3.168  0.00  0.00    +0.012 C 
ENDROOT
BRANCH   1  20
ATOM     20  C   UNL     1      -5.075  -0.621   3.905  0.00  0.00    -0.010 C 
ATOM     21  C   UNL     1      -5.412   0.674   3.164  0.00  0.00    +0.008 C 
BRANCH  20  22
ATOM     22  C   UNL     1      -5.464  -1.821   3.039  0.00  0.00    +0.014 C 
BRANCH  22  23
ATOM     23  C   UNL     1      -6.986  -1.878   2.901  0.00  0.00    +0.121 C 
BRANCH  23  24
ATOM     24  C   UNL     1      -7.370  -3.059   2.049  0.00  0.00    +0.307 C 
ATOM     25  O   UNL     1      -6.513  -3.782   1.597  0.00  0.00    -0.251 OA
BRANCH  24  26
ATOM     26  O   UNL     1      -8.663  -3.309   1.790  0.00  0.00    -0.465 OA
BRANCH  26  28
ATOM     27  C   UNL     1     -10.472  -4.587   0.778  0.00  0.00    +0.048 C 
ATOM     28  C   UNL     1      -8.958  -4.465   0.962  0.00  0.00    +0.229 C 
ENDBRANCH  26  28
ENDBRANCH  24  26
ENDBRANCH  23  24
ENDBRANCH  22  23
ENDBRANCH  20  22
ENDBRANCH   1  20
BRANCH  14  29
ATOM     29  O   UNL     1       0.150   5.106  -1.820  0.00  0.00    -0.388 OA
ATOM     30  H   UNL     1       1.038   5.394  -1.571  0.00  0.00    +0.210 HD
ENDBRANCH  14  29
TORSDOF 7
