REMARK  Name = ZINC05030430
REMARK  5 active torsions:
REMARK  status: ('A' for Active; 'I' for Inactive)
REMARK    1  A    between atoms: C_6  and  C_7
REMARK    2  A    between atoms: N_8  and  N_9
REMARK    3  A    between atoms: N_9  and  C_10
REMARK    4  A    between atoms: C_10  and  N_12
REMARK    5  A    between atoms: N_12  and  C_13
REMARK                            x       y       z     vdW  Elec       q    Type
REMARK                         _______ _______ _______ _____ _____    ______ ____
ROOT
ATOM      1  C   UNL     1       1.764   7.937  -0.965  0.00  0.00    +0.150 C 
ATOM      2  S   UNL     1       0.947   8.789  -2.205  0.00  0.00    -0.017 S 
ENDROOT
BRANCH   1   3
ATOM      3  N   UNL     1       1.789   6.589  -0.977  0.00  0.00    -0.218 N 
ATOM      4  H   UNL     1       1.345   6.102  -1.688  0.00  0.00    +0.176 HD
BRANCH   3   6
ATOM      5  C   UNL     1       2.482   4.595   0.026  0.00  0.00    +0.138 C 
ATOM      6  N   UNL     1       2.458   5.892   0.037  0.00  0.00    -0.188 NA
BRANCH   5  12
ATOM      7  C   UNL     1       3.827   4.559   2.119  0.00  0.00    +0.011 A 
ATOM      8  C   UNL     1       4.483   3.867   3.116  0.00  0.00    +0.022 A 
ATOM      9  C   UNL     1       4.503   2.483   3.104  0.00  0.00    +0.059 A 
ATOM     10  C   UNL     1       3.874   1.783   2.087  0.00  0.00    +0.060 A 
ATOM     11  C   UNL     1       3.214   2.464   1.084  0.00  0.00    +0.031 A 
ATOM     12  C   UNL     1       3.186   3.861   1.094  0.00  0.00    -0.004 A 
ATOM     13 CL   UNL     1       3.910   0.048   2.077  0.00  0.00    -0.082 Cl
ATOM     14 CL   UNL     1       5.326   1.619   4.366  0.00  0.00    -0.082 Cl
ENDBRANCH   5  12
ENDBRANCH   3   6
ENDBRANCH   1   3
BRANCH   1  15
ATOM     15  N   UNL     1       2.382   8.613   0.023  0.00  0.00    -0.320 N 
ATOM     16  H   UNL     1       2.780   8.132   0.765  0.00  0.00    +0.148 HD
BRANCH  15  17
ATOM     17  C   UNL     1       2.453  10.076  -0.023  0.00  0.00    +0.034 C 
ATOM     18  C   UNL     1       3.264  10.586   1.170  0.00  0.00    +0.029 C 
ATOM     19  C   UNL     1       3.338  12.113   1.121  0.00  0.00    -0.008 C 
ATOM     20  C   UNL     1       1.924  12.694   1.180  0.00  0.00    +0.007 C 
ATOM     21  C   UNL     1       1.112  12.184  -0.013  0.00  0.00    -0.008 C 
ATOM     22  C   UNL     1       1.039  10.657   0.036  0.00  0.00    +0.029 C 
ATOM     23  C   UNL     1       1.789  12.621  -1.313  0.00  0.00    +0.007 C 
ATOM     24  C   UNL     1       3.203  12.040  -1.373  0.00  0.00    -0.008 C 
ATOM     25  C   UNL     1       4.014  12.550  -0.180  0.00  0.00    +0.007 C 
ATOM     26  C   UNL     1       3.130  10.513  -1.324  0.00  0.00    +0.029 C 
ENDBRANCH  15  17
ENDBRANCH   1  15
TORSDOF 5
