REMARK  Name = ZINC33138068
REMARK  4 active torsions:
REMARK  status: ('A' for Active; 'I' for Inactive)
REMARK    1  A    between atoms: C_4  and  N_7
REMARK    2  A    between atoms: C_13  and  C_15
REMARK    3  A    between atoms: C_15  and  N_16
REMARK    4  A    between atoms: C_24  and  C_28
REMARK                            x       y       z     vdW  Elec       q    Type
REMARK                         _______ _______ _______ _____ _____    ______ ____
ROOT
ATOM      1  N   UNL     1      -2.422   0.981   0.005  0.00  0.00    -0.260 N 
ATOM      2  C   UNL     1      -2.869   0.561   1.255  0.00  0.00    +0.050 A 
ATOM      3  C   UNL     1      -2.067   0.780   2.371  0.00  0.00    +0.024 A 
ATOM      4  C   UNL     1      -2.484   0.367   3.620  0.00  0.00    +0.002 A 
ATOM      5  C   UNL     1      -3.703  -0.268   3.778  0.00  0.00    +0.001 A 
ATOM      6  C   UNL     1      -4.512  -0.490   2.678  0.00  0.00    +0.016 A 
ATOM      7  C   UNL     1      -4.099  -0.074   1.423  0.00  0.00    +0.030 A 
ATOM      8  S   UNL     1      -5.132  -0.342   0.016  0.00  0.00    -0.101 S 
ATOM      9  C   UNL     1      -3.924  -0.494  -1.335  0.00  0.00    +0.223 C 
ATOM     10  C   UNL     1      -2.894   0.595  -1.175  0.00  0.00    +0.243 C 
ATOM     11  O   UNL     1      -2.472   1.142  -2.172  0.00  0.00    -0.273 OA
ENDROOT
BRANCH   9  12
ATOM     12  C   UNL     1      -3.256  -1.843  -1.268  0.00  0.00    +0.238 C 
ATOM     13  O   UNL     1      -2.246  -1.988  -0.613  0.00  0.00    -0.274 OA
ATOM     14  N   UNL     1      -3.781  -2.889  -1.937  0.00  0.00    -0.300 N 
ATOM     15  C   UNL     1      -4.919  -2.660  -2.799  0.00  0.00    +0.108 C 
ATOM     16  C   UNL     1      -6.227  -2.817  -1.995  0.00  0.00    +0.019 C 
ATOM     17  C   UNL     1      -6.454  -4.232  -1.663  0.00  0.00    +0.002 C 
ATOM     18  C   UNL     1      -5.382  -4.848  -0.768  0.00  0.00    +0.002 C 
ATOM     19  C   UNL     1      -4.235  -5.329  -1.621  0.00  0.00    +0.019 C 
ATOM     20  C   UNL     1      -3.174  -4.222  -1.755  0.00  0.00    +0.108 C 
ENDBRANCH   9  12
BRANCH   1  21
ATOM     21  C   UNL     1      -1.325   1.951  -0.009  0.00  0.00    +0.209 C 
BRANCH  21  28
ATOM     22  N   UNL     1       3.403   3.248   0.890  0.00  0.00    -0.327 N 
ATOM     23  C   UNL     1       3.328   1.787   1.025  0.00  0.00    +0.124 C 
ATOM     24  C   UNL     1       2.444   1.218  -0.090  0.00  0.00    +0.126 C 
ATOM     25  N   UNL     1       1.148   1.913  -0.059  0.00  0.00    -0.297 N 
ATOM     26  C   UNL     1       1.146   3.384  -0.058  0.00  0.00    +0.126 C 
ATOM     27  C   UNL     1       2.082   3.866   1.062  0.00  0.00    +0.124 C 
ATOM     28  C   UNL     1      -0.008   1.220  -0.036  0.00  0.00    +0.233 C 
ATOM     29  O   UNL     1       0.012   0.007  -0.042  0.00  0.00    -0.274 OA
BRANCH  22  33
ATOM     30  C   UNL     1       6.161   4.854   3.563  0.00  0.00    +0.000 A 
ATOM     31  C   UNL     1       5.465   5.687   2.707  0.00  0.00    +0.002 A 
ATOM     32  C   UNL     1       4.549   5.158   1.819  0.00  0.00    +0.023 A 
ATOM     33  C   UNL     1       4.328   3.787   1.786  0.00  0.00    +0.030 A 
ATOM     34  C   UNL     1       5.026   2.953   2.652  0.00  0.00    +0.023 A 
ATOM     35  C   UNL     1       5.944   3.489   3.534  0.00  0.00    +0.002 A 
ENDBRANCH  22  33
ENDBRANCH  21  28
ENDBRANCH   1  21
TORSDOF 4
