REMARK  Name = ZINC10128988
REMARK  9 active torsions:
REMARK  status: ('A' for Active; 'I' for Inactive)
REMARK    1  A    between atoms: C_1  and  C_2
REMARK    2  A    between atoms: C_2  and  C_3
REMARK    3  A    between atoms: C_2  and  O_4
REMARK    4  A    between atoms: O_4  and  C_5
REMARK    5  A    between atoms: C_5  and  C_7
REMARK    6  A    between atoms: C_7  and  C_8
REMARK    7  A    between atoms: N_15  and  C_16
REMARK    8  A    between atoms: C_16  and  N_18
REMARK    9  A    between atoms: C_19  and  C_21
REMARK                            x       y       z     vdW  Elec       q    Type
REMARK                         _______ _______ _______ _____ _____    ______ ____
ROOT
ATOM      1  C   UNL     1      -0.056   1.570   0.014  0.00  0.00    +0.140 C 
ATOM      2  S   UNL     1       1.482   2.302  -0.162  0.00  0.00    -0.018 S 
ENDROOT
BRANCH   1   9
ATOM      3  C   UNL     1      -2.506   1.732   0.133  0.00  0.00    +0.171 C 
ATOM      4  C   UNL     1      -3.326   2.657   0.990  0.00  0.00    +0.234 C 
ATOM      5  O   UNL     1      -4.367   2.244   1.455  0.00  0.00    -0.274 OA
ATOM      6  N   UNL     1      -2.961   3.910   1.262  0.00  0.00    -0.312 N 
ATOM      7  C   UNL     1      -1.700   4.513   0.850  0.00  0.00    +0.123 C 
ATOM      8  C   UNL     1      -1.107   3.766  -0.340  0.00  0.00    +0.126 C 
ATOM      9  N   UNL     1      -1.173   2.321  -0.063  0.00  0.00    -0.299 N 
ATOM     10  H   UNL     1      -3.578   4.460   1.771  0.00  0.00    +0.149 HD
BRANCH   3  11
ATOM     11  C   UNL     1      -3.189   1.550  -1.224  0.00  0.00    +0.152 C 
BRANCH  11  12
ATOM     12  C   UNL     1      -2.447   0.512  -2.026  0.00  0.00    +0.310 C 
ATOM     13  O   UNL     1      -1.420   0.040  -1.599  0.00  0.00    -0.251 OA
BRANCH  12  14
ATOM     14  O   UNL     1      -2.926   0.113  -3.215  0.00  0.00    -0.462 OA
BRANCH  14  16
ATOM     15  C   UNL     1      -2.641  -2.285  -3.530  0.00  0.00    +0.052 C 
ATOM     16  C   UNL     1      -2.158  -0.889  -3.932  0.00  0.00    +0.170 C 
ATOM     17  C   UNL     1      -2.349  -0.697  -5.437  0.00  0.00    +0.052 C 
ENDBRANCH  14  16
ENDBRANCH  12  14
ENDBRANCH  11  12
ENDBRANCH   3  11
ENDBRANCH   1   9
BRANCH   1  18
ATOM     18  N   UNL     1      -0.150   0.244   0.234  0.00  0.00    -0.263 N 
ATOM     19  C   UNL     1       0.958  -0.523   0.212  0.00  0.00    +0.258 C 
ATOM     20  O   UNL     1       2.043  -0.018  -0.008  0.00  0.00    -0.269 OA
ATOM     21  H   UNL     1      -1.015  -0.159   0.410  0.00  0.00    +0.157 HD
BRANCH  19  22
ATOM     22  C   UNL     1       0.856  -1.967   0.452  0.00  0.00    +0.094 A 
ATOM     23  C   UNL     1       1.850  -2.898   0.464  0.00  0.00    +0.068 A 
ATOM     24  C   UNL     1       1.544  -4.247   0.722  0.00  0.00    +0.008 A 
ATOM     25  C   UNL     1       2.431  -5.353   0.781  0.00  0.00    +0.010 A 
ATOM     26  C   UNL     1       1.966  -6.603   1.037  0.00  0.00    +0.001 A 
ATOM     27  C   UNL     1       0.615  -6.848   1.250  0.00  0.00    +0.001 A 
ATOM     28  C   UNL     1      -0.282  -5.801   1.202  0.00  0.00    +0.016 A 
ATOM     29  C   UNL     1       0.174  -4.526   0.942  0.00  0.00    +0.021 A 
ATOM     30  S   UNL     1      -0.602  -2.937   0.792  0.00  0.00    -0.082 S 
ATOM     31 CL   UNL     1       3.493  -2.420   0.167  0.00  0.00    -0.082 Cl
ENDBRANCH  19  22
ENDBRANCH   1  18
TORSDOF 7
