REMARK  Name = ZINC21254671
REMARK  8 active torsions:
REMARK  status: ('A' for Active; 'I' for Inactive)
REMARK    1  A    between atoms: C_1  and  C_2
REMARK    2  A    between atoms: C_5  and  C_11
REMARK    3  A    between atoms: C_7  and  N_8
REMARK    4  A    between atoms: C_22  and  C_25
REMARK    5  A    between atoms: C_28  and  O_31
REMARK    6  A    between atoms: O_31  and  C_32
REMARK    7  A    between atoms: C_32  and  C_33
REMARK    8  A    between atoms: C_32  and  C_34
REMARK                            x       y       z     vdW  Elec       q    Type
REMARK                         _______ _______ _______ _____ _____    ______ ____
ROOT
ATOM      1  C   UNL     1      -7.246  -0.716  -0.120  0.00  0.00    +0.063 C 
ATOM      2  C   UNL     1      -7.816  -0.346  -1.490  0.00  0.00    +0.109 C 
ATOM      3  C   UNL     1      -6.679  -0.037  -2.430  0.00  0.00    +0.218 C 
ATOM      4  O   UNL     1      -6.775  -0.311  -3.607  0.00  0.00    -0.275 OA
ATOM      5  N   UNL     1      -5.558   0.542  -1.966  0.00  0.00    -0.289 N 
ATOM      6  C   UNL     1      -5.432   0.887  -0.644  0.00  0.00    +0.018 C 
ATOM      7  C   UNL     1      -6.218   0.311   0.290  0.00  0.00    +0.020 C 
ATOM      8  C   UNL     1      -6.100   0.644   1.650  0.00  0.00    +0.162 C 
ATOM      9  O   UNL     1      -6.835   0.115   2.461  0.00  0.00    -0.292 OA
ATOM     10  C   UNL     1      -5.078   1.645   2.119  0.00  0.00    +0.088 C 
ATOM     11  C   UNL     1      -3.888   1.629   1.154  0.00  0.00    +0.032 C 
ATOM     12  C   UNL     1      -4.401   1.919  -0.259  0.00  0.00    +0.059 C 
ATOM     13  H   UNL     1      -4.721   0.748  -2.650  0.00  0.00    +0.155 HD
ENDROOT
BRANCH   1  18
ATOM     14  C   UNL     1      -4.761  -5.925  -0.410  0.00  0.00    +0.046 C 
ATOM     15  C   UNL     1      -5.409  -4.566  -0.334  0.00  0.00    -0.020 A 
ATOM     16  C   UNL     1      -4.950  -3.536  -1.133  0.00  0.00    +0.006 A 
ATOM     17  C   UNL     1      -5.548  -2.291  -1.068  0.00  0.00    +0.004 A 
ATOM     18  C   UNL     1      -6.598  -2.074  -0.195  0.00  0.00    -0.037 A 
ATOM     19  C   UNL     1      -7.057  -3.104   0.604  0.00  0.00    +0.037 A 
ATOM     20  C   UNL     1      -6.462  -4.350   0.535  0.00  0.00    +0.129 A 
BRANCH  20  21
ATOM     21  N   UNL     1      -6.954  -5.454   1.391  0.00  0.00    +0.057 N 
ATOM     22  O   UNL     1      -6.997  -6.590   0.954  0.00  0.00    -0.126 OA
ATOM     23  O   UNL     1      -7.314  -5.225   2.531  0.00  0.00    -0.126 OA
ENDBRANCH  20  21
ENDBRANCH   1  18
BRANCH  11  24
ATOM     24  C   UNL     1      -2.895   2.688   1.558  0.00  0.00    -0.043 A 
ATOM     25  C   UNL     1      -1.598   2.333   1.876  0.00  0.00    +0.007 A 
ATOM     26  C   UNL     1      -0.684   3.302   2.242  0.00  0.00    +0.046 A 
ATOM     27  C   UNL     1      -1.071   4.633   2.295  0.00  0.00    +0.121 A 
ATOM     28  C   UNL     1      -2.375   4.987   1.981  0.00  0.00    +0.046 A 
ATOM     29  C   UNL     1      -3.285   4.014   1.616  0.00  0.00    +0.007 A 
BRANCH  27  30
ATOM     30  O   UNL     1      -0.174   5.589   2.655  0.00  0.00    -0.489 OA
BRANCH  30  31
ATOM     31  C   UNL     1       1.111   5.142   3.089  0.00  0.00    +0.167 C 
ATOM     32  C   UNL     1       2.012   4.921   1.872  0.00  0.00    +0.051 C 
ATOM     33  C   UNL     1       1.737   6.198   4.002  0.00  0.00    +0.051 C 
ENDBRANCH  30  31
ENDBRANCH  27  30
ENDBRANCH  11  24
TORSDOF 5
