REMARK  Name = ZINC39369727
REMARK  11 active torsions:
REMARK  status: ('A' for Active; 'I' for Inactive)
REMARK    1  A    between atoms: C_1  and  C_2
REMARK    2  A    between atoms: C_2  and  O_3
REMARK    3  A    between atoms: O_3  and  C_4
REMARK    4  A    between atoms: C_4  and  C_6
REMARK    5  A    between atoms: C_6  and  O_7
REMARK    6  A    between atoms: O_7  and  C_8
REMARK    7  A    between atoms: C_11  and  C_15
REMARK    8  A    between atoms: C_16  and  C_17
REMARK    9  A    between atoms: C_16  and  C_19
REMARK   10  A    between atoms: C_25  and  O_29
REMARK   11  A    between atoms: O_29  and  C_30
REMARK                            x       y       z     vdW  Elec       q    Type
REMARK                         _______ _______ _______ _____ _____    ______ ____
ROOT
ATOM      1  C   UNL     1       3.855  -6.776  -6.642  0.00  0.00    +0.026 C 
ATOM      2  C   UNL     1       5.202  -6.761  -6.712  0.00  0.00    +0.072 C 
ENDROOT
BRANCH   2   3
ATOM      3  C   UNL     1       6.016  -6.387  -5.500  0.00  0.00    +0.216 C 
ATOM      4  N   UNL     1       6.792  -7.544  -5.037  0.00  0.00    -0.359 N 
ATOM      5  C   UNL     1       8.052  -7.223  -5.106  0.00  0.00    +0.061 A 
ATOM      6  C   UNL     1       9.280  -7.964  -4.780  0.00  0.00    +0.031 A 
ATOM      7  C   UNL     1      10.480  -7.377  -4.950  0.00  0.00    +0.048 A 
ATOM      8  C   UNL     1      10.607  -6.015  -5.452  0.00  0.00    +0.122 A 
ATOM      9  C   UNL     1       9.522  -5.268  -5.774  0.00  0.00    +0.073 A 
ATOM     10  C   UNL     1       8.180  -5.832  -5.619  0.00  0.00    +0.064 A 
ATOM     11  N   UNL     1       6.989  -5.345  -5.848  0.00  0.00    -0.359 N 
ATOM     12  H   UNL     1       6.432  -8.392  -4.735  0.00  0.00    +0.162 HD
ATOM     13  H   UNL     1       6.786  -4.459  -6.186  0.00  0.00    +0.162 HD
BRANCH   8  14
ATOM     14  O   UNL     1      11.844  -5.479  -5.600  0.00  0.00    -0.495 OA
ATOM     15  C   UNL     1      12.955  -6.305  -5.247  0.00  0.00    +0.277 C 
ENDBRANCH   8  14
ENDBRANCH   2   3
BRANCH   1  19
ATOM     16  C   UNL     1       1.917  -6.258  -2.903  0.00  0.00    +0.158 A 
ATOM     17  C   UNL     1       1.409  -5.637  -4.038  0.00  0.00    +0.085 A 
ATOM     18  C   UNL     1       2.035  -5.803  -5.255  0.00  0.00    +0.031 A 
ATOM     19  C   UNL     1       3.184  -6.596  -5.346  0.00  0.00    -0.021 A 
ATOM     20  C   UNL     1       3.691  -7.219  -4.200  0.00  0.00    +0.031 A 
ATOM     21  C   UNL     1       3.062  -7.043  -2.987  0.00  0.00    +0.085 A 
ATOM     22 CL   UNL     1       3.695  -7.809  -1.563  0.00  0.00    -0.080 Cl
ATOM     23 CL   UNL     1      -0.017  -4.653  -3.924  0.00  0.00    -0.080 Cl
BRANCH  16  24
ATOM     24  O   UNL     1       1.297  -6.091  -1.706  0.00  0.00    -0.478 OA
BRANCH  24  25
ATOM     25  C   UNL     1       1.721  -4.987  -0.903  0.00  0.00    +0.349 C 
BRANCH  25  26
ATOM     26  C   UNL     1       0.928  -4.963   0.378  0.00  0.00    +0.345 C 
ATOM     27  O   UNL     1       0.085  -5.805   0.582  0.00  0.00    -0.247 OA
BRANCH  26  28
ATOM     28  O   UNL     1       1.156  -4.007   1.291  0.00  0.00    -0.463 OA
BRANCH  28  30
ATOM     29  C   UNL     1       0.768  -2.885   3.396  0.00  0.00    +0.048 C 
ATOM     30  C   UNL     1       0.367  -4.045   2.482  0.00  0.00    +0.229 C 
ENDBRANCH  28  30
ENDBRANCH  26  28
ENDBRANCH  25  26
ENDBRANCH  24  25
ENDBRANCH  16  24
ENDBRANCH   1  19
BRANCH   2  31
ATOM     31  C   UNL     1       5.860  -7.101  -7.938  0.00  0.00    +0.099 C 
ATOM     32  N   UNL     1       6.381  -7.370  -8.911  0.00  0.00    -0.191 NA
ENDBRANCH   2  31
TORSDOF 9
