REMARK  Name = ZINC03384191
REMARK  17 active torsions:
REMARK  status: ('A' for Active; 'I' for Inactive)
REMARK    1  A    between atoms: C_1  and  C_2
REMARK    2  A    between atoms: C_5  and  S_9
REMARK    3  A    between atoms: C_7  and  C_8
REMARK    4  A    between atoms: S_9  and  C_10
REMARK    5  A    between atoms: C_10  and  C_11
REMARK    6  A    between atoms: C_11  and  N_62
REMARK    7  A    between atoms: C_12  and  C_13
REMARK    8  A    between atoms: C_12  and  N_62
REMARK    9  A    between atoms: C_13  and  C_15
REMARK   10  A    between atoms: C_13  and  O_28
REMARK   11  A    between atoms: C_15  and  O_16
REMARK   12  A    between atoms: O_16  and  C_17
REMARK   13  A    between atoms: C_20  and  C_24
REMARK   14  A    between atoms: C_22  and  C_23
REMARK   15  A    between atoms: C_24  and  C_25
REMARK   16  A    between atoms: C_24  and  C_26
REMARK   17  A    between atoms: C_24  and  C_27
REMARK                            x       y       z     vdW  Elec       q    Type
REMARK                         _______ _______ _______ _____ _____    ______ ____
ROOT
ATOM      1  C   UNL     1       3.735  -0.867  -0.037  0.00  0.00    +0.135 C 
ENDROOT
BRANCH   1   2
ATOM      2  O   UNL     1       4.376  -0.506  -1.262  0.00  0.00    -0.390 OA
ATOM      3  H   UNL     1       3.929  -0.839  -2.053  0.00  0.00    +0.210 HD
ENDBRANCH   1   2
BRANCH   1   4
ATOM      4  C   UNL     1       3.681  -2.391   0.082  0.00  0.00    -0.047 C 
BRANCH   4   5
ATOM      5  N   UNL     1       5.056  -2.917   0.186  0.00  0.00    +0.381 N 
ATOM      6  H   UNL     1       5.585  -2.651  -0.652  0.00  0.00    -0.086 HD
ATOM      7  H   UNL     1       5.508  -2.518   1.017  0.00  0.00    -0.086 HD
BRANCH   5   8
ATOM      8  C   UNL     1       5.034  -4.387   0.302  0.00  0.00    -0.071 C 
BRANCH   8   9
ATOM      9  C   UNL     1       6.471  -4.903   0.409  0.00  0.00    +0.055 C 
BRANCH   9  10
ATOM     10  S   UNL     1       6.455  -6.711   0.552  0.00  0.00    -0.127 S 
BRANCH  10  15
ATOM     11  C   UNL     1      12.293  -8.196   0.938  0.00  0.00    +0.044 C 
ATOM     12  C   UNL     1      10.835  -7.825   0.842  0.00  0.00    -0.047 A 
ATOM     13  C   UNL     1      10.468  -6.497   0.720  0.00  0.00    +0.005 A 
ATOM     14  C   UNL     1       9.134  -6.154   0.625  0.00  0.00    +0.015 A 
ATOM     15  C   UNL     1       8.159  -7.144   0.664  0.00  0.00    +0.008 A 
ATOM     16  C   UNL     1       8.532  -8.477   0.787  0.00  0.00    +0.018 A 
ATOM     17  C   UNL     1       9.869  -8.813   0.875  0.00  0.00    -0.046 A 
ATOM     18  C   UNL     1      10.274 -10.258   1.009  0.00  0.00    +0.044 C 
ENDBRANCH  10  15
ENDBRANCH   9  10
ENDBRANCH   8   9
ENDBRANCH   5   8
ENDBRANCH   4   5
ENDBRANCH   1   4
BRANCH   1  19
ATOM     19  C   UNL     1       2.313  -0.303  -0.021  0.00  0.00    +0.258 C 
BRANCH  19  20
ATOM     20  O   UNL     1       2.366   1.125  -0.014  0.00  0.00    -0.489 OA
BRANCH  20  21
ATOM     21  C   UNL     1       1.179   1.786   0.000  0.00  0.00    +0.124 A 
ATOM     22  C   UNL     1      -0.013   1.076   0.008  0.00  0.00    +0.046 A 
ATOM     23  C   UNL     1      -1.218   1.751   0.017  0.00  0.00    +0.008 A 
ATOM     24  C   UNL     1      -1.237   3.133   0.030  0.00  0.00    -0.042 A 
ATOM     25  C   UNL     1      -0.051   3.844   0.023  0.00  0.00    +0.011 A 
ATOM     26  C   UNL     1       1.157   3.173   0.008  0.00  0.00    -0.009 A 
ATOM     27  C   UNL     1       2.449   3.948   0.000  0.00  0.00    +0.047 C 
BRANCH  24  28
ATOM     28  C   UNL     1      -2.553   3.867   0.046  0.00  0.00    -0.013 C 
ATOM     29  C   UNL     1      -2.659   4.752  -1.198  0.00  0.00    +0.015 C 
ATOM     30  C   UNL     1      -3.701   2.856   0.051  0.00  0.00    +0.015 C 
ATOM     31  C   UNL     1      -2.636   4.739   1.300  0.00  0.00    +0.015 C 
ENDBRANCH  24  28
ENDBRANCH  20  21
ENDBRANCH  19  20
ENDBRANCH   1  19
TORSDOF 11
