REMARK  Name = ZINC40226701
REMARK  2 active torsions:
REMARK  status: ('A' for Active; 'I' for Inactive)
REMARK    1  A    between atoms: C_10  and  N_12
REMARK    2  A    between atoms: N_12  and  C_13
REMARK                            x       y       z     vdW  Elec       q    Type
REMARK                         _______ _______ _______ _____ _____    ______ ____
ROOT
ATOM      1  N   UNL     1       4.191   2.376   1.323  0.00  0.00    +0.388 N 
ATOM      2  H   UNL     1       4.204   1.759   2.121  0.00  0.00    -0.084 HD
ATOM      3  H   UNL     1       5.138   2.603   1.058  0.00  0.00    -0.084 HD
ENDROOT
BRANCH   1  13
ATOM      4  C   UNL     1      -0.180   1.236   1.203  0.00  0.00    +0.015 A 
ATOM      5  C   UNL     1       0.958   1.906   0.799  0.00  0.00    +0.003 A 
ATOM      6  C   UNL     1       2.148   1.219   0.630  0.00  0.00    -0.058 A 
ATOM      7  C   UNL     1       2.197  -0.142   0.869  0.00  0.00    -0.045 A 
ATOM      8  C   UNL     1       1.056  -0.813   1.275  0.00  0.00    +0.019 A 
ATOM      9  C   UNL     1      -0.132  -0.126   1.442  0.00  0.00    +0.018 A 
ATOM     10 BR   UNL     1      -1.688  -1.046   1.997  0.00  0.00    -0.050 Br
ATOM     11  C   UNL     1       3.599  -0.655   0.616  0.00  0.00    +0.034 C 
ATOM     12  C   UNL     1       4.288   0.446  -0.218  0.00  0.00    -0.007 C 
ATOM     13  C   UNL     1       3.513   1.713   0.202  0.00  0.00    -0.040 C 
ENDBRANCH   1  13
BRANCH   1  14
ATOM     14  C   UNL     1       3.471   3.610   1.670  0.00  0.00    -0.037 C 
ATOM     15  C   UNL     1       3.897   4.081   3.066  0.00  0.00    -0.011 C 
ATOM     16  C   UNL     1       3.357   5.492   3.313  0.00  0.00    +0.006 C 
ATOM     17  C   UNL     1       4.106   6.491   2.423  0.00  0.00    +0.074 C 
ATOM     18  C   UNL     1       4.095   5.969   1.007  0.00  0.00    +0.106 A 
ATOM     19  C   UNL     1       3.812   4.691   0.678  0.00  0.00    -0.020 A 
ATOM     20  C   UNL     1       3.899   4.593  -0.723  0.00  0.00    +0.043 A 
ATOM     21  C   UNL     1       4.232   5.818  -1.175  0.00  0.00    +0.195 A 
ATOM     22  O   UNL     1       4.352   6.645  -0.119  0.00  0.00    -0.468 OA
ENDBRANCH   1  14
TORSDOF 2
