REMARK  Name = ZINC07229146
REMARK  6 active torsions:
REMARK  status: ('A' for Active; 'I' for Inactive)
REMARK    1  A    between atoms: C_1  and  C_2
REMARK    2  A    between atoms: C_2  and  C_26
REMARK    3  A    between atoms: N_5  and  C_9
REMARK    4  A    between atoms: C_9  and  C_10
REMARK    5  A    between atoms: N_12  and  C_13
REMARK    6  A    between atoms: C_16  and  N_19
REMARK                            x       y       z     vdW  Elec       q    Type
REMARK                         _______ _______ _______ _____ _____    ______ ____
ROOT
ATOM      1  C   UNL     1       0.064  -2.698  -0.288  0.00  0.00    +0.235 C 
ATOM      2  O   UNL     1      -0.915  -2.042  -0.575  0.00  0.00    -0.274 OA
ATOM      3  N   UNL     1       1.232  -2.083  -0.020  0.00  0.00    -0.284 N 
ATOM      4  H   UNL     1       2.033  -2.609   0.135  0.00  0.00    +0.155 HD
ENDROOT
BRANCH   3   5
ATOM      5  C   UNL     1       1.292  -0.684   0.036  0.00  0.00    +0.034 A 
ATOM      6  C   UNL     1       0.201   0.039   0.500  0.00  0.00    +0.025 A 
ATOM      7  C   UNL     1       0.259   1.417   0.555  0.00  0.00    +0.025 A 
ATOM      8  C   UNL     1       1.408   2.080   0.146  0.00  0.00    +0.030 A 
ATOM      9  C   UNL     1       2.499   1.357  -0.319  0.00  0.00    +0.025 A 
ATOM     10  C   UNL     1       2.441  -0.021  -0.373  0.00  0.00    +0.025 A 
BRANCH   8  11
ATOM     11  N   UNL     1       1.467   3.477   0.201  0.00  0.00    -0.330 N 
ATOM     12  C   UNL     1       2.765   3.974  -0.309  0.00  0.00    +0.105 C 
ATOM     13  C   UNL     1       2.985   5.434  -0.021  0.00  0.00    +0.019 C 
ATOM     14  C   UNL     1       3.772   5.559   1.300  0.00  0.00    +0.002 C 
ATOM     15  C   UNL     1       2.920   5.375   2.469  0.00  0.00    +0.002 C 
ATOM     16  C   UNL     1       2.269   3.976   2.501  0.00  0.00    +0.019 C 
ATOM     17  C   UNL     1       1.105   3.970   1.549  0.00  0.00    +0.105 C 
ENDBRANCH   8  11
ENDBRANCH   3   5
BRANCH   1  18
ATOM     18  C   UNL     1      -0.027  -4.202  -0.231  0.00  0.00    +0.214 C 
BRANCH  18  23
ATOM     19  C   UNL     1      -4.171  -4.315  -2.445  0.00  0.00    +0.042 C 
ATOM     20  C   UNL     1      -3.278  -5.283  -1.666  0.00  0.00    +0.113 C 
ATOM     21  C   UNL     1      -1.819  -4.896  -1.808  0.00  0.00    +0.247 C 
ATOM     22  O   UNL     1      -1.172  -4.843  -2.832  0.00  0.00    -0.273 OA
ATOM     23  N   UNL     1      -1.392  -4.621  -0.560  0.00  0.00    -0.215 N 
ATOM     24  C   UNL     1      -2.366  -4.785   0.342  0.00  0.00    +0.310 C 
ATOM     25  O   UNL     1      -2.220  -4.601   1.535  0.00  0.00    -0.252 OA
ATOM     26  N   UNL     1      -3.526  -5.172  -0.218  0.00  0.00    -0.285 N 
ATOM     27  H   UNL     1      -4.362  -5.347   0.242  0.00  0.00    +0.151 HD
BRANCH  20  28
ATOM     28  C   UNL     1      -3.502  -6.720  -2.141  0.00  0.00    +0.021 C 
ATOM     29  C   UNL     1      -4.211  -6.918  -3.483  0.00  0.00    +0.006 C 
ATOM     30  C   UNL     1      -4.942  -7.236  -2.177  0.00  0.00    +0.006 C 
ENDBRANCH  20  28
ENDBRANCH  18  23
ENDBRANCH   1  18
TORSDOF 5
