REMARK  Name = ZINC19972856
REMARK  15 active torsions:
REMARK  status: ('A' for Active; 'I' for Inactive)
REMARK    1  A    between atoms: C_1  and  C_2
REMARK    2  A    between atoms: C_2  and  C_3
REMARK    3  A    between atoms: C_3  and  C_4
REMARK    4  A    between atoms: C_3  and  C_5
REMARK    5  A    between atoms: C_3  and  N_6
REMARK    6  A    between atoms: C_7  and  C_11
REMARK    7  A    between atoms: C_11  and  C_13
REMARK    8  A    between atoms: C_11  and  N_26
REMARK    9  A    between atoms: C_17  and  C_25
REMARK   10  A    between atoms: N_26  and  C_27
REMARK   11  A    between atoms: N_26  and  C_36
REMARK   12  A    between atoms: C_27  and  C_28
REMARK   13  A    between atoms: C_31  and  O_34
REMARK   14  A    between atoms: O_34  and  C_35
REMARK   15  A    between atoms: C_36  and  C_37
REMARK                            x       y       z     vdW  Elec       q    Type
REMARK                         _______ _______ _______ _____ _____    ______ ____
ROOT
ATOM      1  C   UNL     1      -0.492   1.160  -0.638  0.00  0.00    +0.163 C 
ENDROOT
BRANCH   1   2
ATOM      2  C   UNL     1      -0.439   1.255  -2.141  0.00  0.00    +0.042 A 
ATOM      3  C   UNL     1      -1.008   0.286  -2.900  0.00  0.00    +0.021 A 
ATOM      4  C   UNL     1      -0.938   0.408  -4.358  0.00  0.00    -0.001 A 
ATOM      5  C   UNL     1      -1.507  -0.559  -5.193  0.00  0.00    +0.013 A 
ATOM      6  C   UNL     1      -1.426  -0.416  -6.549  0.00  0.00    -0.050 A 
ATOM      7  C   UNL     1      -0.783   0.681  -7.106  0.00  0.00    +0.005 A 
ATOM      8  C   UNL     1      -0.215   1.646  -6.303  0.00  0.00    +0.026 A 
ATOM      9  C   UNL     1      -0.286   1.522  -4.919  0.00  0.00    +0.049 A 
ATOM     10  N   UNL     1       0.272   2.473  -4.091  0.00  0.00    -0.322 N 
ATOM     11  H   UNL     1       0.787   3.344  -4.523  0.00  0.00    +0.169 HD
ATOM     12  C   UNL     1       0.199   2.355  -2.754  0.00  0.00    +0.254 A 
ATOM     13  O   UNL     1       0.700   3.218  -2.053  0.00  0.00    -0.268 OA
ATOM     14  C   UNL     1      -2.038  -1.459  -7.448  0.00  0.00    +0.044 C 
ENDBRANCH   1   2
BRANCH   1  16
ATOM     15  N   UNL     1      -2.507   2.392   0.326  0.00  0.00    -0.222 N 
ATOM     16  C   UNL     1      -1.225   2.355  -0.085  0.00  0.00    +0.174 A 
ATOM     17  N   UNL     1      -0.738   3.558   0.094  0.00  0.00    -0.111 NA
ATOM     18  N   UNL     1      -1.673   4.298   0.582  0.00  0.00    -0.023 NA
ATOM     19  N   UNL     1      -2.742   3.596   0.726  0.00  0.00    -0.043 NA
BRANCH  15  20
ATOM     20  C   UNL     1      -3.456   1.276   0.319  0.00  0.00    +0.062 C 
ATOM     21  C   UNL     1      -3.579   0.720  -1.102  0.00  0.00    +0.036 C 
ATOM     22  C   UNL     1      -2.955   0.175   1.256  0.00  0.00    +0.036 C 
BRANCH  20  24
ATOM     23  C   UNL     1      -5.815   0.602   0.787  0.00  0.00    +0.006 C 
ATOM     24  C   UNL     1      -4.824   1.768   0.794  0.00  0.00    +0.026 C 
ENDBRANCH  20  24
ENDBRANCH  15  20
ENDBRANCH   1  16
BRANCH   1  25
ATOM     25  N   UNL     1       0.874   1.132  -0.100  0.00  0.00    -0.277 NA
BRANCH  25  26
ATOM     26  C   UNL     1       1.719   0.200  -0.859  0.00  0.00    +0.121 C 
BRANCH  26  27
ATOM     27  C   UNL     1       3.162   0.398  -0.468  0.00  0.00    -0.033 A 
ATOM     28  C   UNL     1       3.913   1.385  -1.080  0.00  0.00    +0.008 A 
ATOM     29  C   UNL     1       5.233   1.572  -0.720  0.00  0.00    +0.046 A 
ATOM     30  C   UNL     1       5.809   0.762   0.248  0.00  0.00    +0.120 A 
ATOM     31  C   UNL     1       5.054  -0.230   0.856  0.00  0.00    +0.046 A 
ATOM     32  C   UNL     1       3.733  -0.410   0.497  0.00  0.00    +0.008 A 
BRANCH  30  33
ATOM     33  O   UNL     1       7.109   0.942   0.600  0.00  0.00    -0.495 OA
ATOM     34  C   UNL     1       7.824   1.983  -0.068  0.00  0.00    +0.277 C 
ENDBRANCH  30  33
ENDBRANCH  26  27
ENDBRANCH  25  26
BRANCH  25  35
ATOM     35  C   UNL     1       0.870   0.795   1.329  0.00  0.00    +0.160 C 
BRANCH  35  36
ATOM     36  C   UNL     1       0.489   2.013   2.131  0.00  0.00    +0.119 A 
ATOM     37  C   UNL     1      -0.744   2.302   2.585  0.00  0.00    +0.046 A 
ATOM     38  C   UNL     1      -0.647   3.528   3.282  0.00  0.00    +0.041 A 
ATOM     39  C   UNL     1       0.640   3.915   3.213  0.00  0.00    +0.195 A 
ATOM     40  O   UNL     1       1.324   2.990   2.520  0.00  0.00    -0.467 OA
ENDBRANCH  35  36
ENDBRANCH  25  35
ENDBRANCH   1  25
TORSDOF 10
