REMARK  Name = ZINC22508154
REMARK  10 active torsions:
REMARK  status: ('A' for Active; 'I' for Inactive)
REMARK    1  A    between atoms: C_1  and  C_2
REMARK    2  A    between atoms: C_5  and  C_33
REMARK    3  A    between atoms: C_6  and  O_8
REMARK    4  A    between atoms: O_8  and  C_9
REMARK    5  A    between atoms: C_9  and  C_10
REMARK    6  A    between atoms: N_12  and  N_13
REMARK    7  A    between atoms: N_13  and  C_14
REMARK    8  A    between atoms: C_14  and  C_15
REMARK    9  A    between atoms: C_33  and  C_34
REMARK   10  A    between atoms: C_33  and  C_35
REMARK                            x       y       z     vdW  Elec       q    Type
REMARK                         _______ _______ _______ _____ _____    ______ ____
ROOT
ATOM      1  C   UNL     1       6.375   3.306  -3.201  0.00  0.00    +0.198 C 
ENDROOT
BRANCH   1   2
ATOM      2  C   UNL     1       5.433   3.173  -2.032  0.00  0.00    +0.234 C 
ATOM      3  O   UNL     1       5.790   3.512  -0.924  0.00  0.00    -0.274 OA
ATOM      4  N   UNL     1       4.193   2.677  -2.219  0.00  0.00    -0.264 N 
ATOM      5  C   UNL     1       3.325   2.554  -1.141  0.00  0.00    +0.165 A 
ATOM      6  N   UNL     1       2.087   2.098  -1.121  0.00  0.00    -0.229 NA
ATOM      7  C   UNL     1       1.395   2.049  -0.000  0.00  0.00    +0.054 A 
ATOM      8  C   UNL     1       1.983   2.480   1.142  0.00  0.00    +0.014 A 
ATOM      9  S   UNL     1       3.590   2.962   0.527  0.00  0.00    -0.057 S 
ATOM     10  C   UNL     1       1.434   2.536   2.545  0.00  0.00    +0.044 C 
ATOM     11  C   UNL     1       0.335   1.484   2.704  0.00  0.00    +0.005 C 
ATOM     12  C   UNL     1       0.157   1.153   4.187  0.00  0.00    +0.000 C 
ATOM     13  C   UNL     1      -1.244   0.581   4.417  0.00  0.00    +0.000 C 
ATOM     14  C   UNL     1      -1.468  -0.609   3.482  0.00  0.00    +0.000 C 
ATOM     15  C   UNL     1      -2.087  -0.119   2.172  0.00  0.00    +0.000 C 
ATOM     16  C   UNL     1      -1.909  -1.188   1.092  0.00  0.00    +0.000 C 
ATOM     17  C   UNL     1      -1.420  -0.532  -0.200  0.00  0.00    +0.000 C 
ATOM     18  C   UNL     1       0.002  -0.004   0.002  0.00  0.00    +0.006 C 
ATOM     19  C   UNL     1      -0.019   1.526   0.010  0.00  0.00    +0.056 C 
ATOM     20  H   UNL     1       3.869   2.370  -3.224  0.00  0.00    +0.157 HD
ENDBRANCH   1   2
BRANCH   1  21
ATOM     21  N   UNL     1       7.651   3.867  -2.739  0.00  0.00    -0.232 NA
ATOM     22  H   UNL     1       8.047   3.305  -2.000  0.00  0.00    +0.145 HD
BRANCH  21  25
ATOM     23  C   UNL     1       9.762   4.501  -3.554  0.00  0.00    +0.264 C 
ATOM     24  O   UNL     1      10.091   4.831  -2.435  0.00  0.00    -0.271 OA
ATOM     25  N   UNL     1       8.530   4.002  -3.776  0.00  0.00    -0.248 N 
ATOM     26  H   UNL     1       8.233   3.702  -4.792  0.00  0.00    +0.169 HD
BRANCH  23  27
ATOM     27  C   UNL     1      10.732   4.649  -4.698  0.00  0.00    +0.325 C 
BRANCH  27  28
ATOM     28  O   UNL     1      11.960   5.196  -4.214  0.00  0.00    -0.482 OA
BRANCH  28  34
ATOM     29  C   UNL     1      13.524   4.920  -8.829  0.00  0.00    +0.044 C 
ATOM     30  C   UNL     1      13.748   5.273  -7.381  0.00  0.00    -0.047 A 
ATOM     31  C   UNL     1      14.962   5.800  -6.979  0.00  0.00    +0.004 A 
ATOM     32  C   UNL     1      15.171   6.124  -5.652  0.00  0.00    +0.008 A 
ATOM     33  C   UNL     1      14.168   5.923  -4.723  0.00  0.00    -0.003 A 
ATOM     34  C   UNL     1      12.949   5.395  -5.125  0.00  0.00    +0.125 A 
ATOM     35  C   UNL     1      12.744   5.065  -6.457  0.00  0.00    +0.049 A 
BRANCH  33  36
ATOM     36  C   UNL     1      14.396   6.277  -3.277  0.00  0.00    +0.016 C 
ATOM     37  C   UNL     1      15.571   5.463  -2.732  0.00  0.00    +0.012 C 
ATOM     38  C   UNL     1      14.713   7.770  -3.161  0.00  0.00    +0.012 C 
ENDBRANCH  33  36
ENDBRANCH  28  34
ENDBRANCH  27  28
ENDBRANCH  23  27
ENDBRANCH  21  25
ENDBRANCH   1  21
TORSDOF 7
