REMARK  Name = ZINC39681160
REMARK  7 active torsions:
REMARK  status: ('A' for Active; 'I' for Inactive)
REMARK    1  A    between atoms: C_1  and  C_2
REMARK    2  A    between atoms: C_5  and  C_12
REMARK    3  A    between atoms: N_9  and  C_11
REMARK    4  A    between atoms: C_16  and  C_25
REMARK    5  A    between atoms: N_27  and  C_28
REMARK    6  A    between atoms: C_28  and  C_30
REMARK    7  A    between atoms: C_28  and  C_31
REMARK                            x       y       z     vdW  Elec       q    Type
REMARK                         _______ _______ _______ _____ _____    ______ ____
ROOT
ATOM      1  C   UNL     1      -0.096  -1.401  -5.127  0.00  0.00    +0.250 C 
ATOM      2  O   UNL     1      -0.225  -0.325  -5.678  0.00  0.00    -0.270 OA
ATOM      3  N   UNL     1       0.052  -2.522  -5.861  0.00  0.00    -0.296 N 
ATOM      4  C   UNL     1       0.117  -3.921  -5.378  0.00  0.00    +0.121 C 
ATOM      5  C   UNL     1      -0.686  -4.731  -6.421  0.00  0.00    +0.100 C 
ATOM      6  C   UNL     1      -0.635  -3.881  -7.702  0.00  0.00    -0.004 C 
ATOM      7  C   UNL     1       0.180  -2.633  -7.334  0.00  0.00    +0.115 C 
ATOM      8  C   UNL     1      -2.045  -3.477  -8.125  0.00  0.00    -0.010 C 
ATOM      9  C   UNL     1      -1.972  -2.681  -9.431  0.00  0.00    -0.082 C 
ATOM     10  N   UNL     1      -1.344  -3.503 -10.472  0.00  0.00    +0.379 N 
ATOM     11  C   UNL     1       0.042  -3.809 -10.100  0.00  0.00    -0.082 C 
ATOM     12  C   UNL     1       0.055  -4.653  -8.822  0.00  0.00    -0.010 C 
ATOM     13  H   UNL     1      -1.861  -4.363 -10.577  0.00  0.00    -0.086 HD
ATOM     14  H   UNL     1      -1.353  -3.000 -11.347  0.00  0.00    -0.086 HD
ENDROOT
BRANCH   1  19
ATOM     15  C   UNL     1      -2.556   1.054  -0.543  0.00  0.00    +0.068 C 
ATOM     16  C   UNL     1      -1.551  -0.062  -0.411  0.00  0.00    +0.071 A 
ATOM     17  C   UNL     1      -0.874  -0.746  -1.508  0.00  0.00    +0.060 A 
ATOM     18  C   UNL     1      -0.911  -0.626  -2.901  0.00  0.00    +0.067 A 
ATOM     19  C   UNL     1      -0.099  -1.479  -3.653  0.00  0.00    +0.074 A 
ATOM     20  C   UNL     1       0.711  -2.411  -2.989  0.00  0.00    +0.127 A 
ATOM     21  N   UNL     1       0.722  -2.497  -1.680  0.00  0.00    -0.235 NA
ATOM     22  C   UNL     1      -0.031  -1.710  -0.918  0.00  0.00    +0.160 A 
ATOM     23  N   UNL     1      -0.201  -1.599   0.433  0.00  0.00    -0.249 N 
ATOM     24  N   UNL     1      -1.126  -0.587   0.702  0.00  0.00    -0.174 NA
ATOM     25  C   UNL     1       0.484  -2.412   1.442  0.00  0.00    +0.174 C 
ATOM     26 CL   UNL     1      -1.935   0.545  -3.672  0.00  0.00    -0.082 Cl
ENDBRANCH   1  19
BRANCH   5  27
ATOM     27  C   UNL     1      -2.111  -4.909  -5.963  0.00  0.00    +0.219 C 
ATOM     28  O   UNL     1      -2.635  -4.064  -5.269  0.00  0.00    -0.275 OA
ATOM     29  N   UNL     1      -2.803  -6.008  -6.325  0.00  0.00    -0.308 N 
ATOM     30  H   UNL     1      -2.384  -6.684  -6.881  0.00  0.00    +0.149 HD
BRANCH  29  31
ATOM     31  C   UNL     1      -4.188  -6.181  -5.880  0.00  0.00    +0.100 C 
ATOM     32  C   UNL     1      -5.128  -5.452  -6.842  0.00  0.00    +0.033 C 
BRANCH  31  33
ATOM     33  C   UNL     1      -4.529  -7.649  -5.861  0.00  0.00    -0.025 A 
ATOM     34  C   UNL     1      -4.082  -8.495  -6.864  0.00  0.00    +0.025 A 
ATOM     35  C   UNL     1      -4.415  -9.835  -6.813  0.00  0.00    +0.111 A 
ATOM     36  N   UNL     1      -5.149 -10.311  -5.826  0.00  0.00    -0.263 NA
ATOM     37  C   UNL     1      -5.591  -9.536  -4.855  0.00  0.00    +0.111 A 
ATOM     38  C   UNL     1      -5.293  -8.186  -4.836  0.00  0.00    +0.025 A 
ENDBRANCH  31  33
ENDBRANCH  29  31
ENDBRANCH   5  27
TORSDOF 4
