REMARK  Name = ZINC08720920
REMARK  3 active torsions:
REMARK  status: ('A' for Active; 'I' for Inactive)
REMARK    1  A    between atoms: C_1  and  N_2
REMARK    2  A    between atoms: C_9  and  C_17
REMARK    3  A    between atoms: C_10  and  C_11
REMARK                            x       y       z     vdW  Elec       q    Type
REMARK                         _______ _______ _______ _____ _____    ______ ____
ROOT
ATOM      1  C   UNL     1      -3.595   3.671   0.654  0.00  0.00    +0.149 C 
ATOM      2  N   UNL     1      -2.218   4.029   0.307  0.00  0.00    -0.343 N 
ATOM      3  C   UNL     1      -1.233   3.134  -0.050  0.00  0.00    +0.050 A 
ATOM      4  C   UNL     1      -1.208   1.751  -0.193  0.00  0.00    +0.026 A 
ATOM      5  C   UNL     1      -0.041   1.122  -0.569  0.00  0.00    +0.002 A 
ATOM      6  C   UNL     1       1.111   1.857  -0.818  0.00  0.00    +0.001 A 
ATOM      7  C   UNL     1       1.109   3.217  -0.688  0.00  0.00    +0.010 A 
ATOM      8  C   UNL     1      -0.063   3.875  -0.303  0.00  0.00    +0.007 A 
ATOM      9  C   UNL     1      -0.408   5.277  -0.074  0.00  0.00    +0.024 A 
ATOM     10  C   UNL     1      -1.714   5.309   0.290  0.00  0.00    +0.056 A 
ENDROOT
BRANCH   9  11
ATOM     11  C   UNL     1       0.513   6.462  -0.215  0.00  0.00    +0.192 C 
ATOM     12  N   UNL     1      -0.230   7.589  -0.792  0.00  0.00    -0.322 N 
ATOM     13  C   UNL     1      -0.515   7.570  -2.153  0.00  0.00    +0.041 A 
ATOM     14  C   UNL     1      -1.641   8.182  -2.675  0.00  0.00    +0.024 A 
ATOM     15  C   UNL     1      -1.879   8.130  -4.035  0.00  0.00    +0.002 A 
ATOM     16  C   UNL     1      -1.001   7.470  -4.879  0.00  0.00    +0.001 A 
ATOM     17  C   UNL     1       0.127   6.855  -4.375  0.00  0.00    +0.015 A 
ATOM     18  C   UNL     1       0.380   6.901  -3.007  0.00  0.00    +0.058 A 
ATOM     19  C   UNL     1       1.573   6.269  -2.416  0.00  0.00    +0.247 C 
ATOM     20  O   UNL     1       2.490   5.902  -3.126  0.00  0.00    -0.270 OA
ATOM     21  N   UNL     1       1.637   6.101  -1.079  0.00  0.00    -0.289 N 
ATOM     22  H   UNL     1      -0.516   8.330  -0.236  0.00  0.00    +0.148 HD
ATOM     23  H   UNL     1       2.443   5.735  -0.683  0.00  0.00    +0.151 HD
ENDBRANCH   9  11
BRANCH  10  24
ATOM     24  C   UNL     1      -2.478   6.531   0.618  0.00  0.00    -0.001 A 
ATOM     25  C   UNL     1      -2.020   7.400   1.609  0.00  0.00    +0.010 A 
ATOM     26  C   UNL     1      -2.735   8.542   1.906  0.00  0.00    +0.001 A 
ATOM     27  C   UNL     1      -3.910   8.821   1.231  0.00  0.00    +0.000 A 
ATOM     28  C   UNL     1      -4.373   7.960   0.252  0.00  0.00    +0.001 A 
ATOM     29  C   UNL     1      -3.665   6.818  -0.059  0.00  0.00    +0.010 A 
ENDBRANCH  10  24
TORSDOF 2
