REMARK  Name = ZINC12870051
REMARK  6 active torsions:
REMARK  status: ('A' for Active; 'I' for Inactive)
REMARK    1  A    between atoms: N_13  and  C_17
REMARK    2  A    between atoms: C_17  and  C_18
REMARK    3  A    between atoms: C_18  and  C_20
REMARK    4  A    between atoms: C_18  and  O_30
REMARK    5  A    between atoms: C_20  and  O_21
REMARK    6  A    between atoms: O_21  and  C_22
REMARK                            x       y       z     vdW  Elec       q    Type
REMARK                         _______ _______ _______ _____ _____    ______ ____
ROOT
ATOM      1  C   UNL     1      -0.017   1.375   0.010  0.00  0.00    +0.000 A 
ATOM      2  C   UNL     1       1.174   2.078   0.002  0.00  0.00    +0.000 A 
ATOM      3  C   UNL     1       2.373   1.395  -0.016  0.00  0.00    +0.006 A 
ATOM      4  C   UNL     1       2.394   0.006  -0.026  0.00  0.00    -0.012 A 
ATOM      5  C   UNL     1       1.207  -0.694  -0.013  0.00  0.00    -0.042 A 
ATOM      6  C   UNL     1       0.002  -0.004   0.002  0.00  0.00    +0.004 A 
ATOM      7  C   UNL     1       1.157  -2.199  -0.006  0.00  0.00    +0.035 C 
ATOM      8  C   UNL     1       2.490  -2.786  -0.467  0.00  0.00    +0.008 C 
ATOM      9  C   UNL     1       3.614  -2.143   0.354  0.00  0.00    +0.040 C 
ATOM     10  C   UNL     1       3.731  -0.680  -0.054  0.00  0.00    +0.138 C 
ATOM     11  C   UNL     1       4.347  -0.566  -1.430  0.00  0.00    +0.251 C 
ATOM     12  O   UNL     1       3.905  -1.003  -2.470  0.00  0.00    -0.272 OA
ATOM     13  N   UNL     1       5.493   0.123  -1.256  0.00  0.00    -0.221 N 
ATOM     14  C   UNL     1       5.679   0.456   0.027  0.00  0.00    +0.310 C 
ATOM     15  O   UNL     1       6.641   1.080   0.431  0.00  0.00    -0.252 OA
ATOM     16  N   UNL     1       4.682   0.021   0.820  0.00  0.00    -0.281 N 
ATOM     17  H   UNL     1       4.606   0.146   1.779  0.00  0.00    +0.152 HD
ENDROOT
BRANCH  13  18
ATOM     18  C   UNL     1       6.420   0.466  -2.338  0.00  0.00    +0.152 C 
BRANCH  18  19
ATOM     19  C   UNL     1       6.032   1.821  -2.932  0.00  0.00    +0.170 C 
BRANCH  19  20
ATOM     20  O   UNL     1       6.207   2.841  -1.947  0.00  0.00    -0.387 OA
ATOM     21  H   UNL     1       7.114   2.922  -1.621  0.00  0.00    +0.210 HD
ENDBRANCH  19  20
BRANCH  19  22
ATOM     22  C   UNL     1       6.920   2.122  -4.141  0.00  0.00    +0.262 C 
BRANCH  22  23
ATOM     23  O   UNL     1       6.482   3.330  -4.766  0.00  0.00    -0.488 OA
BRANCH  23  24
ATOM     24  C   UNL     1       7.171   3.742  -5.864  0.00  0.00    +0.139 A 
ATOM     25  C   UNL     1       8.248   3.001  -6.326  0.00  0.00    +0.048 A 
ATOM     26  C   UNL     1       8.943   3.418  -7.445  0.00  0.00    +0.023 A 
ATOM     27  C   UNL     1       8.572   4.580  -8.098  0.00  0.00    +0.043 A 
ATOM     28  C   UNL     1       7.501   5.324  -7.636  0.00  0.00    +0.043 A 
ATOM     29  C   UNL     1       6.799   4.907  -6.520  0.00  0.00    +0.084 A 
ATOM     30 CL   UNL     1       5.456   5.841  -5.939  0.00  0.00    -0.080 Cl
ATOM     31 CL   UNL     1       9.452   5.106  -9.499  0.00  0.00    -0.083 Cl
ENDBRANCH  23  24
ENDBRANCH  22  23
ENDBRANCH  19  22
ENDBRANCH  18  19
ENDBRANCH  13  18
TORSDOF 6
