REMARK  Name = ZINC39878581
REMARK  10 active torsions:
REMARK  status: ('A' for Active; 'I' for Inactive)
REMARK    1  A    between atoms: C_1  and  C_2
REMARK    2  A    between atoms: C_2  and  O_3
REMARK    3  A    between atoms: O_3  and  C_4
REMARK    4  A    between atoms: C_7  and  N_10
REMARK    5  A    between atoms: C_11  and  C_28
REMARK    6  A    between atoms: C_18  and  C_27
REMARK    7  A    between atoms: C_19  and  C_26
REMARK    8  A    between atoms: C_31  and  O_34
REMARK    9  A    between atoms: O_34  and  C_35
REMARK   10  A    between atoms: C_35  and  C_36
REMARK                            x       y       z     vdW  Elec       q    Type
REMARK                         _______ _______ _______ _____ _____    ______ ____
ROOT
ATOM      1  N   UNL     1      -1.988  -5.988  -0.012  0.00  0.00    -0.253 N 
ATOM      2  C   UNL     1      -3.273  -6.707  -0.015  0.00  0.00    +0.150 C 
ATOM      3  C   UNL     1      -2.926  -8.160  -0.019  0.00  0.00    +0.072 A 
ATOM      4  C   UNL     1      -3.775  -9.355  -0.014  0.00  0.00    +0.199 A 
ATOM      5  O   UNL     1      -4.981  -9.318  -0.181  0.00  0.00    -0.287 OA
ATOM      6  C   UNL     1      -3.025 -10.616   0.215  0.00  0.00    +0.065 A 
ATOM      7  C   UNL     1      -3.705 -11.812   0.445  0.00  0.00    +0.019 A 
ATOM      8  C   UNL     1      -2.999 -12.963   0.659  0.00  0.00    -0.047 A 
ATOM      9  C   UNL     1      -1.612 -12.944   0.648  0.00  0.00    -0.044 A 
ATOM     10  C   UNL     1      -0.924 -11.773   0.421  0.00  0.00    +0.050 A 
ATOM     11  C   UNL     1      -1.621 -10.586   0.197  0.00  0.00    +0.140 A 
ATOM     12  O   UNL     1      -0.925  -9.449  -0.034  0.00  0.00    -0.450 OA
ATOM     13  C   UNL     1      -1.564  -8.263  -0.023  0.00  0.00    +0.199 A 
ATOM     14  C   UNL     1      -0.998  -6.903  -0.022  0.00  0.00    +0.287 C 
ATOM     15  O   UNL     1       0.189  -6.644  -0.026  0.00  0.00    -0.266 OA
ATOM     16  C   UNL     1      -0.848 -14.221   0.888  0.00  0.00    +0.044 C 
ATOM     17  C   UNL     1      -3.731 -14.257   0.907  0.00  0.00    +0.044 C 
ENDROOT
BRANCH   1  21
ATOM     18  C   UNL     1      -1.498  -1.849   0.006  0.00  0.00    +0.121 A 
ATOM     19  C   UNL     1      -0.387  -2.679  -0.003  0.00  0.00    +0.047 A 
ATOM     20  C   UNL     1      -0.548  -4.050  -0.009  0.00  0.00    +0.027 A 
ATOM     21  C   UNL     1      -1.824  -4.598  -0.005  0.00  0.00    +0.038 A 
ATOM     22  C   UNL     1      -2.937  -3.767   0.004  0.00  0.00    +0.027 A 
ATOM     23  C   UNL     1      -2.773  -2.396   0.016  0.00  0.00    +0.047 A 
BRANCH  18  24
ATOM     24  O   UNL     1      -1.339  -0.499   0.012  0.00  0.00    -0.492 OA
BRANCH  24  26
ATOM     25  C   UNL     1      -0.019   1.526   0.010  0.00  0.00    +0.048 C 
ATOM     26  C   UNL     1       0.002  -0.004   0.002  0.00  0.00    +0.225 C 
ENDBRANCH  24  26
ENDBRANCH  18  24
ENDBRANCH   1  21
BRANCH   2  27
ATOM     27  C   UNL     1      -4.064  -6.363   1.221  0.00  0.00    -0.022 A 
ATOM     28  C   UNL     1      -3.422  -6.233   2.438  0.00  0.00    +0.009 A 
ATOM     29  C   UNL     1      -4.145  -5.918   3.572  0.00  0.00    +0.046 A 
ATOM     30  C   UNL     1      -5.517  -5.732   3.489  0.00  0.00    +0.121 A 
ATOM     31  C   UNL     1      -6.160  -5.862   2.266  0.00  0.00    +0.046 A 
ATOM     32  C   UNL     1      -5.431  -6.172   1.134  0.00  0.00    +0.009 A 
BRANCH  30  33
ATOM     33  O   UNL     1      -6.231  -5.423   4.603  0.00  0.00    -0.483 OA
BRANCH  33  34
ATOM     34  C   UNL     1      -7.640  -5.245   4.442  0.00  0.00    +0.324 C 
BRANCH  34  35
ATOM     35  C   UNL     1      -8.259  -4.909   5.775  0.00  0.00    +0.248 C 
ATOM     36  O   UNL     1      -7.562  -4.830   6.765  0.00  0.00    -0.272 OA
ATOM     37  N   UNL     1      -9.587  -4.697   5.867  0.00  0.00    -0.327 N 
ATOM     38  H   UNL     1     -10.144  -4.760   5.075  0.00  0.00    +0.145 HD
ATOM     39  H   UNL     1      -9.985  -4.481   6.724  0.00  0.00    +0.145 HD
ENDBRANCH  34  35
ENDBRANCH  33  34
ENDBRANCH  30  33
ENDBRANCH   2  27
TORSDOF 7
