REMARK  Name = ZINC64816428
REMARK  9 active torsions:
REMARK  status: ('A' for Active; 'I' for Inactive)
REMARK    1  A    between atoms: C_1  and  C_2
REMARK    2  A    between atoms: C_5  and  C_8
REMARK    3  A    between atoms: C_8  and  N_9
REMARK    4  A    between atoms: C_10  and  C_12
REMARK    5  A    between atoms: C_12  and  C_31
REMARK    6  A    between atoms: C_17  and  C_19
REMARK    7  A    between atoms: N_22  and  C_23
REMARK    8  A    between atoms: C_25  and  C_30
REMARK    9  A    between atoms: C_27  and  C_29
REMARK                            x       y       z     vdW  Elec       q    Type
REMARK                         _______ _______ _______ _____ _____    ______ ____
ROOT
ATOM      1  C   UNL     1       3.508  -6.685   0.083  0.00  0.00    +0.135 C 
ATOM      2  C   UNL     1       4.112  -6.518   1.476  0.00  0.00    +0.179 C 
ATOM      3  N   UNL     1       3.958  -5.123   1.907  0.00  0.00    -0.256 N 
ATOM      4  C   UNL     1       3.938  -4.092   0.995  0.00  0.00    +0.124 A 
ATOM      5  C   UNL     1       3.809  -2.932   1.705  0.00  0.00    +0.057 A 
ATOM      6  C   UNL     1       3.744  -3.333   3.046  0.00  0.00    +0.061 A 
ATOM      7  N   UNL     1       3.833  -4.642   3.082  0.00  0.00    -0.176 NA
ATOM      8  C   UNL     1       3.597  -2.421   4.237  0.00  0.00    +0.067 C 
ATOM      9  C   UNL     1       4.032  -4.346  -0.451  0.00  0.00    +0.270 C 
ATOM     10  O   UNL     1       4.191  -3.444  -1.252  0.00  0.00    -0.268 OA
ATOM     11  N   UNL     1       3.931  -5.639  -0.842  0.00  0.00    -0.250 N 
ATOM     12  C   UNL     1       3.934  -8.043  -0.478  0.00  0.00    +0.044 C 
ENDROOT
BRANCH  11  13
ATOM     13  C   UNL     1       4.239  -5.979  -2.163  0.00  0.00    +0.038 A 
ATOM     14  C   UNL     1       5.557  -6.224  -2.529  0.00  0.00    +0.027 A 
ATOM     15  C   UNL     1       5.858  -6.560  -3.834  0.00  0.00    -0.048 A 
ATOM     16  C   UNL     1       4.850  -6.653  -4.776  0.00  0.00    +0.006 A 
ATOM     17  C   UNL     1       3.538  -6.410  -4.415  0.00  0.00    -0.048 A 
ATOM     18  C   UNL     1       3.229  -6.079  -3.110  0.00  0.00    +0.027 A 
ATOM     19  C   UNL     1       2.443  -6.511  -5.445  0.00  0.00    +0.044 C 
ATOM     20  C   UNL     1       7.287  -6.825  -4.232  0.00  0.00    +0.044 C 
ENDBRANCH  11  13
BRANCH   1  22
ATOM     21  N   UNL     1       1.348  -5.481   0.142  0.00  0.00    -0.309 N 
ATOM     22  C   UNL     1       2.006  -6.656   0.197  0.00  0.00    +0.239 C 
ATOM     23  O   UNL     1       1.388  -7.690   0.339  0.00  0.00    -0.273 OA
ATOM     24  H   UNL     1       1.842  -4.653   0.029  0.00  0.00    +0.149 HD
BRANCH  21  25
ATOM     25  C   UNL     1      -0.112  -5.452   0.254  0.00  0.00    +0.139 C 
BRANCH  25  30
ATOM     26  C   UNL     1      -1.968   0.010  -0.095  0.00  0.00    +0.044 C 
ATOM     27  C   UNL     1      -1.484  -1.415  -0.004  0.00  0.00    -0.050 A 
ATOM     28  C   UNL     1      -1.353  -2.175  -1.151  0.00  0.00    +0.003 A 
ATOM     29  C   UNL     1      -0.909  -3.481  -1.068  0.00  0.00    +0.005 A 
ATOM     30  C   UNL     1      -0.595  -4.027   0.163  0.00  0.00    -0.030 A 
ATOM     31  C   UNL     1      -0.725  -3.267   1.310  0.00  0.00    +0.005 A 
ATOM     32  C   UNL     1      -1.164  -1.959   1.226  0.00  0.00    +0.003 A 
ENDBRANCH  25  30
ENDBRANCH  21  25
ENDBRANCH   1  22
TORSDOF 4
