REMARK  Name = ZINC05073739
REMARK  6 active torsions:
REMARK  status: ('A' for Active; 'I' for Inactive)
REMARK    1  A    between atoms: C_3  and  N_26
REMARK    2  A    between atoms: C_6  and  C_7
REMARK    3  A    between atoms: N_9  and  C_10
REMARK    4  A    between atoms: C_10  and  C_12
REMARK    5  A    between atoms: C_10  and  C_16
REMARK    6  A    between atoms: N_14  and  N_15
REMARK                            x       y       z     vdW  Elec       q    Type
REMARK                         _______ _______ _______ _____ _____    ______ ____
ROOT
ATOM      1  C   UNL     1      -0.010   1.499   0.004  0.00  0.00    +0.167 C 
ENDROOT
BRANCH   1   2
ATOM      2  C   UNL     1      -1.001   1.809  -1.120  0.00  0.00    -0.002 C 
ATOM      3  C   UNL     1      -1.048   3.320  -1.357  0.00  0.00    +0.012 C 
ATOM      4  C   UNL     1      -2.038   3.629  -2.481  0.00  0.00    -0.010 C 
ATOM      5  C   UNL     1      -1.590   2.926  -3.764  0.00  0.00    +0.007 C 
ATOM      6  C   UNL     1      -1.543   1.415  -3.527  0.00  0.00    -0.010 C 
ATOM      7  C   UNL     1      -0.552   1.106  -2.403  0.00  0.00    +0.012 C 
ATOM      8  C   UNL     1      -2.934   0.917  -3.133  0.00  0.00    +0.007 C 
ATOM      9  C   UNL     1      -3.383   1.620  -1.850  0.00  0.00    -0.010 C 
ATOM     10  C   UNL     1      -3.430   3.131  -2.086  0.00  0.00    +0.007 C 
ATOM     11  C   UNL     1      -2.392   1.310  -0.726  0.00  0.00    +0.012 C 
ENDBRANCH   1   2
BRANCH   1  14
ATOM     12  C   UNL     1       0.536   2.542   2.137  0.00  0.00    +0.245 C 
ATOM     13  O   UNL     1       1.692   2.202   1.974  0.00  0.00    -0.270 OA
ATOM     14  N   UNL     1      -0.393   2.238   1.209  0.00  0.00    -0.299 N 
ATOM     15  H   UNL     1      -1.315   2.509   1.340  0.00  0.00    +0.150 HD
BRANCH  12  21
ATOM     16  C   UNL     1      -1.175   3.684   3.542  0.00  0.00    +0.015 A 
ATOM     17  C   UNL     1      -1.531   4.374   4.682  0.00  0.00    +0.033 A 
ATOM     18  C   UNL     1      -0.574   4.685   5.633  0.00  0.00    +0.126 A 
ATOM     19  C   UNL     1       0.742   4.300   5.450  0.00  0.00    +0.033 A 
ATOM     20  C   UNL     1       1.109   3.603   4.317  0.00  0.00    +0.015 A 
ATOM     21  C   UNL     1       0.150   3.288   3.354  0.00  0.00    +0.037 A 
BRANCH  18  22
ATOM     22  N   UNL     1      -0.961   5.431   6.851  0.00  0.00    +0.056 N 
ATOM     23  O   UNL     1      -0.121   5.706   7.689  0.00  0.00    -0.126 OA
ATOM     24  O   UNL     1      -2.119   5.772   7.014  0.00  0.00    -0.126 OA
ENDBRANCH  18  22
ENDBRANCH  12  21
ENDBRANCH   1  14
BRANCH   1  25
ATOM     25  C   UNL     1      -0.027   0.021   0.295  0.00  0.00    +0.247 C 
ATOM     26  O   UNL     1      -0.746  -0.418   1.167  0.00  0.00    -0.272 OA
ATOM     27  N   UNL     1       0.758  -0.815  -0.415  0.00  0.00    -0.252 N 
ATOM     28  H   UNL     1       1.385  -0.458  -1.062  0.00  0.00    +0.169 HD
BRANCH  27  29
ATOM     29  N   UNL     1       0.669  -2.164  -0.222  0.00  0.00    -0.254 NA
ATOM     30  H   UNL     1      -0.276  -2.488  -0.363  0.00  0.00    +0.140 HD
ATOM     31  H   UNL     1       1.315  -2.658  -0.820  0.00  0.00    +0.140 HD
ENDBRANCH  27  29
ENDBRANCH   1  25
TORSDOF 6
