REMARK  Name = ZINC19732555
REMARK  11 active torsions:
REMARK  status: ('A' for Active; 'I' for Inactive)
REMARK    1  A    between atoms: C_1  and  C_2
REMARK    2  A    between atoms: C_2  and  O_3
REMARK    3  A    between atoms: O_3  and  C_4
REMARK    4  A    between atoms: C_7  and  C_10
REMARK    5  A    between atoms: C_10  and  N_11
REMARK    6  A    between atoms: N_14  and  C_21
REMARK    7  A    between atoms: C_16  and  C_18
REMARK    8  A    between atoms: C_18  and  C_19
REMARK    9  A    between atoms: C_19  and  O_20
REMARK   10  A    between atoms: C_21  and  C_22
REMARK   11  A    between atoms: C_23  and  C_24
REMARK                            x       y       z     vdW  Elec       q    Type
REMARK                         _______ _______ _______ _____ _____    ______ ____
ROOT
ATOM      1  N   UNL     1       2.058  -0.032  -1.581  0.00  0.00    -0.299 NA
ATOM      2  C   UNL     1       2.173   1.427  -1.722  0.00  0.00    +0.066 C 
ATOM      3  C   UNL     1       1.363   2.109  -0.617  0.00  0.00    -0.063 C 
ATOM      4  N   UNL     1      -0.040   1.684  -0.708  0.00  0.00    +0.384 N 
ATOM      5  C   UNL     1      -0.156   0.226  -0.567  0.00  0.00    -0.059 C 
ATOM      6  C   UNL     1       0.654  -0.457  -1.671  0.00  0.00    +0.043 C 
ATOM      7  H   UNL     1      -0.415   1.960  -1.705  0.00  0.00    -0.081 HD
ENDROOT
BRANCH   1   8
ATOM      8  C   UNL     1       2.883  -0.724  -2.579  0.00  0.00    +0.119 C 
BRANCH   8  12
ATOM      9  C   UNL     1       7.000   0.221  -1.926  0.00  0.00    +0.121 A 
ATOM     10  C   UNL     1       6.430  -0.876  -1.295  0.00  0.00    +0.046 A 
ATOM     11  C   UNL     1       5.099  -1.179  -1.508  0.00  0.00    +0.008 A 
ATOM     12  C   UNL     1       4.335  -0.391  -2.348  0.00  0.00    -0.033 A 
ATOM     13  C   UNL     1       4.902   0.699  -2.982  0.00  0.00    +0.008 A 
ATOM     14  C   UNL     1       6.231   1.010  -2.769  0.00  0.00    +0.046 A 
BRANCH   9  15
ATOM     15  O   UNL     1       8.309   0.521  -1.719  0.00  0.00    -0.492 OA
BRANCH  15  17
ATOM     16  C   UNL     1      10.306   1.841  -2.047  0.00  0.00    +0.048 C 
ATOM     17  C   UNL     1       8.828   1.664  -2.401  0.00  0.00    +0.225 C 
ENDBRANCH  15  17
ENDBRANCH   9  15
ENDBRANCH   8  12
ENDBRANCH   1   8
BRANCH   6  18
ATOM     18  C   UNL     1       0.568  -1.975  -1.503  0.00  0.00    +0.045 C 
BRANCH  18  19
ATOM     19  C   UNL     1      -0.886  -2.425  -1.661  0.00  0.00    +0.157 C 
BRANCH  19  20
ATOM     20  O   UNL     1      -0.950  -3.852  -1.625  0.00  0.00    -0.395 OA
ATOM     21  H   UNL     1      -1.919  -4.362  -1.724  0.00  0.00    +0.209 HD
ENDBRANCH  19  20
ENDBRANCH  18  19
ENDBRANCH   6  18
BRANCH   4  22
ATOM     22  C   UNL     1      -0.866   2.377   0.290  0.00  0.00    -0.051 C 
BRANCH  22  23
ATOM     23  C   UNL     1      -0.538   3.848   0.279  0.00  0.00    -0.045 C 
ATOM     24  C   UNL     1      -1.502   4.740   0.101  0.00  0.00    +0.002 C 
BRANCH  24  25
ATOM     25  C   UNL     1      -1.181   6.183   0.091  0.00  0.00    -0.025 A 
ATOM     26  C   UNL     1       0.135   6.609   0.274  0.00  0.00    +0.008 A 
ATOM     27  C   UNL     1       0.429   7.957   0.257  0.00  0.00    +0.001 A 
ATOM     28  C   UNL     1      -0.579   8.886   0.070  0.00  0.00    +0.000 A 
ATOM     29  C   UNL     1      -1.887   8.470  -0.105  0.00  0.00    +0.001 A 
ATOM     30  C   UNL     1      -2.193   7.125  -0.097  0.00  0.00    +0.008 A 
ENDBRANCH  24  25
ENDBRANCH  22  23
ENDBRANCH   4  22
TORSDOF 10
