REMARK  Name = ZINC23844373
REMARK  6 active torsions:
REMARK  status: ('A' for Active; 'I' for Inactive)
REMARK    1  A    between atoms: C_1  and  C_2
REMARK    2  A    between atoms: C_2  and  C_4
REMARK    3  A    between atoms: C_7  and  N_10
REMARK    4  A    between atoms: N_13  and  C_16
REMARK    5  A    between atoms: C_16  and  C_17
REMARK    6  A    between atoms: C_26  and  O_27
REMARK                            x       y       z     vdW  Elec       q    Type
REMARK                         _______ _______ _______ _____ _____    ______ ____
ROOT
ATOM      1  N   UNL     1      -3.632   6.162   3.642  0.00  0.00    -0.327 N 
ATOM      2  C   UNL     1      -3.331   7.430   2.961  0.00  0.00    +0.120 C 
ATOM      3  C   UNL     1      -2.981   7.149   1.498  0.00  0.00    +0.103 C 
ATOM      4  N   UNL     1      -1.830   6.237   1.439  0.00  0.00    -0.295 NA
ATOM      5  C   UNL     1      -2.131   4.970   2.120  0.00  0.00    +0.103 C 
ATOM      6  C   UNL     1      -2.481   5.251   3.583  0.00  0.00    +0.120 C 
ENDROOT
BRANCH   1  10
ATOM      7  C   UNL     1      -4.803   6.825   7.569  0.00  0.00    +0.017 A 
ATOM      8  C   UNL     1      -4.739   5.519   7.066  0.00  0.00    +0.013 A 
ATOM      9  C   UNL     1      -4.353   5.306   5.774  0.00  0.00    +0.024 A 
ATOM     10  C   UNL     1      -4.024   6.384   4.956  0.00  0.00    +0.030 A 
ATOM     11  C   UNL     1      -4.081   7.684   5.454  0.00  0.00    +0.024 A 
ATOM     12  C   UNL     1      -4.471   7.907   6.743  0.00  0.00    +0.013 A 
BRANCH   7  14
ATOM     13  C   UNL     1      -5.167   8.451   9.534  0.00  0.00    +0.091 C 
ATOM     14  C   UNL     1      -5.218   7.059   8.957  0.00  0.00    +0.160 C 
ATOM     15  O   UNL     1      -5.601   6.133   9.640  0.00  0.00    -0.292 OA
ENDBRANCH   7  14
ENDBRANCH   1  10
BRANCH   4  16
ATOM     16  C   UNL     1      -1.415   6.002   0.049  0.00  0.00    +0.124 C 
BRANCH  16  17
ATOM     17  C   UNL     1      -0.098   5.271   0.035  0.00  0.00    +0.016 A 
ATOM     18  C   UNL     1      -0.070   3.866   0.032  0.00  0.00    -0.010 A 
ATOM     19  C   UNL     1      -1.257   3.114   0.041  0.00  0.00    +0.009 A 
ATOM     20  C   UNL     1      -1.193   1.754   0.031  0.00  0.00    +0.001 A 
ATOM     21  C   UNL     1       0.035   1.094   0.023  0.00  0.00    +0.001 A 
ATOM     22  C   UNL     1       1.204   1.790   0.014  0.00  0.00    +0.008 A 
ATOM     23  C   UNL     1       1.178   3.195   0.018  0.00  0.00    -0.017 A 
ATOM     24  C   UNL     1       2.367   3.946   0.008  0.00  0.00    +0.012 A 
ATOM     25  C   UNL     1       2.306   5.304   0.011  0.00  0.00    +0.046 A 
ATOM     26  C   UNL     1       1.076   5.969   0.025  0.00  0.00    +0.122 A 
BRANCH  26  27
ATOM     27  O   UNL     1       1.047   7.328   0.028  0.00  0.00    -0.506 OA
ATOM     28  H   UNL     1       1.988   7.897   0.020  0.00  0.00    +0.292 HD
ENDBRANCH  26  27
ENDBRANCH  16  17
ENDBRANCH   4  16
TORSDOF 5
