REMARK  Name = ZINC34874303
REMARK  15 active torsions:
REMARK  status: ('A' for Active; 'I' for Inactive)
REMARK    1  A    between atoms: C_1  and  C_2
REMARK    2  A    between atoms: C_2  and  C_3
REMARK    3  A    between atoms: C_3  and  C_4
REMARK    4  A    between atoms: C_4  and  N_5
REMARK    5  A    between atoms: N_5  and  C_6
REMARK    6  A    between atoms: C_7  and  N_19
REMARK    7  A    between atoms: N_8  and  C_15
REMARK    8  A    between atoms: C_15  and  C_16
REMARK    9  A    between atoms: C_16  and  C_17
REMARK   10  A    between atoms: C_16  and  C_18
REMARK   11  A    between atoms: C_20  and  C_22
REMARK   12  A    between atoms: C_22  and  N_23
REMARK   13  A    between atoms: C_29  and  O_31
REMARK   14  A    between atoms: O_31  and  C_32
REMARK   15  A    between atoms: C_32  and  C_33
REMARK                            x       y       z     vdW  Elec       q    Type
REMARK                         _______ _______ _______ _____ _____    ______ ____
ROOT
ATOM      1  N   UNL     1       1.364  -2.517  -2.393  0.00  0.00    -0.263 N 
ATOM      2  C   UNL     1       0.522  -2.872  -3.385  0.00  0.00    +0.234 C 
ATOM      3  O   UNL     1       0.955  -3.393  -4.391  0.00  0.00    -0.274 OA
ENDROOT
BRANCH   1   4
ATOM      4  C   UNL     1       2.758  -2.644  -2.571  0.00  0.00    +0.140 A 
ATOM      5  C   UNL     1       3.482  -3.545  -1.817  0.00  0.00    +0.127 A 
ATOM      6  N   UNL     1       4.840  -3.647  -2.014  0.00  0.00    -0.280 N 
ATOM      7  C   UNL     1       5.455  -2.877  -2.930  0.00  0.00    +0.331 A 
ATOM      8  O   UNL     1       6.656  -2.982  -3.089  0.00  0.00    -0.246 OA
ATOM      9  N   UNL     1       4.765  -1.994  -3.674  0.00  0.00    -0.273 N 
ATOM     10  H   UNL     1       5.232  -1.450  -4.328  0.00  0.00    +0.173 HD
ATOM     11  C   UNL     1       3.433  -1.859  -3.525  0.00  0.00    +0.277 A 
ATOM     12  O   UNL     1       2.817  -1.059  -4.208  0.00  0.00    -0.266 OA
BRANCH   5  13
ATOM     13  N   UNL     1       2.855  -4.332  -0.881  0.00  0.00    -0.343 N 
ATOM     14  H   UNL     1       1.908  -4.213  -0.704  0.00  0.00    +0.144 HD
ATOM     15  H   UNL     1       3.358  -5.005  -0.398  0.00  0.00    +0.144 HD
ENDBRANCH   5  13
BRANCH   6  16
ATOM     16  C   UNL     1       5.621  -4.599  -1.221  0.00  0.00    +0.131 C 
BRANCH  16  17
ATOM     17  C   UNL     1       5.672  -5.946  -1.946  0.00  0.00    +0.003 C 
ATOM     18  C   UNL     1       6.589  -6.902  -1.182  0.00  0.00    +0.009 C 
ATOM     19  C   UNL     1       4.264  -6.539  -2.019  0.00  0.00    +0.009 C 
ENDBRANCH  16  17
ENDBRANCH   6  16
ENDBRANCH   1   4
BRANCH   1  20
ATOM     20  C   UNL     1       0.832  -1.998  -1.130  0.00  0.00    +0.114 C 
BRANCH  20  21
ATOM     21  C   UNL     1       0.810  -0.469  -1.176  0.00  0.00    +0.019 C 
BRANCH  21  23
ATOM     22  C   UNL     1       0.232   1.602   0.097  0.00  0.00    +0.004 C 
ATOM     23  C   UNL     1       0.254   0.073   0.142  0.00  0.00    -0.002 C 
ENDBRANCH  21  23
ENDBRANCH  20  21
ENDBRANCH   1  20
BRANCH   2  24
ATOM     24  C   UNL     1      -0.958  -2.622  -3.243  0.00  0.00    +0.181 C 
BRANCH  24  25
ATOM     25  N   UNL     1      -1.652  -3.095  -4.448  0.00  0.00    -0.291 NA
ATOM     26  C   UNL     1      -1.267  -2.301  -5.623  0.00  0.00    +0.104 C 
ATOM     27  C   UNL     1      -1.867  -2.934  -6.883  0.00  0.00    +0.126 C 
ATOM     28  N   UNL     1      -3.317  -3.088  -6.683  0.00  0.00    -0.265 N 
ATOM     29  C   UNL     1      -3.784  -3.753  -5.457  0.00  0.00    +0.126 C 
ATOM     30  C   UNL     1      -3.108  -3.087  -4.254  0.00  0.00    +0.104 C 
ATOM     31  C   UNL     1      -4.193  -2.631  -7.599  0.00  0.00    +0.403 C 
ATOM     32  O   UNL     1      -3.789  -2.084  -8.606  0.00  0.00    -0.226 OA
BRANCH  31  33
ATOM     33  O   UNL     1      -5.516  -2.780  -7.399  0.00  0.00    -0.451 OA
BRANCH  33  34
ATOM     34  C   UNL     1      -6.387  -2.272  -8.411  0.00  0.00    +0.230 C 
ATOM     35  C   UNL     1      -7.841  -2.533  -8.010  0.00  0.00    +0.048 C 
ENDBRANCH  33  34
ENDBRANCH  31  33
ENDBRANCH  24  25
ENDBRANCH   2  24
TORSDOF 11
