REMARK  Name = ZINC12655851
REMARK  6 active torsions:
REMARK  status: ('A' for Active; 'I' for Inactive)
REMARK    1  A    between atoms: C_1  and  C_2
REMARK    2  A    between atoms: C_2  and  O_4
REMARK    3  A    between atoms: O_4  and  C_5
REMARK    4  A    between atoms: C_9  and  C_32
REMARK    5  A    between atoms: C_14  and  C_31
REMARK    6  A    between atoms: N_26  and  N_27
REMARK                            x       y       z     vdW  Elec       q    Type
REMARK                         _______ _______ _______ _____ _____    ______ ____
ROOT
ATOM      1  C   UNL     1       0.609   4.070   1.368  0.00  0.00    +0.180 C 
ATOM      2  C   UNL     1      -0.823   3.549   1.232  0.00  0.00    +0.046 C 
ATOM      3  C   UNL     1      -0.817   2.019   1.230  0.00  0.00    +0.015 C 
ATOM      4  C   UNL     1      -0.036   1.515   0.013  0.00  0.00    -0.008 C 
ATOM      5  C   UNL     1      -0.010  -0.004   0.004  0.00  0.00    +0.003 C 
ATOM      6  C   UNL     1      -1.358  -0.539  -0.472  0.00  0.00    +0.005 C 
ATOM      7  C   UNL     1      -1.358  -2.073  -0.572  0.00  0.00    +0.013 C 
ATOM      8  C   UNL     1      -0.237  -2.459  -1.517  0.00  0.00    +0.011 C 
ATOM      9  C   UNL     1       1.096  -2.035  -0.845  0.00  0.00    +0.005 C 
ATOM     10  C   UNL     1       1.137  -0.517  -0.877  0.00  0.00    +0.001 C 
ATOM     11  C   UNL     1       2.460  -0.040  -0.266  0.00  0.00    +0.031 C 
ATOM     12  C   UNL     1       2.432   1.455  -0.133  0.00  0.00    -0.027 C 
ATOM     13  C   UNL     1       1.330   2.134   0.006  0.00  0.00    -0.064 C 
ATOM     14  C   UNL     1       1.426   3.644   0.145  0.00  0.00    +0.075 C 
ATOM     15  C   UNL     1       2.120  -2.744  -1.740  0.00  0.00    +0.010 C 
ATOM     16  C   UNL     1       1.450  -4.123  -1.990  0.00  0.00    +0.053 C 
ATOM     17  C   UNL     1      -0.045  -3.925  -1.775  0.00  0.00    +0.043 C 
ATOM     18  N   UNL     1      -0.952  -4.827  -1.810  0.00  0.00    -0.187 NA
ATOM     19  C   UNL     1      -0.404  -1.719  -2.845  0.00  0.00    +0.018 C 
ATOM     20  C   UNL     1      -0.780   1.987  -1.239  0.00  0.00    +0.016 C 
ENDROOT
BRANCH  18  21
ATOM     21  N   UNL     1      -0.605  -6.160  -2.065  0.00  0.00    -0.191 N 
ATOM     22  C   UNL     1      -1.561  -7.110  -2.102  0.00  0.00    +0.317 C 
ATOM     23  O   UNL     1      -1.260  -8.267  -2.324  0.00  0.00    -0.251 OA
ATOM     24  N   UNL     1      -2.850  -6.777  -1.893  0.00  0.00    -0.312 N 
ATOM     25  H   UNL     1       0.323  -6.400  -2.216  0.00  0.00    +0.179 HD
ATOM     26  H   UNL     1      -3.090  -5.854  -1.716  0.00  0.00    +0.147 HD
ATOM     27  H   UNL     1      -3.538  -7.461  -1.919  0.00  0.00    +0.147 HD
ENDBRANCH  18  21
BRANCH   1  28
ATOM     28  O   UNL     1       1.212   3.519   2.569  0.00  0.00    -0.461 OA
BRANCH  28  30
ATOM     29  C   UNL     1       2.810   3.761   4.434  0.00  0.00    +0.136 C 
ATOM     30  C   UNL     1       2.141   4.268   3.183  0.00  0.00    +0.304 C 
ATOM     31  O   UNL     1       2.440   5.348   2.732  0.00  0.00    -0.251 OA
ENDBRANCH  28  30
ENDBRANCH   1  28
TORSDOF 3
