REMARK  Name = ZINC39768966
REMARK  7 active torsions:
REMARK  status: ('A' for Active; 'I' for Inactive)
REMARK    1  A    between atoms: C_1  and  C_2
REMARK    2  A    between atoms: C_5  and  C_8
REMARK    3  A    between atoms: N_11  and  C_15
REMARK    4  A    between atoms: C_15  and  N_16
REMARK    5  A    between atoms: N_16  and  C_17
REMARK    6  A    between atoms: N_16  and  C_18
REMARK    7  A    between atoms: C_18  and  C_19
REMARK                            x       y       z     vdW  Elec       q    Type
REMARK                         _______ _______ _______ _____ _____    ______ ____
ROOT
ATOM      1  C   UNL     1       0.322  -6.943  -1.576  0.00  0.00    +0.071 C 
ENDROOT
BRANCH   1   5
ATOM      2  C   UNL     1       1.719  -3.846  -0.368  0.00  0.00    +0.160 A 
ATOM      3  N   UNL     1       1.411  -4.640  -1.355  0.00  0.00    -0.153 NA
ATOM      4  H   UNL     1       1.464  -4.085   1.705  0.00  0.00    +0.169 HD
ATOM      5  N   UNL     1       0.819  -5.792  -0.819  0.00  0.00    -0.257 N 
ATOM      6  C   UNL     1       0.791  -5.646   0.522  0.00  0.00    +0.174 A 
ATOM      7  S   UNL     1       0.168  -6.775   1.648  0.00  0.00    -0.012 S 
ATOM      8  N   UNL     1       1.347  -4.454   0.815  0.00  0.00    -0.317 N 
BRANCH   2  13
ATOM      9  C   UNL     1       4.227   1.311  -0.856  0.00  0.00    +0.044 C 
ATOM     10  C   UNL     1       3.570  -0.039  -0.728  0.00  0.00    -0.050 A 
ATOM     11  C   UNL     1       3.292  -0.780  -1.863  0.00  0.00    +0.004 A 
ATOM     12  C   UNL     1       2.691  -2.017  -1.753  0.00  0.00    +0.012 A 
ATOM     13  C   UNL     1       2.364  -2.521  -0.493  0.00  0.00    +0.019 A 
ATOM     14  C   UNL     1       2.647  -1.769   0.647  0.00  0.00    +0.012 A 
ATOM     15  C   UNL     1       3.254  -0.536   0.524  0.00  0.00    +0.004 A 
ENDBRANCH   2  13
ENDBRANCH   1   5
BRANCH   1  16
ATOM     16  N   UNL     1       1.458  -7.747  -2.047  0.00  0.00    +0.393 N 
ATOM     17  C   UNL     1       2.166  -8.317  -0.894  0.00  0.00    -0.093 C 
ATOM     18  H   UNL     1       2.089  -7.161  -2.574  0.00  0.00    -0.079 HD
BRANCH  16  19
ATOM     19  C   UNL     1       0.966  -8.833  -2.906  0.00  0.00    -0.043 C 
BRANCH  19  20
ATOM     20  C   UNL     1       2.152  -9.523  -3.584  0.00  0.00    +0.117 C 
ATOM     21  N   UNL     1       3.097 -10.047  -2.589  0.00  0.00    -0.333 N 
ATOM     22  C   UNL     1       4.392  -9.531  -2.596  0.00  0.00    +0.042 A 
ATOM     23  C   UNL     1       5.429  -9.908  -1.724  0.00  0.00    +0.024 A 
ATOM     24  C   UNL     1       6.677  -9.337  -1.811  0.00  0.00    +0.002 A 
ATOM     25  C   UNL     1       6.955  -8.370  -2.759  0.00  0.00    +0.001 A 
ATOM     26  C   UNL     1       5.953  -7.978  -3.632  0.00  0.00    +0.016 A 
ATOM     27  C   UNL     1       4.705  -8.551  -3.544  0.00  0.00    +0.030 A 
ATOM     28  S   UNL     1       3.205  -8.307  -4.471  0.00  0.00    -0.103 S 
ATOM     29  H   UNL     1       2.831 -10.728  -1.952  0.00  0.00    +0.147 HD
ENDBRANCH  19  20
ENDBRANCH  16  19
ENDBRANCH   1  16
TORSDOF 5
