REMARK  Name = ZINC39710924
REMARK  9 active torsions:
REMARK  status: ('A' for Active; 'I' for Inactive)
REMARK    1  A    between atoms: C_1  and  C_2
REMARK    2  A    between atoms: C_8  and  C_14
REMARK    3  A    between atoms: C_14  and  C_16
REMARK    4  A    between atoms: C_14  and  N_28
REMARK    5  A    between atoms: N_21  and  C_22
REMARK    6  A    between atoms: N_28  and  C_29
REMARK    7  A    between atoms: N_28  and  C_35
REMARK    8  A    between atoms: C_29  and  C_30
REMARK    9  A    between atoms: C_35  and  C_36
REMARK                            x       y       z     vdW  Elec       q    Type
REMARK                         _______ _______ _______ _____ _____    ______ ____
ROOT
ATOM      1  C   UNL     1      -1.404  -3.037   4.931  0.00  0.00    -0.009 C 
ENDROOT
BRANCH   1   9
ATOM      2  C   UNL     1       1.359  -1.344  -0.282  0.00  0.00    +0.045 C 
ATOM      3  C   UNL     1       1.257  -2.682   0.404  0.00  0.00    -0.029 A 
ATOM      4  C   UNL     1       1.560  -3.816  -0.281  0.00  0.00    +0.005 A 
ATOM      5  C   UNL     1       1.487  -5.085   0.294  0.00  0.00    +0.001 A 
ATOM      6  C   UNL     1       1.103  -5.255   1.586  0.00  0.00    +0.009 A 
ATOM      7  C   UNL     1       0.762  -4.075   2.382  0.00  0.00    -0.007 A 
ATOM      8  C   UNL     1       0.372  -4.198   3.682  0.00  0.00    -0.006 C 
ATOM      9  C   UNL     1       0.037  -2.923   4.431  0.00  0.00    +0.088 C 
ATOM     10  C   UNL     1       0.164  -1.619   3.675  0.00  0.00    +0.223 C 
ATOM     11  O   UNL     1      -0.092  -0.566   4.226  0.00  0.00    -0.275 OA
ATOM     12  N   UNL     1       0.553  -1.629   2.411  0.00  0.00    -0.284 N 
ATOM     13  C   UNL     1       0.853  -2.748   1.750  0.00  0.00    +0.043 A 
ATOM     14  H   UNL     1       0.628  -0.782   1.944  0.00  0.00    +0.155 HD
ENDBRANCH   1   9
BRANCH   1  15
ATOM     15  C   UNL     1      -1.530  -4.254   5.849  0.00  0.00    +0.205 C 
ATOM     16  N   UNL     1      -0.299  -4.438   6.629  0.00  0.00    -0.152 NA
ATOM     17  N   UNL     1       0.190  -5.535   6.350  0.00  0.00    -0.070 NA
ATOM     18  N   UNL     1      -0.559  -6.238   5.407  0.00  0.00    -0.179 N 
ATOM     19  N   UNL     1      -1.655  -5.491   5.051  0.00  0.00    -0.185 NA
ATOM     20  H   UNL     1      -0.342  -7.117   5.059  0.00  0.00    +0.191 HD
BRANCH  19  21
ATOM     21  C   UNL     1      -2.903  -6.199   5.367  0.00  0.00    +0.080 C 
ATOM     22  C   UNL     1      -2.856  -6.693   6.814  0.00  0.00    +0.021 C 
ATOM     23  C   UNL     1      -4.156  -7.430   7.144  0.00  0.00    +0.002 C 
ATOM     24  C   UNL     1      -4.318  -8.624   6.202  0.00  0.00    +0.000 C 
ATOM     25  C   UNL     1      -4.365  -8.130   4.754  0.00  0.00    +0.002 C 
ATOM     26  C   UNL     1      -3.065  -7.393   4.425  0.00  0.00    +0.021 C 
ENDBRANCH  19  21
ENDBRANCH   1  15
BRANCH   1  27
ATOM     27  N   UNL     1      -1.761  -1.822   5.677  0.00  0.00    +0.391 N 
ATOM     28  H   UNL     1      -1.634  -1.015   5.085  0.00  0.00    -0.080 HD
BRANCH  27  29
ATOM     29  C   UNL     1      -0.898  -1.703   6.860  0.00  0.00    -0.002 C 
BRANCH  29  30
ATOM     30  C   UNL     1       0.386  -1.014   6.478  0.00  0.00    +0.089 A 
ATOM     31  C   UNL     1       0.644   0.300   6.610  0.00  0.00    +0.042 A 
ATOM     32  C   UNL     1       1.958   0.510   6.131  0.00  0.00    +0.041 A 
ATOM     33  C   UNL     1       2.424  -0.688   5.735  0.00  0.00    +0.195 A 
ATOM     34  O   UNL     1       1.470  -1.608   5.953  0.00  0.00    -0.470 OA
ENDBRANCH  29  30
ENDBRANCH  27  29
BRANCH  27  35
ATOM     35  C   UNL     1      -3.165  -1.902   6.100  0.00  0.00    -0.046 C 
BRANCH  35  36
ATOM     36  C   UNL     1      -4.074  -1.822   4.872  0.00  0.00    +0.102 C 
ATOM     37  C   UNL     1      -5.550  -1.743   5.317  0.00  0.00    +0.032 C 
ATOM     38  C   UNL     1      -6.260  -2.638   4.265  0.00  0.00    +0.030 C 
ATOM     39  C   UNL     1      -5.172  -3.712   4.011  0.00  0.00    +0.160 C 
ATOM     40  O   UNL     1      -3.922  -3.004   4.077  0.00  0.00    -0.378 OA
ENDBRANCH  35  36
ENDBRANCH  27  35
ENDBRANCH   1  27
TORSDOF 8
