REMARK  Name = ZINC55099006
REMARK  7 active torsions:
REMARK  status: ('A' for Active; 'I' for Inactive)
REMARK    1  A    between atoms: C_7  and  C_15
REMARK    2  A    between atoms: N_9  and  C_10
REMARK    3  A    between atoms: C_10  and  C_11
REMARK    4  A    between atoms: C_11  and  C_12
REMARK    5  A    between atoms: C_15  and  N_16
REMARK    6  A    between atoms: N_16  and  C_17
REMARK    7  A    between atoms: C_17  and  C_18
REMARK                            x       y       z     vdW  Elec       q    Type
REMARK                         _______ _______ _______ _____ _____    ______ ____
ROOT
ATOM      1  C   UNL     1      -0.017   1.362   0.009  0.00  0.00    +0.001 A 
ATOM      2  C   UNL     1       1.170   2.083   0.002  0.00  0.00    +0.002 A 
ATOM      3  C   UNL     1       2.386   1.436  -0.013  0.00  0.00    +0.026 A 
ATOM      4  C   UNL     1       2.428   0.046  -0.021  0.00  0.00    +0.049 A 
ATOM      5  C   UNL     1       1.223  -0.681  -0.013  0.00  0.00    +0.001 A 
ATOM      6  C   UNL     1       0.002  -0.004   0.002  0.00  0.00    +0.010 A 
ATOM      7  C   UNL     1       1.604  -2.095  -0.025  0.00  0.00    -0.039 A 
ATOM      8  C   UNL     1       2.945  -2.141  -0.038  0.00  0.00    +0.088 A 
ATOM      9  N   UNL     1       3.455  -0.871  -0.036  0.00  0.00    -0.346 N 
ENDROOT
BRANCH   9  10
ATOM     10  C   UNL     1       4.881  -0.537  -0.048  0.00  0.00    +0.131 C 
BRANCH  10  11
ATOM     11  C   UNL     1       5.363  -0.307   1.386  0.00  0.00    +0.117 C 
BRANCH  11  12
ATOM     12  C   UNL     1       6.830   0.037   1.373  0.00  0.00    +0.212 C 
ATOM     13  O   UNL     1       7.432   0.092   0.321  0.00  0.00    -0.276 OA
ATOM     14  N   UNL     1       7.475   0.283   2.531  0.00  0.00    -0.329 N 
ATOM     15  H   UNL     1       6.994   0.239   3.373  0.00  0.00    +0.145 HD
ATOM     16  H   UNL     1       8.419   0.504   2.523  0.00  0.00    +0.145 HD
ENDBRANCH  11  12
ENDBRANCH  10  11
ENDBRANCH   9  10
BRANCH   7  17
ATOM     17  C   UNL     1       0.666  -3.275  -0.021  0.00  0.00    -0.044 C 
BRANCH  17  18
ATOM     18  N   UNL     1       0.160  -3.502  -1.381  0.00  0.00    +0.384 N 
ATOM     19  H   UNL     1      -0.335  -2.681  -1.697  0.00  0.00    -0.085 HD
ATOM     20  H   UNL     1       0.933  -3.689  -2.002  0.00  0.00    -0.085 HD
BRANCH  18  21
ATOM     21  C   UNL     1      -0.754  -4.653  -1.378  0.00  0.00    -0.046 C 
BRANCH  21  22
ATOM     22  C   UNL     1      -1.274  -4.885  -2.773  0.00  0.00    -0.061 A 
ATOM     23  C   UNL     1      -2.431  -4.255  -3.192  0.00  0.00    +0.005 A 
ATOM     24  C   UNL     1      -2.911  -4.464  -4.471  0.00  0.00    +0.050 A 
ATOM     25  C   UNL     1      -2.234  -5.308  -5.336  0.00  0.00    +0.166 A 
ATOM     26  C   UNL     1      -1.069  -5.944  -4.914  0.00  0.00    +0.166 A 
ATOM     27  C   UNL     1      -0.590  -5.724  -3.633  0.00  0.00    +0.051 A 
ATOM     28  O   UNL     1      -0.596  -6.713  -5.938  0.00  0.00    -0.453 OA
ATOM     29  C   UNL     1      -1.701  -6.862  -6.849  0.00  0.00    +0.466 C 
ATOM     30  O   UNL     1      -2.491  -5.679  -6.625  0.00  0.00    -0.453 OA
ENDBRANCH  21  22
ENDBRANCH  18  21
ENDBRANCH  17  18
ENDBRANCH   7  17
TORSDOF 7
