REMARK  Name = ZINC14956540
REMARK  7 active torsions:
REMARK  status: ('A' for Active; 'I' for Inactive)
REMARK    1  A    between atoms: C_1  and  O_2
REMARK    2  A    between atoms: O_2  and  C_3
REMARK    3  A    between atoms: C_6  and  C_9
REMARK    4  A    between atoms: C_9  and  C_10
REMARK    5  A    between atoms: C_10  and  N_11
REMARK    6  A    between atoms: C_22  and  N_62
REMARK    7  A    between atoms: C_26  and  N_62
REMARK                            x       y       z     vdW  Elec       q    Type
REMARK                         _______ _______ _______ _____ _____    ______ ____
ROOT
ATOM      1  N   UNL     1      -5.389   2.689  -5.654  0.00  0.00    -0.298 N 
ATOM      2  C   UNL     1      -4.853   2.125  -6.763  0.00  0.00    +0.203 A 
ATOM      3  N   UNL     1      -3.713   1.470  -6.754  0.00  0.00    -0.230 NA
ATOM      4  C   UNL     1      -3.075   1.369  -5.592  0.00  0.00    +0.116 A 
ATOM      5  C   UNL     1      -3.551   1.922  -4.383  0.00  0.00    +0.076 A 
ATOM      6  C   UNL     1      -4.799   2.630  -4.436  0.00  0.00    +0.262 A 
ATOM      7  O   UNL     1      -5.296   3.144  -3.449  0.00  0.00    -0.267 OA
ATOM      8  C   UNL     1      -2.720   1.712  -3.211  0.00  0.00    -0.023 A 
ATOM      9  C   UNL     1      -1.576   1.011  -3.396  0.00  0.00    -0.006 A 
ATOM     10  S   UNL     1      -1.557   0.602  -5.123  0.00  0.00    -0.073 S 
ATOM     11  C   UNL     1      -0.551   0.659  -2.363  0.00  0.00    +0.027 C 
ATOM     12  C   UNL     1      -0.795   1.527  -1.120  0.00  0.00    -0.066 C 
ATOM     13  C   UNL     1      -2.287   1.479  -0.774  0.00  0.00    -0.011 C 
ATOM     14  C   UNL     1      -3.088   2.244  -1.829  0.00  0.00    +0.035 C 
ENDROOT
BRANCH  12  15
ATOM     15  N   UNL     1      -0.015   0.998   0.015  0.00  0.00    +0.383 N 
ATOM     16  H   UNL     1       0.032  -0.025  -0.054  0.00  0.00    -0.085 HD
ATOM     17  H   UNL     1      -0.475   1.261   0.894  0.00  0.00    -0.085 HD
BRANCH  15  18
ATOM     18  C   UNL     1       1.353   1.550  -0.003  0.00  0.00    -0.063 C 
ATOM     19  C   UNL     1       2.293   0.658  -0.841  0.00  0.00    +0.020 C 
ATOM     20  C   UNL     1       3.628   0.710  -0.122  0.00  0.00    -0.046 A 
ATOM     21  C   UNL     1       4.897   0.375  -0.563  0.00  0.00    +0.004 A 
ATOM     22  C   UNL     1       5.984   0.509   0.279  0.00  0.00    +0.000 A 
ATOM     23  C   UNL     1       5.805   0.980   1.566  0.00  0.00    +0.000 A 
ATOM     24  C   UNL     1       4.540   1.315   2.008  0.00  0.00    +0.004 A 
ATOM     25  C   UNL     1       3.449   1.181   1.165  0.00  0.00    -0.046 A 
ATOM     26  C   UNL     1       1.984   1.475   1.404  0.00  0.00    +0.020 C 
ENDBRANCH  15  18
ENDBRANCH  12  15
BRANCH   1  27
ATOM     27  C   UNL     1      -6.666   3.397  -5.777  0.00  0.00    +0.131 C 
BRANCH  27  28
ATOM     28  C   UNL     1      -7.816   2.417  -5.537  0.00  0.00    +0.057 C 
BRANCH  28  32
ATOM     29  C   UNL     1     -11.541   4.480  -5.898  0.00  0.00    +0.120 A 
ATOM     30  C   UNL     1     -10.963   3.890  -7.012  0.00  0.00    +0.046 A 
ATOM     31  C   UNL     1      -9.759   3.224  -6.893  0.00  0.00    +0.007 A 
ATOM     32  C   UNL     1      -9.130   3.145  -5.664  0.00  0.00    -0.045 A 
ATOM     33  C   UNL     1      -9.707   3.727  -4.551  0.00  0.00    +0.007 A 
ATOM     34  C   UNL     1     -10.908   4.399  -4.666  0.00  0.00    +0.046 A 
BRANCH  29  36
ATOM     35  C   UNL     1     -13.262   5.720  -4.823  0.00  0.00    +0.277 C 
ATOM     36  O   UNL     1     -12.726   5.137  -6.012  0.00  0.00    -0.495 OA
ENDBRANCH  29  36
ENDBRANCH  28  32
ENDBRANCH  27  28
ENDBRANCH   1  27
TORSDOF 6
