REMARK  Name = ZINC40460623
REMARK  6 active torsions:
REMARK  status: ('A' for Active; 'I' for Inactive)
REMARK    1  A    between atoms: C_7  and  C_11
REMARK    2  A    between atoms: N_12  and  N_13
REMARK    3  A    between atoms: C_18  and  C_21
REMARK    4  A    between atoms: C_21  and  C_22
REMARK    5  A    between atoms: N_24  and  C_25
REMARK    6  A    between atoms: C_28  and  N_31
REMARK                            x       y       z     vdW  Elec       q    Type
REMARK                         _______ _______ _______ _____ _____    ______ ____
ROOT
ATOM      1  N   UNL     1      -1.469  -4.145  -0.018  0.00  0.00    -0.127 NA
ATOM      2  C   UNL     1      -2.770  -3.963   0.000  0.00  0.00    +0.183 C 
ATOM      3  N   UNL     1      -3.463  -2.769   0.015  0.00  0.00    -0.263 N 
ATOM      4  C   UNL     1      -4.784  -2.716   0.033  0.00  0.00    +0.233 C 
ATOM      5  O   UNL     1      -5.387  -1.664   0.045  0.00  0.00    -0.274 OA
ATOM      6  C   UNL     1      -5.500  -4.057   0.036  0.00  0.00    +0.149 C 
ATOM      7  S   UNL     1      -4.058  -5.201   0.004  0.00  0.00    -0.075 S 
ATOM      8  H   UNL     1      -2.963  -1.938   0.012  0.00  0.00    +0.157 HD
ENDROOT
BRANCH   1  10
ATOM      9  C   UNL     1       0.687  -3.223  -0.036  0.00  0.00    +0.145 C 
ATOM     10  N   UNL     1      -0.606  -3.041  -0.018  0.00  0.00    -0.155 NA
BRANCH   9  17
ATOM     11  C   UNL     1      -0.045   1.401   0.020  0.00  0.00    +0.001 A 
ATOM     12  C   UNL     1       1.140   2.123   0.012  0.00  0.00    +0.002 A 
ATOM     13  C   UNL     1       2.356   1.477  -0.010  0.00  0.00    +0.026 A 
ATOM     14  C   UNL     1       2.403   0.086  -0.025  0.00  0.00    +0.047 A 
ATOM     15  C   UNL     1       1.203  -0.643  -0.017  0.00  0.00    +0.008 A 
ATOM     16  C   UNL     1      -0.020   0.024   0.005  0.00  0.00    +0.010 A 
ATOM     17  C   UNL     1       1.592  -2.065  -0.036  0.00  0.00    +0.020 A 
ATOM     18  C   UNL     1       2.953  -2.095  -0.053  0.00  0.00    +0.093 A 
ATOM     19  N   UNL     1       3.440  -0.822  -0.047  0.00  0.00    -0.360 N 
ATOM     20  H   UNL     1       4.382  -0.588  -0.057  0.00  0.00    +0.165 HD
ENDBRANCH   9  17
ENDBRANCH   1  10
BRANCH   6  21
ATOM     21  C   UNL     1      -6.365  -4.227  -1.214  0.00  0.00    +0.120 C 
BRANCH  21  22
ATOM     22  C   UNL     1      -7.149  -5.510  -1.112  0.00  0.00    +0.219 C 
ATOM     23  O   UNL     1      -7.028  -6.219  -0.135  0.00  0.00    -0.275 OA
ATOM     24  N   UNL     1      -7.985  -5.870  -2.106  0.00  0.00    -0.285 N 
ATOM     25  H   UNL     1      -8.133  -5.272  -2.856  0.00  0.00    +0.155 HD
BRANCH  24  26
ATOM     26  C   UNL     1      -8.639  -7.106  -2.057  0.00  0.00    +0.034 A 
ATOM     27  C   UNL     1      -8.871  -7.817  -3.227  0.00  0.00    +0.025 A 
ATOM     28  C   UNL     1      -9.517  -9.037  -3.176  0.00  0.00    +0.034 A 
ATOM     29  C   UNL     1      -9.933  -9.550  -1.961  0.00  0.00    +0.126 A 
ATOM     30  C   UNL     1      -9.704  -8.844  -0.794  0.00  0.00    +0.034 A 
ATOM     31  C   UNL     1      -9.053  -7.627  -0.838  0.00  0.00    +0.025 A 
BRANCH  29  32
ATOM     32  N   UNL     1     -10.625 -10.857  -1.909  0.00  0.00    +0.056 N 
ATOM     33  O   UNL     1     -10.826 -11.476  -2.928  0.00  0.00    -0.126 OA
ATOM     34  O   UNL     1     -10.989 -11.307  -0.847  0.00  0.00    -0.126 OA
ENDBRANCH  29  32
ENDBRANCH  24  26
ENDBRANCH  21  22
ENDBRANCH   6  21
TORSDOF 6
