REMARK  Name = ZINC11342924
REMARK  6 active torsions:
REMARK  status: ('A' for Active; 'I' for Inactive)
REMARK    1  A    between atoms: C_1  and  C_2
REMARK    2  A    between atoms: C_5  and  S_8
REMARK    3  A    between atoms: S_8  and  C_9
REMARK    4  A    between atoms: C_9  and  C_10
REMARK    5  A    between atoms: N_16  and  C_17
REMARK    6  A    between atoms: C_22  and  C_23
REMARK                            x       y       z     vdW  Elec       q    Type
REMARK                         _______ _______ _______ _____ _____    ______ ____
ROOT
ATOM      1  C   UNL     1      -2.309  -4.090  -0.301  0.00  0.00    +0.146 A 
ATOM      2  N   UNL     1      -1.160  -4.742  -0.317  0.00  0.00    -0.199 NA
ATOM      3  C   UNL     1      -0.012  -4.074  -0.225  0.00  0.00    +0.217 A 
ATOM      4  N   UNL     1      -0.024  -2.750  -0.117  0.00  0.00    -0.181 NA
ATOM      5  C   UNL     1      -1.181  -2.098  -0.102  0.00  0.00    +0.224 A 
ATOM      6  N   UNL     1      -2.325  -2.774  -0.189  0.00  0.00    -0.198 NA
ATOM      7  N   UNL     1      -1.198  -0.721   0.010  0.00  0.00    -0.283 N 
ATOM      8  N   UNL     1       1.187  -4.755  -0.242  0.00  0.00    -0.327 N 
ATOM      9  H   UNL     1      -2.036  -0.239  -0.068  0.00  0.00    +0.155 HD
ATOM     10  H   UNL     1       2.023  -4.268  -0.175  0.00  0.00    +0.145 HD
ATOM     11  H   UNL     1       1.195  -5.722  -0.320  0.00  0.00    +0.145 HD
ENDROOT
BRANCH   7  12
ATOM     12  C   UNL     1      -0.008  -0.023   0.236  0.00  0.00    +0.036 A 
ATOM     13  C   UNL     1       1.033  -0.628   0.930  0.00  0.00    +0.023 A 
ATOM     14  C   UNL     1       2.207   0.064   1.152  0.00  0.00    +0.002 A 
ATOM     15  C   UNL     1       2.347   1.358   0.685  0.00  0.00    +0.000 A 
ATOM     16  C   UNL     1       1.313   1.963  -0.005  0.00  0.00    +0.005 A 
ATOM     17  C   UNL     1       0.136   1.276  -0.231  0.00  0.00    -0.029 A 
ATOM     18  C   UNL     1      -0.988   1.935  -0.989  0.00  0.00    +0.045 C 
ENDBRANCH   7  12
BRANCH   1  19
ATOM     19  C   UNL     1      -3.606  -4.851  -0.407  0.00  0.00    +0.150 C 
BRANCH  19  20
ATOM     20  S   UNL     1      -4.183  -5.296   1.255  0.00  0.00    -0.117 S 
BRANCH  20  25
ATOM     21  C   UNL     1      -9.334  -8.281   0.262  0.00  0.00    +0.044 C 
ATOM     22  C   UNL     1      -8.048  -7.536   0.510  0.00  0.00    -0.050 A 
ATOM     23  C   UNL     1      -7.597  -7.350   1.804  0.00  0.00    +0.004 A 
ATOM     24  C   UNL     1      -6.419  -6.667   2.035  0.00  0.00    +0.015 A 
ATOM     25  C   UNL     1      -5.686  -6.167   0.965  0.00  0.00    +0.008 A 
ATOM     26  C   UNL     1      -6.146  -6.351  -0.334  0.00  0.00    +0.015 A 
ATOM     27  C   UNL     1      -7.322  -7.040  -0.557  0.00  0.00    +0.004 A 
ENDBRANCH  20  25
ENDBRANCH  19  20
ENDBRANCH   1  19
TORSDOF 4
