REMARK  Name = ZINC36491174
REMARK  17 active torsions:
REMARK  status: ('A' for Active; 'I' for Inactive)
REMARK    1  A    between atoms: C_1  and  C_2
REMARK    2  A    between atoms: C_2  and  C_3
REMARK    3  A    between atoms: C_2  and  C_4
REMARK    4  A    between atoms: C_2  and  C_5
REMARK    5  A    between atoms: C_5  and  C_6
REMARK    6  A    between atoms: C_6  and  C_7
REMARK    7  A    between atoms: C_6  and  C_8
REMARK    8  A    between atoms: C_6  and  N_9
REMARK    9  A    between atoms: C_10  and  C_12
REMARK   10  A    between atoms: C_12  and  C_14
REMARK   11  A    between atoms: C_12  and  N_23
REMARK   12  A    between atoms: C_17  and  O_22
REMARK   13  A    between atoms: C_18  and  O_20
REMARK   14  A    between atoms: O_20  and  C_21
REMARK   15  A    between atoms: N_23  and  C_24
REMARK   16  A    between atoms: C_30  and  C_32
REMARK   17  A    between atoms: C_36  and  N_38
REMARK                            x       y       z     vdW  Elec       q    Type
REMARK                         _______ _______ _______ _____ _____    ______ ____
ROOT
ATOM      1  C   UNL     1       5.477  -0.341  -3.633  0.00  0.00    +0.193 C 
ENDROOT
BRANCH   1   2
ATOM      2  C   UNL     1       4.686   0.210  -4.791  0.00  0.00    -0.015 A 
ATOM      3  C   UNL     1       3.619   1.058  -4.556  0.00  0.00    +0.010 A 
ATOM      4  C   UNL     1       2.890   1.567  -5.615  0.00  0.00    +0.049 A 
ATOM      5  C   UNL     1       3.228   1.228  -6.915  0.00  0.00    +0.158 A 
ATOM      6  C   UNL     1       4.302   0.375  -7.152  0.00  0.00    +0.162 A 
ATOM      7  C   UNL     1       5.032  -0.127  -6.086  0.00  0.00    +0.055 A 
BRANCH   6   8
ATOM      8  O   UNL     1       4.638   0.040  -8.426  0.00  0.00    -0.491 OA
ATOM      9  C   UNL     1       5.752  -0.840  -8.594  0.00  0.00    +0.277 C 
ENDBRANCH   6   8
BRANCH   5  10
ATOM     10  O   UNL     1       2.512   1.727  -7.958  0.00  0.00    -0.503 OA
ATOM     11  H   UNL     1       2.848   2.567  -8.300  0.00  0.00    +0.292 HD
ENDBRANCH   5  10
ENDBRANCH   1   2
BRANCH   1  13
ATOM     12  N   UNL     1       3.598  -0.321  -2.024  0.00  0.00    -0.308 N 
ATOM     13  C   UNL     1       4.842   0.094  -2.338  0.00  0.00    +0.239 C 
ATOM     14  O   UNL     1       5.449   0.818  -1.578  0.00  0.00    -0.273 OA
ATOM     15  H   UNL     1       3.138  -0.952  -2.599  0.00  0.00    +0.149 HD
BRANCH  12  16
ATOM     16  C   UNL     1       2.942   0.182  -0.815  0.00  0.00    +0.030 C 
ATOM     17  C   UNL     1       3.046   1.708  -0.775  0.00  0.00    +0.031 C 
ATOM     18  C   UNL     1       3.626  -0.408   0.420  0.00  0.00    +0.031 C 
BRANCH  16  19
ATOM     19  C   UNL     1       1.468  -0.228  -0.827  0.00  0.00    +0.031 C 
BRANCH  19  21
ATOM     20  C   UNL     1       1.236  -0.908  -3.219  0.00  0.00    +0.010 C 
ATOM     21  C   UNL     1       0.847   0.141  -2.175  0.00  0.00    -0.036 C 
ATOM     22  C   UNL     1       1.360   1.513  -2.615  0.00  0.00    +0.010 C 
ATOM     23  C   UNL     1      -0.677   0.185  -2.040  0.00  0.00    +0.010 C 
ENDBRANCH  19  21
ENDBRANCH  16  19
ENDBRANCH  12  16
ENDBRANCH   1  13
BRANCH   1  24
ATOM     24  N   UNL     1       6.851   0.162  -3.697  0.00  0.00    -0.279 N 
ATOM     25  C   UNL     1       7.881  -0.702  -3.795  0.00  0.00    +0.248 C 
ATOM     26  O   UNL     1       7.667  -1.884  -3.977  0.00  0.00    -0.270 OA
BRANCH  24  27
ATOM     27  C   UNL     1       7.106   1.604  -3.654  0.00  0.00    +0.077 C 
ATOM     28  C   UNL     1       7.591   1.995  -2.256  0.00  0.00    +0.022 C 
ATOM     29  C   UNL     1       7.857   3.501  -2.211  0.00  0.00    +0.002 C 
ATOM     30  C   UNL     1       6.566   4.256  -2.533  0.00  0.00    +0.000 C 
ATOM     31  C   UNL     1       6.081   3.866  -3.930  0.00  0.00    +0.002 C 
ATOM     32  C   UNL     1       5.815   2.360  -3.975  0.00  0.00    +0.022 C 
ENDBRANCH  24  27
BRANCH  25  33
ATOM     33  C   UNL     1       9.271  -0.210  -3.682  0.00  0.00    +0.039 A 
ATOM     34  C   UNL     1       9.522   1.153  -3.521  0.00  0.00    +0.013 A 
ATOM     35  C   UNL     1      10.821   1.605  -3.415  0.00  0.00    +0.003 A 
ATOM     36  C   UNL     1      11.874   0.710  -3.468  0.00  0.00    +0.033 A 
ATOM     37  C   UNL     1      11.633  -0.643  -3.628  0.00  0.00    +0.127 A 
ATOM     38  C   UNL     1      10.338  -1.109  -3.729  0.00  0.00    +0.045 A 
BRANCH  37  39
ATOM     39  N   UNL     1      12.766  -1.594  -3.684  0.00  0.00    +0.056 N 
ATOM     40  O   UNL     1      13.901  -1.188  -3.591  0.00  0.00    -0.126 OA
ATOM     41  O   UNL     1      12.556  -2.776  -3.824  0.00  0.00    -0.126 OA
ENDBRANCH  37  39
ENDBRANCH  25  33
ENDBRANCH   1  24
TORSDOF 11
