REMARK  Name = ZINC52637058
REMARK  9 active torsions:
REMARK  status: ('A' for Active; 'I' for Inactive)
REMARK    1  A    between atoms: C_1  and  C_2
REMARK    2  A    between atoms: N_5  and  C_11
REMARK    3  A    between atoms: C_7  and  C_9
REMARK    4  A    between atoms: C_7  and  C_10
REMARK    5  A    between atoms: C_16  and  O_17
REMARK    6  A    between atoms: O_17  and  C_18
REMARK    7  A    between atoms: N_21  and  S_22
REMARK    8  A    between atoms: S_22  and  C_25
REMARK    9  A    between atoms: C_28  and  C_30
REMARK                            x       y       z     vdW  Elec       q    Type
REMARK                         _______ _______ _______ _____ _____    ______ ____
ROOT
ATOM      1  C   UNL     1      -2.112  -2.818  -0.740  0.00  0.00    +0.074 A 
ATOM      2  C   UNL     1      -1.526  -3.261  -1.913  0.00  0.00    +0.051 A 
ATOM      3  C   UNL     1      -2.240  -4.077  -2.792  0.00  0.00    +0.056 A 
ATOM      4  C   UNL     1      -3.540  -4.438  -2.474  0.00  0.00    -0.020 A 
ATOM      5  C   UNL     1      -4.127  -3.997  -1.302  0.00  0.00    +0.053 A 
ATOM      6  C   UNL     1      -3.418  -3.191  -0.428  0.00  0.00    +0.141 A 
ATOM      7  C   UNL     1      -4.080  -5.316  -3.581  0.00  0.00    +0.058 C 
ATOM      8  C   UNL     1      -2.925  -5.421  -4.590  0.00  0.00    +0.136 C 
ATOM      9  N   UNL     1      -1.837  -4.626  -4.014  0.00  0.00    -0.202 N 
ENDROOT
BRANCH   1  13
ATOM     10  C   UNL     1      -0.019   1.526   0.010  0.00  0.00    -0.012 C 
ATOM     11  C   UNL     1       0.002  -0.004   0.002  0.00  0.00    -0.057 C 
ATOM     12  C   UNL     1      -1.435  -0.535   0.013  0.00  0.00    +0.089 C 
ATOM     13  N   UNL     1      -1.391  -2.000   0.137  0.00  0.00    -0.330 N 
ATOM     14  C   UNL     1      -0.566  -2.580   1.208  0.00  0.00    +0.092 C 
ATOM     15  C   UNL     1       0.830  -1.953   1.140  0.00  0.00    -0.058 C 
ATOM     16  N   UNL     1       0.712  -0.491   1.192  0.00  0.00    +0.386 N 
ATOM     17  C   UNL     1       1.511  -2.364  -0.167  0.00  0.00    -0.009 C 
ATOM     18  C   UNL     1       1.666  -2.440   2.326  0.00  0.00    -0.009 C 
ATOM     19  H   UNL     1       1.633  -0.081   1.223  0.00  0.00    -0.085 HD
ATOM     20  H   UNL     1       0.200  -0.225   2.019  0.00  0.00    -0.085 HD
ENDBRANCH   1  13
BRANCH   9  21
ATOM     21  S   UNL     1      -0.350  -4.407  -4.708  0.00  0.00    +0.081 S 
ATOM     22  O   UNL     1      -0.518  -4.618  -6.103  0.00  0.00    -0.149 OA
ATOM     23  O   UNL     1       0.171  -3.196  -4.178  0.00  0.00    -0.149 OA
BRANCH  21  24
ATOM     24  C   UNL     1       0.693  -5.702  -4.125  0.00  0.00    +0.147 A 
ATOM     25  C   UNL     1       0.910  -6.930  -4.662  0.00  0.00    +0.037 A 
ATOM     26  C   UNL     1       1.777  -7.794  -4.032  0.00  0.00    +0.019 A 
ATOM     27  C   UNL     1       2.394  -7.384  -2.880  0.00  0.00    +0.039 A 
ATOM     28  S   UNL     1       1.742  -5.734  -2.681  0.00  0.00    -0.067 S 
BRANCH  27  29
ATOM     29  C   UNL     1       3.353  -8.114  -2.027  0.00  0.00    +0.078 A 
ATOM     30  C   UNL     1       3.863  -7.505  -0.878  0.00  0.00    +0.029 A 
ATOM     31  C   UNL     1       4.761  -8.202  -0.090  0.00  0.00    +0.004 A 
ATOM     32  C   UNL     1       5.121  -9.487  -0.474  0.00  0.00    +0.020 A 
ATOM     33  C   UNL     1       4.578 -10.030  -1.623  0.00  0.00    +0.111 A 
ATOM     34  N   UNL     1       3.721  -9.348  -2.355  0.00  0.00    -0.254 NA
ENDBRANCH  27  29
ENDBRANCH  21  24
ENDBRANCH   9  21
BRANCH   6  35
ATOM     35  O   UNL     1      -3.995  -2.761   0.727  0.00  0.00    -0.493 OA
ATOM     36  C   UNL     1      -5.336  -3.184   0.979  0.00  0.00    +0.277 C 
ENDBRANCH   6  35
TORSDOF 5
