REMARK  Name = ZINC39911967
REMARK  11 active torsions:
REMARK  status: ('A' for Active; 'I' for Inactive)
REMARK    1  A    between atoms: C_1  and  C_2
REMARK    2  A    between atoms: C_2  and  C_3
REMARK    3  A    between atoms: C_3  and  C_4
REMARK    4  A    between atoms: C_4  and  C_5
REMARK    5  A    between atoms: C_5  and  N_6
REMARK    6  A    between atoms: C_7  and  C_26
REMARK    7  A    between atoms: C_10  and  C_17
REMARK    8  A    between atoms: C_19  and  C_25
REMARK    9  A    between atoms: C_21  and  C_24
REMARK   10  A    between atoms: C_22  and  O_23
REMARK   11  A    between atoms: C_29  and  C_32
REMARK                            x       y       z     vdW  Elec       q    Type
REMARK                         _______ _______ _______ _____ _____    ______ ____
ROOT
ATOM      1  N   UNL     1       1.523  -4.012   2.465  0.00  0.00    -0.285 N 
ATOM      2  C   UNL     1       0.506  -4.890   3.060  0.00  0.00    +0.141 C 
ATOM      3  C   UNL     1       0.965  -6.298   2.795  0.00  0.00    +0.035 A 
ATOM      4  C   UNL     1       0.717  -7.667   2.942  0.00  0.00    +0.102 A 
ATOM      5  N   UNL     1       1.710  -8.312   2.364  0.00  0.00    -0.173 NA
ATOM      6  N   UNL     1       2.560  -7.487   1.865  0.00  0.00    -0.272 N 
ATOM      7  H   UNL     1       3.369  -7.739   1.393  0.00  0.00    +0.189 HD
ATOM      8  C   UNL     1       2.155  -6.204   2.099  0.00  0.00    +0.126 A 
ATOM      9  C   UNL     1       2.472  -4.785   1.906  0.00  0.00    +0.265 C 
ATOM     10  O   UNL     1       3.455  -4.365   1.325  0.00  0.00    -0.268 OA
ENDROOT
BRANCH   4  11
ATOM     11  C   UNL     1      -0.450  -8.279   3.626  0.00  0.00    +0.044 A 
ATOM     12  C   UNL     1      -1.433  -7.471   4.192  0.00  0.00    +0.017 A 
ATOM     13  C   UNL     1      -2.516  -8.045   4.826  0.00  0.00    -0.049 A 
ATOM     14  C   UNL     1      -2.629  -9.422   4.902  0.00  0.00    +0.010 A 
ATOM     15  C   UNL     1      -1.660 -10.233   4.343  0.00  0.00    -0.008 A 
ATOM     16  C   UNL     1      -0.570  -9.670   3.699  0.00  0.00    +0.129 A 
ATOM     17  C   UNL     1      -1.791 -11.732   4.430  0.00  0.00    +0.047 C 
ATOM     18  C   UNL     1      -3.578  -7.169   5.438  0.00  0.00    +0.044 C 
BRANCH  16  19
ATOM     19  O   UNL     1       0.381 -10.466   3.145  0.00  0.00    -0.506 OA
ATOM     20  H   UNL     1       1.102 -10.695   3.747  0.00  0.00    +0.292 HD
ENDBRANCH  16  19
ENDBRANCH   4  11
BRANCH   2  21
ATOM     21  C   UNL     1      -0.832  -4.648   2.411  0.00  0.00    -0.022 A 
ATOM     22  C   UNL     1      -0.912  -4.444   1.046  0.00  0.00    +0.006 A 
ATOM     23  C   UNL     1      -2.139  -4.222   0.451  0.00  0.00    +0.004 A 
ATOM     24  C   UNL     1      -3.288  -4.204   1.220  0.00  0.00    -0.050 A 
ATOM     25  C   UNL     1      -3.208  -4.409   2.585  0.00  0.00    +0.004 A 
ATOM     26  C   UNL     1      -1.981  -4.635   3.180  0.00  0.00    +0.006 A 
ATOM     27  C   UNL     1      -4.626  -3.962   0.571  0.00  0.00    +0.044 C 
ENDBRANCH   2  21
BRANCH   1  28
ATOM     28  C   UNL     1       1.503  -2.548   2.473  0.00  0.00    +0.109 C 
BRANCH  28  29
ATOM     29  C   UNL     1       0.763  -2.041   1.233  0.00  0.00    +0.019 C 
BRANCH  29  30
ATOM     30  C   UNL     1       0.742  -0.511   1.242  0.00  0.00    +0.001 C 
BRANCH  30  32
ATOM     31  C   UNL     1      -0.019   1.526   0.010  0.00  0.00    +0.004 C 
ATOM     32  C   UNL     1       0.002  -0.004   0.002  0.00  0.00    -0.003 C 
ENDBRANCH  30  32
ENDBRANCH  29  30
ENDBRANCH  28  29
ENDBRANCH   1  28
TORSDOF 7
