REMARK  Name = ZINC17094578
REMARK  14 active torsions:
REMARK  status: ('A' for Active; 'I' for Inactive)
REMARK    1  A    between atoms: C_1  and  C_2
REMARK    2  A    between atoms: C_2  and  C_3
REMARK    3  A    between atoms: C_4  and  C_27
REMARK    4  A    between atoms: C_7  and  C_8
REMARK    5  A    between atoms: N_10  and  N_11
REMARK    6  A    between atoms: N_11  and  C_12
REMARK    7  A    between atoms: C_12  and  N_14
REMARK    8  A    between atoms: N_14  and  C_15
REMARK    9  A    between atoms: C_16  and  C_23
REMARK   10  A    between atoms: C_17  and  C_21
REMARK   11  A    between atoms: C_18  and  C_20
REMARK   12  A    between atoms: C_21  and  C_22
REMARK   13  A    between atoms: C_23  and  O_25
REMARK   14  A    between atoms: O_25  and  C_26
REMARK                            x       y       z     vdW  Elec       q    Type
REMARK                         _______ _______ _______ _____ _____    ______ ____
ROOT
ATOM      1  C   UNL     1       1.241   4.683  -3.503  0.00  0.00    +0.151 C 
ATOM      2  S   UNL     1       1.310   6.366  -3.195  0.00  0.00    -0.017 S 
ENDROOT
BRANCH   1   3
ATOM      3  N   UNL     1       1.211   4.231  -4.772  0.00  0.00    -0.245 N 
ATOM      4  H   UNL     1       1.228   4.859  -5.511  0.00  0.00    +0.172 HD
BRANCH   3   7
ATOM      5  C   UNL     1       1.124   2.402  -6.293  0.00  0.00    +0.261 C 
ATOM      6  O   UNL     1       1.145   3.189  -7.220  0.00  0.00    -0.269 OA
ATOM      7  N   UNL     1       1.155   2.854  -5.024  0.00  0.00    -0.231 N 
ATOM      8  H   UNL     1       1.138   2.226  -4.285  0.00  0.00    +0.173 HD
BRANCH   5  13
ATOM      9  C   UNL     1       1.032   0.436  -7.902  0.00  0.00    -0.026 A 
ATOM     10  C   UNL     1       0.979  -0.903  -8.042  0.00  0.00    -0.009 A 
ATOM     11  S   UNL     1       0.973  -1.484  -6.358  0.00  0.00    -0.101 S 
ATOM     12  C   UNL     1       1.046   0.035  -5.530  0.00  0.00    +0.058 A 
ATOM     13  C   UNL     1       1.066   0.955  -6.558  0.00  0.00    +0.049 A 
ATOM     14  C   UNL     1       0.934  -1.711  -9.313  0.00  0.00    +0.052 C 
BRANCH   9  16
ATOM     15  C   UNL     1       2.505   1.605  -9.519  0.00  0.00    +0.009 C 
ATOM     16  C   UNL     1       1.056   1.352  -9.099  0.00  0.00    +0.033 C 
ENDBRANCH   9  16
ENDBRANCH   5  13
ENDBRANCH   3   7
ENDBRANCH   1   3
BRANCH   1  17
ATOM     17  N   UNL     1       1.218   3.811  -2.476  0.00  0.00    -0.290 N 
ATOM     18  H   UNL     1       1.179   2.857  -2.650  0.00  0.00    +0.154 HD
BRANCH  17  19
ATOM     19  C   UNL     1       1.249   4.275  -1.171  0.00  0.00    +0.086 A 
ATOM     20  C   UNL     1       1.233   3.539   0.009  0.00  0.00    +0.091 A 
ATOM     21  C   UNL     1       1.268   4.290   1.242  0.00  0.00    -0.022 A 
ATOM     22  C   UNL     1       1.324   5.630   1.144  0.00  0.00    -0.008 A 
ATOM     23  S   UNL     1       1.318   5.913  -0.614  0.00  0.00    -0.078 S 
ATOM     24  C   UNL     1       1.375   6.648   2.254  0.00  0.00    +0.052 C 
BRANCH  21  25
ATOM     25  C   UNL     1       1.248   3.601   2.583  0.00  0.00    +0.033 C 
ATOM     26  C   UNL     1       2.683   3.312   3.029  0.00  0.00    +0.009 C 
ENDBRANCH  21  25
BRANCH  20  27
ATOM     27  C   UNL     1       1.176   2.076   0.002  0.00  0.00    +0.342 C 
ATOM     28  O   UNL     1       2.205   1.428  -0.011  0.00  0.00    -0.245 OA
BRANCH  27  29
ATOM     29  O   UNL     1      -0.018   1.448   0.010  0.00  0.00    -0.464 OA
ATOM     30  C   UNL     1       0.002  -0.004   0.002  0.00  0.00    +0.280 C 
ENDBRANCH  27  29
ENDBRANCH  20  27
ENDBRANCH  17  19
ENDBRANCH   1  17
TORSDOF 9
