REMARK  Name = ZINC63044707
REMARK  6 active torsions:
REMARK  status: ('A' for Active; 'I' for Inactive)
REMARK    1  A    between atoms: C_1  and  C_2
REMARK    2  A    between atoms: C_2  and  C_3
REMARK    3  A    between atoms: C_3  and  C_5
REMARK    4  A    between atoms: C_3  and  C_15
REMARK    5  A    between atoms: C_8  and  N_12
REMARK    6  A    between atoms: C_15  and  C_17
REMARK                            x       y       z     vdW  Elec       q    Type
REMARK                         _______ _______ _______ _____ _____    ______ ____
ROOT
ATOM      1  C   UNL     1       0.148  -1.884  -1.538  0.00  0.00    -0.025 A 
ATOM      2  C   UNL     1       0.510  -2.839  -0.606  0.00  0.00    +0.007 A 
ATOM      3  C   UNL     1       0.181  -4.166  -0.812  0.00  0.00    +0.033 A 
ATOM      4  C   UNL     1      -0.510  -4.539  -1.950  0.00  0.00    +0.128 A 
ATOM      5  C   UNL     1      -0.873  -3.585  -2.882  0.00  0.00    +0.053 A 
ATOM      6  C   UNL     1      -0.549  -2.256  -2.673  0.00  0.00    +0.047 A 
ATOM      7 CL   UNL     1      -1.011  -1.056  -3.840  0.00  0.00    -0.083 Cl
ENDROOT
BRANCH   4   8
ATOM      8  N   UNL     1      -0.861  -5.960  -2.170  0.00  0.00    +0.056 N 
ATOM      9  O   UNL     1      -0.543  -6.794  -1.355  0.00  0.00    -0.126 OA
ATOM     10  O   UNL     1      -1.466  -6.286  -3.165  0.00  0.00    -0.126 OA
ENDBRANCH   4   8
BRANCH   1  11
ATOM     11  C   UNL     1       0.507  -0.438  -1.313  0.00  0.00    +0.033 C 
BRANCH  11  12
ATOM     12  C   UNL     1       2.025  -0.269  -1.407  0.00  0.00    +0.061 C 
ATOM     13  C   UNL     1       2.701  -1.135  -0.342  0.00  0.00    +0.020 C 
ATOM     14 BR   UNL     1       2.637  -0.826  -3.190  0.00  0.00    -0.088 Br
ENDBRANCH  11  12
BRANCH  11  16
ATOM     15  C   UNL     1       0.278   1.495   0.253  0.00  0.00    +0.004 C 
ATOM     16  C   UNL     1       0.030  -0.004   0.074  0.00  0.00    +0.006 C 
ENDBRANCH  11  16
ENDBRANCH   1  11
TORSDOF 4
