REMARK  Name = ZINC04387967
REMARK  4 active torsions:
REMARK  status: ('A' for Active; 'I' for Inactive)
REMARK    1  A    between atoms: C_4  and  C_7
REMARK    2  A    between atoms: C_8  and  C_9
REMARK    3  A    between atoms: N_11  and  C_12
REMARK    4  A    between atoms: C_15  and  N_18
REMARK                            x       y       z     vdW  Elec       q    Type
REMARK                         _______ _______ _______ _____ _____    ______ ____
ROOT
ATOM      1  C   UNL     1       2.403  -2.764   0.038  0.00  0.00    +0.255 C 
ATOM      2  O   UNL     1       3.407  -2.111  -0.181  0.00  0.00    -0.269 OA
ATOM      3  N   UNL     1       1.252  -2.141   0.360  0.00  0.00    -0.281 N 
ATOM      4  H   UNL     1       0.473  -2.662   0.611  0.00  0.00    +0.155 HD
ENDROOT
BRANCH   3   5
ATOM      5  C   UNL     1       1.180  -0.745   0.332  0.00  0.00    +0.034 A 
ATOM      6  C   UNL     1       1.976  -0.025  -0.550  0.00  0.00    +0.025 A 
ATOM      7  C   UNL     1       1.902   1.354  -0.576  0.00  0.00    +0.034 A 
ATOM      8  C   UNL     1       1.038   2.017   0.276  0.00  0.00    +0.126 A 
ATOM      9  C   UNL     1       0.244   1.303   1.155  0.00  0.00    +0.034 A 
ATOM     10  C   UNL     1       0.313  -0.076   1.185  0.00  0.00    +0.025 A 
BRANCH   8  11
ATOM     11  N   UNL     1       0.962   3.495   0.246  0.00  0.00    +0.056 N 
ATOM     12  O   UNL     1       1.661   4.126  -0.528  0.00  0.00    -0.126 OA
ATOM     13  O   UNL     1       0.201   4.081   0.995  0.00  0.00    -0.126 OA
ENDBRANCH   8  11
ENDBRANCH   3   5
BRANCH   1  15
ATOM     14  C   UNL     1       3.599  -4.848  -0.371  0.00  0.00    +0.028 C 
ATOM     15  C   UNL     1       2.446  -4.225  -0.049  0.00  0.00    +0.080 C 
ATOM     16 BR   UNL     1       0.887  -5.239   0.291  0.00  0.00    -0.045 Br
BRANCH  14  20
ATOM     17  C   UNL     1       3.632  -9.038  -1.030  0.00  0.00    +0.000 A 
ATOM     18  C   UNL     1       2.533  -8.290  -1.414  0.00  0.00    +0.001 A 
ATOM     19  C   UNL     1       2.514  -6.927  -1.203  0.00  0.00    +0.008 A 
ATOM     20  C   UNL     1       3.610  -6.302  -0.600  0.00  0.00    -0.024 A 
ATOM     21  C   UNL     1       4.720  -7.064  -0.221  0.00  0.00    +0.008 A 
ATOM     22  C   UNL     1       4.720  -8.427  -0.432  0.00  0.00    +0.001 A 
ENDBRANCH  14  20
ENDBRANCH   1  15
TORSDOF 4
