REMARK  Name = ZINC12719046
REMARK  8 active torsions:
REMARK  status: ('A' for Active; 'I' for Inactive)
REMARK    1  A    between atoms: C_4  and  O_16
REMARK    2  A    between atoms: C_5  and  C_7
REMARK    3  A    between atoms: C_7  and  N_54
REMARK    4  A    between atoms: O_16  and  C_17
REMARK    5  A    between atoms: C_17  and  C_18
REMARK    6  A    between atoms: C_18  and  C_20
REMARK    7  A    between atoms: C_18  and  O_26
REMARK    8  A    between atoms: C_20  and  N_56
REMARK                            x       y       z     vdW  Elec       q    Type
REMARK                         _______ _______ _______ _____ _____    ______ ____
ROOT
ATOM      1  C   UNL     1      -3.303   8.852  -7.260  0.00  0.00    +0.000 A 
ATOM      2  C   UNL     1      -3.071   7.489  -7.253  0.00  0.00    +0.004 A 
ATOM      3  C   UNL     1      -2.659   6.863  -6.093  0.00  0.00    +0.046 A 
ATOM      4  C   UNL     1      -2.490   7.601  -4.930  0.00  0.00    +0.122 A 
ATOM      5  C   UNL     1      -2.723   8.969  -4.940  0.00  0.00    -0.022 A 
ATOM      6  C   UNL     1      -3.129   9.591  -6.105  0.00  0.00    +0.005 A 
ENDROOT
BRANCH   5   7
ATOM      7  C   UNL     1      -2.534   9.775  -3.680  0.00  0.00    -0.039 C 
BRANCH   7  16
ATOM      8  C   UNL     1      -0.850  10.601  -2.148  0.00  0.00    -0.073 C 
ATOM      9  C   UNL     1       0.654  10.493  -1.846  0.00  0.00    +0.024 C 
ATOM     10  C   UNL     1       1.395  10.994  -3.043  0.00  0.00    -0.011 A 
ATOM     11  C   UNL     1       0.881  11.215  -4.285  0.00  0.00    -0.054 A 
ATOM     12  C   UNL     1       1.766  11.689  -5.250  0.00  0.00    +0.009 A 
ATOM     13  C   UNL     1       3.063  11.905  -4.930  0.00  0.00    +0.045 A 
ATOM     14  S   UNL     1       3.101  11.438  -3.205  0.00  0.00    -0.101 S 
ATOM     15  C   UNL     1      -0.597  10.939  -4.548  0.00  0.00    -0.042 C 
ATOM     16  N   UNL     1      -1.091  10.024  -3.493  0.00  0.00    +0.385 N 
ATOM     17  H   UNL     1      -0.587   9.133  -3.565  0.00  0.00    -0.081 HD
ENDBRANCH   7  16
ENDBRANCH   5   7
BRANCH   4  18
ATOM     18  O   UNL     1      -2.090   6.987  -3.786  0.00  0.00    -0.489 OA
BRANCH  18  19
ATOM     19  C   UNL     1      -1.869   5.577  -3.850  0.00  0.00    +0.258 C 
BRANCH  19  20
ATOM     20  C   UNL     1      -1.428   5.067  -2.476  0.00  0.00    +0.135 C 
BRANCH  20  21
ATOM     21  O   UNL     1      -2.493   5.240  -1.539  0.00  0.00    -0.390 OA
ATOM     22  H   UNL     1      -3.303   4.767  -1.773  0.00  0.00    +0.210 HD
ENDBRANCH  20  21
BRANCH  20  23
ATOM     23  C   UNL     1      -1.071   3.582  -2.574  0.00  0.00    -0.044 C 
BRANCH  23  29
ATOM     24  C   UNL     1      -1.580   2.962  -0.293  0.00  0.00    -0.068 C 
ATOM     25  C   UNL     1      -1.082   2.073   0.853  0.00  0.00    +0.050 C 
ATOM     26  S   UNL     1       0.339   2.894   1.640  0.00  0.00    -0.164 S 
ATOM     27  C   UNL     1       1.404   3.299   0.221  0.00  0.00    +0.050 C 
ATOM     28  C   UNL     1       0.552   4.013  -0.835  0.00  0.00    -0.068 C 
ATOM     29  N   UNL     1      -0.505   3.091  -1.305  0.00  0.00    +0.382 N 
ATOM     30  H   UNL     1      -0.089   2.166  -1.463  0.00  0.00    -0.082 HD
ENDBRANCH  23  29
ENDBRANCH  20  23
ENDBRANCH  19  20
ENDBRANCH  18  19
ENDBRANCH   4  18
TORSDOF 8
