REMARK  Name = ZINC62038867
REMARK  8 active torsions:
REMARK  status: ('A' for Active; 'I' for Inactive)
REMARK    1  A    between atoms: C_1  and  C_2
REMARK    2  A    between atoms: C_11  and  S_15
REMARK    3  A    between atoms: S_15  and  C_16
REMARK    4  A    between atoms: C_16  and  C_18
REMARK    5  A    between atoms: C_16  and  C_19
REMARK    6  A    between atoms: N_21  and  C_22
REMARK    7  A    between atoms: C_24  and  C_29
REMARK    8  A    between atoms: C_27  and  O_28
REMARK                            x       y       z     vdW  Elec       q    Type
REMARK                         _______ _______ _______ _____ _____    ______ ____
ROOT
ATOM      1  C   UNL     1      -3.494  -6.248  -1.014  0.00  0.00    +0.136 C 
ATOM      2  C   UNL     1      -2.528  -7.211  -1.708  0.00  0.00    +0.029 C 
ENDROOT
BRANCH   1   3
ATOM      3  C   UNL     1      -4.679  -5.994  -1.910  0.00  0.00    +0.230 C 
ATOM      4  O   UNL     1      -4.692  -5.024  -2.638  0.00  0.00    -0.274 OA
ATOM      5  N   UNL     1      -5.724  -6.845  -1.903  0.00  0.00    -0.282 N 
ATOM      6  H   UNL     1      -5.687  -7.654  -1.370  0.00  0.00    +0.155 HD
BRANCH   5   7
ATOM      7  C   UNL     1      -6.865  -6.559  -2.665  0.00  0.00    +0.076 A 
ATOM      8  C   UNL     1      -6.740  -5.921  -3.884  0.00  0.00    +0.038 A 
ATOM      9  C   UNL     1      -7.883  -5.638  -4.642  0.00  0.00    +0.016 A 
ATOM     10  C   UNL     1      -9.146  -6.003  -4.160  0.00  0.00    +0.015 A 
ATOM     11  C   UNL     1      -9.262  -6.639  -2.944  0.00  0.00    +0.048 A 
ATOM     12  C   UNL     1      -8.128  -6.925  -2.195  0.00  0.00    +0.138 A 
BRANCH  12  13
ATOM     13  O   UNL     1      -8.249  -7.557  -1.000  0.00  0.00    -0.505 OA
ATOM     14  H   UNL     1      -8.359  -6.959  -0.248  0.00  0.00    +0.292 HD
ENDBRANCH  12  13
BRANCH   9  15
ATOM     15  C   UNL     1      -7.757  -4.959  -5.938  0.00  0.00    +0.258 C 
ATOM     16  O   UNL     1      -8.748  -4.715  -6.593  0.00  0.00    -0.296 OA
ENDBRANCH   9  15
ENDBRANCH   5   7
ENDBRANCH   1   3
BRANCH   1  17
ATOM     17  S   UNL     1      -2.646  -4.681  -0.673  0.00  0.00    -0.093 S 
BRANCH  17  27
ATOM     18  C   UNL     1       0.019   1.504  -0.007  0.00  0.00    +0.008 C 
ATOM     19  C   UNL     1       0.035  -0.026  -0.019  0.00  0.00    -0.009 C 
ATOM     20  C   UNL     1      -1.401  -0.555   0.008  0.00  0.00    +0.008 C 
ATOM     21  C   UNL     1      -1.404  -2.062  -0.253  0.00  0.00    +0.037 C 
ATOM     22  C   UNL     1      -0.441  -2.735   0.721  0.00  0.00    -0.025 A 
ATOM     23  C   UNL     1       0.512  -2.013   1.354  0.00  0.00    -0.004 A 
ATOM     24  S   UNL     1       1.385  -3.179   2.369  0.00  0.00    -0.073 S 
ATOM     25  C   UNL     1       0.475  -4.629   1.948  0.00  0.00    +0.113 A 
ATOM     26  C   UNL     1      -0.489  -4.156   1.021  0.00  0.00    +0.043 A 
ATOM     27  C   UNL     1      -1.394  -5.118   0.487  0.00  0.00    +0.109 A 
ATOM     28  N   UNL     1      -1.235  -6.368   0.921  0.00  0.00    -0.229 NA
ATOM     29  C   UNL     1      -0.313  -6.734   1.787  0.00  0.00    +0.223 A 
ATOM     30  N   UNL     1       0.560  -5.890   2.323  0.00  0.00    -0.228 NA
ATOM     31  C   UNL     1       0.777  -0.544   1.221  0.00  0.00    +0.046 C 
ENDBRANCH  17  27
ENDBRANCH   1  17
TORSDOF 6
