REMARK  Name = ZINC13659567
REMARK  9 active torsions:
REMARK  status: ('A' for Active; 'I' for Inactive)
REMARK    1  A    between atoms: C_1  and  C_2
REMARK    2  A    between atoms: C_6  and  C_8
REMARK    3  A    between atoms: C_8  and  O_9
REMARK    4  A    between atoms: O_9  and  C_10
REMARK    5  A    between atoms: C_11  and  O_28
REMARK    6  A    between atoms: C_13  and  C_17
REMARK    7  A    between atoms: N_18  and  N_19
REMARK    8  A    between atoms: C_20  and  C_21
REMARK    9  A    between atoms: O_28  and  C_29
REMARK                            x       y       z     vdW  Elec       q    Type
REMARK                         _______ _______ _______ _____ _____    ______ ____
ROOT
ATOM      1  C   UNL     1       5.216  -5.737   3.065  0.00  0.00    +0.176 A 
ATOM      2  C   UNL     1       5.619  -4.930   4.128  0.00  0.00    +0.163 A 
ATOM      3  C   UNL     1       5.364  -5.320   5.428  0.00  0.00    +0.059 A 
ATOM      4  C   UNL     1       4.700  -6.527   5.676  0.00  0.00    -0.001 A 
ATOM      5  C   UNL     1       4.298  -7.332   4.604  0.00  0.00    +0.028 A 
ATOM      6  C   UNL     1       4.552  -6.932   3.309  0.00  0.00    +0.064 A 
ATOM      7 BR   UNL     1       4.002  -8.017   1.861  0.00  0.00    -0.046 Br
ENDROOT
BRANCH   4   8
ATOM      8  C   UNL     1       4.426  -6.948   7.057  0.00  0.00    +0.140 C 
ATOM      9  N   UNL     1       3.805  -8.075   7.286  0.00  0.00    -0.180 NA
BRANCH   9  10
ATOM     10  N   UNL     1       3.564  -8.444   8.498  0.00  0.00    -0.263 N 
ATOM     11  C   UNL     1       2.940  -9.579   8.729  0.00  0.00    +0.143 C 
ATOM     12  N   UNL     1       2.542 -10.374   7.674  0.00  0.00    -0.342 N 
ATOM     13  H   UNL     1       2.608 -10.042   6.765  0.00  0.00    +0.144 HD
ATOM     14  H   UNL     1       2.197 -11.265   7.841  0.00  0.00    +0.144 HD
ATOM     15  H   UNL     1       3.844  -7.886   9.240  0.00  0.00    +0.190 HD
BRANCH  11  16
ATOM     16  C   UNL     1       2.665 -10.001  10.117  0.00  0.00    +0.187 A 
ATOM     17  C   UNL     1       1.647 -10.974  10.535  0.00  0.00    +0.191 A 
ATOM     18  N   UNL     1       1.700 -11.090  11.833  0.00  0.00    -0.033 NA
ATOM     19  O   UNL     1       2.719 -10.229  12.308  0.00  0.00    -0.240 OA
ATOM     20  N   UNL     1       3.290  -9.578  11.187  0.00  0.00    -0.044 NA
ATOM     21  N   UNL     1       0.777 -11.653   9.693  0.00  0.00    -0.339 N 
ATOM     22  H   UNL     1       0.730 -11.419   8.753  0.00  0.00    +0.144 HD
ATOM     23  H   UNL     1       0.216 -12.362  10.045  0.00  0.00    +0.144 HD
ENDBRANCH  11  16
ENDBRANCH   9  10
ENDBRANCH   4   8
BRANCH   2  24
ATOM     24  O   UNL     1       6.265  -3.758   3.884  0.00  0.00    -0.491 OA
ATOM     25  C   UNL     1       6.650  -2.981   5.020  0.00  0.00    +0.277 C 
ENDBRANCH   2  24
BRANCH   1  26
ATOM     26  O   UNL     1       5.468  -5.351   1.787  0.00  0.00    -0.483 OA
BRANCH  26  27
ATOM     27  C   UNL     1       4.472  -4.553   1.142  0.00  0.00    +0.264 C 
BRANCH  27  33
ATOM     28  C   UNL     1       6.877  -1.528  -2.037  0.00  0.00    +0.044 C 
ATOM     29  C   UNL     1       6.073  -2.775  -1.779  0.00  0.00    -0.050 A 
ATOM     30  C   UNL     1       5.747  -3.617  -2.826  0.00  0.00    +0.003 A 
ATOM     31  C   UNL     1       5.009  -4.762  -2.589  0.00  0.00    +0.001 A 
ATOM     32  C   UNL     1       4.596  -5.065  -1.305  0.00  0.00    +0.007 A 
ATOM     33  C   UNL     1       4.923  -4.223  -0.258  0.00  0.00    -0.010 A 
ATOM     34  C   UNL     1       5.665  -3.081  -0.494  0.00  0.00    +0.010 A 
ENDBRANCH  27  33
ENDBRANCH  26  27
ENDBRANCH   1  26
TORSDOF 7
