REMARK  Name = ZINC42562317
REMARK  11 active torsions:
REMARK  status: ('A' for Active; 'I' for Inactive)
REMARK    1  A    between atoms: C_1  and  C_2
REMARK    2  A    between atoms: C_2  and  C_3
REMARK    3  A    between atoms: C_2  and  C_4
REMARK    4  A    between atoms: C_4  and  N_5
REMARK    5  A    between atoms: N_5  and  C_6
REMARK    6  A    between atoms: N_5  and  C_19
REMARK    7  A    between atoms: C_6  and  C_7
REMARK    8  A    between atoms: N_9  and  C_10
REMARK    9  A    between atoms: C_11  and  N_18
REMARK   10  A    between atoms: C_19  and  C_20
REMARK   11  A    between atoms: C_19  and  C_21
REMARK                            x       y       z     vdW  Elec       q    Type
REMARK                         _______ _______ _______ _____ _____    ______ ____
ROOT
ATOM      1  C   UNL     1      -3.576   0.002  -3.658  0.00  0.00    +0.201 C 
ATOM      2  O   UNL     1      -2.505  -0.080  -4.223  0.00  0.00    -0.278 OA
ATOM      3  N   UNL     1      -4.717  -0.204  -4.345  0.00  0.00    -0.284 N 
ATOM      4  H   UNL     1      -5.573  -0.150  -3.890  0.00  0.00    +0.155 HD
ENDROOT
BRANCH   3   5
ATOM      5  C   UNL     1      -4.669  -0.497  -5.715  0.00  0.00    +0.073 A 
ATOM      6  C   UNL     1      -5.516   0.166  -6.602  0.00  0.00    +0.049 A 
ATOM      7  C   UNL     1      -5.463  -0.127  -7.957  0.00  0.00    +0.044 A 
ATOM      8  C   UNL     1      -4.571  -1.075  -8.425  0.00  0.00    +0.044 A 
ATOM      9  C   UNL     1      -3.730  -1.732  -7.545  0.00  0.00    +0.042 A 
ATOM     10  C   UNL     1      -3.773  -1.442  -6.193  0.00  0.00    +0.065 A 
ATOM     11 CL   UNL     1      -2.710  -2.264  -5.094  0.00  0.00    -0.082 Cl
ATOM     12 CL   UNL     1      -4.507  -1.440 -10.121  0.00  0.00    -0.083 Cl
BRANCH   6  13
ATOM     13  N   UNL     1      -6.419   1.124  -6.127  0.00  0.00    -0.356 N 
ATOM     14  H   UNL     1      -6.455   1.327  -5.179  0.00  0.00    +0.142 HD
ATOM     15  H   UNL     1      -7.008   1.584  -6.745  0.00  0.00    +0.142 HD
ENDBRANCH   6  13
ENDBRANCH   3   5
BRANCH   1  16
ATOM     16  C   UNL     1      -3.629   0.333  -2.189  0.00  0.00    +0.019 C 
BRANCH  16  17
ATOM     17  N   UNL     1      -2.262   0.466  -1.667  0.00  0.00    +0.387 N 
ATOM     18  H   UNL     1      -1.726  -0.352  -1.915  0.00  0.00    -0.081 HD
BRANCH  17  19
ATOM     19  C   UNL     1      -2.307   0.598  -0.205  0.00  0.00    -0.074 C 
ATOM     20  C   UNL     1      -3.392   1.604   0.184  0.00  0.00    -0.014 C 
ATOM     21  C   UNL     1      -2.624  -0.762   0.420  0.00  0.00    -0.014 C 
ENDBRANCH  17  19
BRANCH  17  22
ATOM     22  C   UNL     1      -1.631   1.659  -2.247  0.00  0.00    -0.075 C 
BRANCH  22  24
ATOM     23  C   UNL     1       0.600   0.540  -2.360  0.00  0.00    +0.005 C 
ATOM     24  C   UNL     1      -0.171   1.734  -1.795  0.00  0.00    -0.034 C 
ATOM     25  C   UNL     1       0.455   3.034  -2.306  0.00  0.00    +0.005 C 
ENDBRANCH  22  24
ENDBRANCH  17  22
ENDBRANCH  16  17
ENDBRANCH   1  16
TORSDOF 7
