REMARK  Name = ZINC35926430
REMARK  9 active torsions:
REMARK  status: ('A' for Active; 'I' for Inactive)
REMARK    1  A    between atoms: C_1  and  C_2
REMARK    2  A    between atoms: C_2  and  C_3
REMARK    3  A    between atoms: C_3  and  C_4
REMARK    4  A    between atoms: C_4  and  C_5
REMARK    5  A    between atoms: C_8  and  C_11
REMARK    6  A    between atoms: C_25  and  C_27
REMARK    7  A    between atoms: C_27  and  N_28
REMARK    8  A    between atoms: N_31  and  C_34
REMARK    9  A    between atoms: C_39  and  C_40
REMARK                            x       y       z     vdW  Elec       q    Type
REMARK                         _______ _______ _______ _____ _____    ______ ____
ROOT
ATOM      1  C   UNL     1       3.061  -6.145  -5.322  0.00  0.00    +0.247 C 
ATOM      2  O   UNL     1       2.515  -5.648  -4.356  0.00  0.00    -0.270 OA
ATOM      3  N   UNL     1       4.373  -6.452  -5.269  0.00  0.00    -0.295 N 
ATOM      4  C   UNL     1       5.076  -6.935  -6.466  0.00  0.00    +0.127 C 
ATOM      5  C   UNL     1       6.287  -6.029  -6.722  0.00  0.00    +0.127 C 
ATOM      6  N   UNL     1       7.040  -5.887  -5.467  0.00  0.00    -0.298 N 
ATOM      7  C   UNL     1       6.337  -5.404  -4.271  0.00  0.00    +0.127 C 
ATOM      8  C   UNL     1       5.127  -6.304  -4.017  0.00  0.00    +0.127 C 
ATOM      9  C   UNL     1       8.372  -6.199  -5.415  0.00  0.00    +0.198 A 
ATOM     10  N   UNL     1       9.027  -6.528  -6.560  0.00  0.00    -0.295 N 
ATOM     11  H   UNL     1       8.552  -6.541  -7.406  0.00  0.00    +0.172 HD
ATOM     12  C   UNL     1      10.341  -6.836  -6.516  0.00  0.00    +0.253 A 
ATOM     13  O   UNL     1      10.944  -7.133  -7.534  0.00  0.00    -0.268 OA
ATOM     14  C   UNL     1      11.000  -6.808  -5.275  0.00  0.00    +0.091 A 
ATOM     15  C   UNL     1      10.291  -6.470  -4.159  0.00  0.00    +0.034 A 
ATOM     16  N   UNL     1       8.998  -6.170  -4.255  0.00  0.00    -0.223 NA
ENDROOT
BRANCH   1  20
ATOM     17  C   UNL     1       0.840  -6.912  -8.860  0.00  0.00    -0.047 A 
ATOM     18  C   UNL     1       0.524  -5.819  -8.072  0.00  0.00    +0.004 A 
ATOM     19  C   UNL     1       1.242  -5.565  -6.921  0.00  0.00    +0.013 A 
ATOM     20  C   UNL     1       2.288  -6.412  -6.553  0.00  0.00    +0.037 A 
ATOM     21  C   UNL     1       2.601  -7.513  -7.352  0.00  0.00    +0.013 A 
ATOM     22  C   UNL     1       1.872  -7.760  -8.497  0.00  0.00    +0.004 A 
BRANCH  17  23
ATOM     23  C   UNL     1       0.051  -7.185 -10.115  0.00  0.00    +0.035 C 
BRANCH  23  24
ATOM     24  C   UNL     1      -1.142  -8.082  -9.783  0.00  0.00    +0.004 C 
BRANCH  24  26
ATOM     25  C   UNL     1      -3.136  -9.256 -10.725  0.00  0.00    +0.004 C 
ATOM     26  C   UNL     1      -1.942  -8.359 -11.057  0.00  0.00    -0.003 C 
ENDBRANCH  24  26
ENDBRANCH  23  24
ENDBRANCH  17  23
ENDBRANCH   1  20
BRANCH  15  27
ATOM     27  C   UNL     1      10.975  -6.432  -2.816  0.00  0.00    -0.022 C 
BRANCH  27  28
ATOM     28  N   UNL     1      10.982  -5.054  -2.309  0.00  0.00    +0.385 N 
ATOM     29  C   UNL     1       9.602  -4.616  -2.067  0.00  0.00    -0.059 C 
ATOM     30  C   UNL     1       9.601  -3.142  -1.648  0.00  0.00    +0.086 C 
ATOM     31  N   UNL     1      10.500  -2.984  -0.494  0.00  0.00    -0.333 N 
ATOM     32  C   UNL     1      11.857  -3.542  -0.591  0.00  0.00    +0.086 C 
ATOM     33  C   UNL     1      11.752  -4.997  -1.060  0.00  0.00    -0.059 C 
ATOM     34  H   UNL     1      11.409  -4.447  -2.994  0.00  0.00    -0.081 HD
BRANCH  31  35
ATOM     35  C   UNL     1      10.076  -2.323   0.661  0.00  0.00    +0.033 A 
ATOM     36  C   UNL     1       9.474  -3.036   1.690  0.00  0.00    +0.023 A 
ATOM     37  C   UNL     1       9.057  -2.380   2.831  0.00  0.00    +0.002 A 
ATOM     38  C   UNL     1       9.238  -1.014   2.950  0.00  0.00    +0.000 A 
ATOM     39  C   UNL     1       9.836  -0.301   1.928  0.00  0.00    +0.005 A 
ATOM     40  C   UNL     1      10.261  -0.952   0.786  0.00  0.00    -0.029 A 
ATOM     41  C   UNL     1      10.920  -0.176  -0.325  0.00  0.00    +0.045 C 
ENDBRANCH  31  35
ENDBRANCH  27  28
ENDBRANCH  15  27
TORSDOF 7
