REMARK  Name = ZINC36601569
REMARK  9 active torsions:
REMARK  status: ('A' for Active; 'I' for Inactive)
REMARK    1  A    between atoms: C_1  and  C_2
REMARK    2  A    between atoms: C_2  and  C_3
REMARK    3  A    between atoms: C_6  and  S_9
REMARK    4  A    between atoms: S_9  and  C_12
REMARK    5  A    between atoms: C_19  and  N_21
REMARK    6  A    between atoms: C_26  and  O_33
REMARK    7  A    between atoms: C_27  and  O_31
REMARK    8  A    between atoms: O_31  and  C_32
REMARK    9  A    between atoms: O_33  and  C_34
REMARK                            x       y       z     vdW  Elec       q    Type
REMARK                         _______ _______ _______ _____ _____    ______ ____
ROOT
ATOM      1  C   UNL     1      -6.732  -0.518  -0.096  0.00  0.00    +0.175 C 
ATOM      2  C   UNL     1      -6.545   0.412  -1.327  0.00  0.00    +0.194 C 
ATOM      3  S   UNL     1      -8.149   1.324  -1.270  0.00  0.00    -0.028 S 
ATOM      4  O   UNL     1      -8.062   2.364  -0.305  0.00  0.00    -0.174 OA
ATOM      5  O   UNL     1      -8.561   1.629  -2.596  0.00  0.00    -0.174 OA
ATOM      6  C   UNL     1      -9.200  -0.033  -0.605  0.00  0.00    +0.186 C 
ATOM      7  C   UNL     1      -8.171  -1.026  -0.032  0.00  0.00    +0.104 C 
ENDROOT
BRANCH   7   8
ATOM      8  N   UNL     1      -8.260  -2.284  -0.784  0.00  0.00    -0.291 NA
ATOM      9  C   UNL     1      -8.232  -2.035  -2.234  0.00  0.00    +0.090 C 
ATOM     10  C   UNL     1      -7.958  -3.358  -2.949  0.00  0.00    +0.051 C 
ATOM     11  C   UNL     1      -8.903  -4.420  -2.448  0.00  0.00    -0.038 A 
ATOM     12  C   UNL     1      -9.062  -5.572  -3.204  0.00  0.00    +0.053 A 
ATOM     13  C   UNL     1      -9.916  -6.574  -2.781  0.00  0.00    +0.162 A 
ATOM     14  C   UNL     1     -10.618  -6.424  -1.588  0.00  0.00    +0.162 A 
ATOM     15  C   UNL     1     -10.457  -5.272  -0.839  0.00  0.00    +0.054 A 
ATOM     16  C   UNL     1      -9.601  -4.268  -1.268  0.00  0.00    -0.026 A 
ATOM     17  C   UNL     1      -9.470  -3.030  -0.421  0.00  0.00    +0.120 C 
BRANCH  14  18
ATOM     18  O   UNL     1     -11.458  -7.404  -1.162  0.00  0.00    -0.491 OA
ATOM     19  C   UNL     1     -12.144  -7.180   0.071  0.00  0.00    +0.277 C 
ENDBRANCH  14  18
BRANCH  13  20
ATOM     20  O   UNL     1     -10.069  -7.701  -3.526  0.00  0.00    -0.491 OA
ATOM     21  C   UNL     1      -9.317  -7.785  -4.739  0.00  0.00    +0.277 C 
ENDBRANCH  13  20
ENDBRANCH   7   8
BRANCH   1  22
ATOM     22  S   UNL     1      -5.602  -1.930  -0.234  0.00  0.00    +0.003 S 
ATOM     23  O   UNL     1      -5.650  -2.469  -1.548  0.00  0.00    -0.169 OA
ATOM     24  O   UNL     1      -5.735  -2.776   0.900  0.00  0.00    -0.169 OA
BRANCH  22  28
ATOM     25  C   UNL     1      -1.457  -0.148   0.133  0.00  0.00    -0.048 A 
ATOM     26  C   UNL     1      -2.131  -0.568   1.264  0.00  0.00    +0.005 A 
ATOM     27  C   UNL     1      -3.397  -1.112   1.152  0.00  0.00    +0.027 A 
ATOM     28  C   UNL     1      -3.989  -1.236  -0.091  0.00  0.00    +0.089 A 
ATOM     29  C   UNL     1      -3.315  -0.815  -1.222  0.00  0.00    +0.027 A 
ATOM     30  C   UNL     1      -2.051  -0.267  -1.110  0.00  0.00    +0.005 A 
BRANCH  25  32
ATOM     31  C   UNL     1      -0.188   1.959   0.447  0.00  0.00    +0.009 C 
ATOM     32  C   UNL     1      -0.077   0.445   0.255  0.00  0.00    +0.032 C 
ENDBRANCH  25  32
ENDBRANCH  22  28
ENDBRANCH   1  22
TORSDOF 6
