REMARK  Name = ZINC36155584
REMARK  12 active torsions:
REMARK  status: ('A' for Active; 'I' for Inactive)
REMARK    1  A    between atoms: C_1  and  C_2
REMARK    2  A    between atoms: C_2  and  O_3
REMARK    3  A    between atoms: O_3  and  C_4
REMARK    4  A    between atoms: C_4  and  C_6
REMARK    5  A    between atoms: C_7  and  C_22
REMARK    6  A    between atoms: C_12  and  C_14
REMARK    7  A    between atoms: C_17  and  O_20
REMARK    8  A    between atoms: O_20  and  C_21
REMARK    9  A    between atoms: C_22  and  N_23
REMARK   10  A    between atoms: N_26  and  C_31
REMARK   11  A    between atoms: C_27  and  C_30
REMARK   12  A    between atoms: C_35  and  C_37
REMARK                            x       y       z     vdW  Elec       q    Type
REMARK                         _______ _______ _______ _____ _____    ______ ____
ROOT
ATOM      1  C   UNL     1      -3.542  -2.587   0.160  0.00  0.00    +0.079 C 
ATOM      2  C   UNL     1      -3.451  -3.915  -0.067  0.00  0.00    +0.038 C 
ATOM      3  N   UNL     1      -4.571  -4.684  -0.203  0.00  0.00    -0.271 N 
ATOM      4  C   UNL     1      -5.818  -4.201  -0.126  0.00  0.00    +0.304 C 
ATOM      5  O   UNL     1      -6.754  -4.965  -0.261  0.00  0.00    -0.252 OA
ATOM      6  N   UNL     1      -6.069  -2.896   0.096  0.00  0.00    -0.288 N 
ATOM      7  C   UNL     1      -4.927  -1.981   0.264  0.00  0.00    +0.144 C 
ATOM      8  H   UNL     1      -4.458  -5.634  -0.365  0.00  0.00    +0.156 HD
ATOM      9  H   UNL     1      -6.980  -2.567   0.148  0.00  0.00    +0.151 HD
ENDROOT
BRANCH   7  10
ATOM     10  C   UNL     1      -5.046  -1.324   1.614  0.00  0.00    -0.022 A 
ATOM     11  C   UNL     1      -5.308  -2.091   2.734  0.00  0.00    +0.009 A 
ATOM     12  C   UNL     1      -5.419  -1.490   3.974  0.00  0.00    +0.046 A 
ATOM     13  C   UNL     1      -5.266  -0.116   4.093  0.00  0.00    +0.120 A 
ATOM     14  C   UNL     1      -5.003   0.651   2.968  0.00  0.00    +0.046 A 
ATOM     15  C   UNL     1      -4.889   0.045   1.732  0.00  0.00    +0.009 A 
BRANCH  13  16
ATOM     16  O   UNL     1      -5.375   0.477   5.311  0.00  0.00    -0.495 OA
ATOM     17  C   UNL     1      -5.207   1.895   5.359  0.00  0.00    +0.277 C 
ENDBRANCH  13  16
ENDBRANCH   7  10
BRANCH   1  18
ATOM     18  C   UNL     1      -2.382  -1.789   0.301  0.00  0.00    +0.339 C 
ATOM     19  O   UNL     1      -1.984  -1.485   1.411  0.00  0.00    -0.245 OA
BRANCH  18  20
ATOM     20  O   UNL     1      -1.718  -1.364  -0.793  0.00  0.00    -0.462 OA
BRANCH  20  22
ATOM     21  C   UNL     1       0.059  -0.178  -1.924  0.00  0.00    +0.048 C 
ATOM     22  C   UNL     1      -0.555  -0.561  -0.576  0.00  0.00    +0.229 C 
ENDBRANCH  20  22
ENDBRANCH  18  20
ENDBRANCH   1  18
BRANCH   2  23
ATOM     23  C   UNL     1      -2.093  -4.558  -0.172  0.00  0.00    +0.136 C 
BRANCH  23  24
ATOM     24  N   UNL     1      -1.922  -5.523   0.923  0.00  0.00    -0.294 NA
ATOM     25  C   UNL     1      -1.895  -4.843   2.224  0.00  0.00    +0.103 C 
ATOM     26  C   UNL     1      -1.898  -5.889   3.344  0.00  0.00    +0.121 C 
ATOM     27  N   UNL     1      -0.790  -6.827   3.110  0.00  0.00    -0.325 N 
ATOM     28  C   UNL     1      -0.672  -7.446   1.781  0.00  0.00    +0.084 C 
ATOM     29  C   UNL     1      -0.717  -6.338   0.723  0.00  0.00    +0.107 C 
ATOM     30  C   UNL     1       0.654  -8.203   1.682  0.00  0.00    +0.029 C 
BRANCH  27  31
ATOM     31  C   UNL     1       0.125  -7.123   4.122  0.00  0.00    +0.030 A 
ATOM     32  C   UNL     1       1.032  -6.159   4.544  0.00  0.00    +0.023 A 
ATOM     33  C   UNL     1       1.936  -6.455   5.546  0.00  0.00    +0.002 A 
ATOM     34  C   UNL     1       1.938  -7.709   6.129  0.00  0.00    +0.003 A 
ATOM     35  C   UNL     1       1.037  -8.671   5.711  0.00  0.00    -0.049 A 
ATOM     36  C   UNL     1       0.127  -8.380   4.714  0.00  0.00    +0.026 A 
ATOM     37  C   UNL     1       1.044 -10.036   6.348  0.00  0.00    +0.044 C 
ENDBRANCH  27  31
ENDBRANCH  23  24
ENDBRANCH   2  23
TORSDOF 8
