REMARK  Name = ZINC23357348
REMARK  7 active torsions:
REMARK  status: ('A' for Active; 'I' for Inactive)
REMARK    1  A    between atoms: C_1  and  C_2
REMARK    2  A    between atoms: C_2  and  C_4
REMARK    3  A    between atoms: C_2  and  N_18
REMARK    4  A    between atoms: N_6  and  C_7
REMARK    5  A    between atoms: C_8  and  C_15
REMARK    6  A    between atoms: N_21  and  C_24
REMARK    7  A    between atoms: C_24  and  C_25
REMARK                            x       y       z     vdW  Elec       q    Type
REMARK                         _______ _______ _______ _____ _____    ______ ____
ROOT
ATOM      1  C   UNL     1       5.182  -3.247  -5.650  0.00  0.00    +0.204 C 
ATOM      2  O   UNL     1       4.333  -3.856  -5.034  0.00  0.00    -0.277 OA
ATOM      3  N   UNL     1       5.519  -3.636  -6.896  0.00  0.00    -0.281 N 
ATOM      4  H   UNL     1       6.289  -3.083  -7.455  0.00  0.00    +0.155 HD
ENDROOT
BRANCH   3   5
ATOM      5  C   UNL     1       4.896  -4.732  -7.473  0.00  0.00    +0.084 A 
ATOM      6  C   UNL     1       5.100  -5.275  -8.729  0.00  0.00    +0.068 A 
ATOM      7  C   UNL     1       4.308  -6.448  -9.097  0.00  0.00    -0.023 A 
ATOM      8  C   UNL     1       3.444  -6.872  -8.157  0.00  0.00    -0.004 A 
ATOM      9  S   UNL     1       3.669  -5.749  -6.798  0.00  0.00    -0.077 S 
ATOM     10  C   UNL     1       2.665  -8.077  -8.608  0.00  0.00    +0.043 C 
ATOM     11  C   UNL     1       3.463  -8.628  -9.811  0.00  0.00    +0.010 C 
ATOM     12  C   UNL     1       4.183  -7.362 -10.317  0.00  0.00    +0.037 C 
BRANCH   6  13
ATOM     13  C   UNL     1       6.079  -4.698  -9.657  0.00  0.00    +0.244 C 
ATOM     14  O   UNL     1       7.231  -5.090  -9.648  0.00  0.00    -0.270 OA
ATOM     15  N   UNL     1       5.702  -3.733 -10.519  0.00  0.00    -0.325 N 
ATOM     16  H   UNL     1       6.436  -3.300 -11.215  0.00  0.00    +0.145 HD
ATOM     17  H   UNL     1       4.660  -3.379 -10.527  0.00  0.00    +0.145 HD
ENDBRANCH   6  13
ENDBRANCH   3   5
BRANCH   1  19
ATOM     18  C   UNL     1       7.287  -2.432  -4.625  0.00  0.00    -0.004 C 
ATOM     19  C   UNL     1       5.859  -2.055  -5.024  0.00  0.00    +0.017 C 
BRANCH  19  20
ATOM     20  N   UNL     1       5.111  -1.638  -3.830  0.00  0.00    +0.389 N 
ATOM     21  C   UNL     1       5.296  -2.597  -2.732  0.00  0.00    -0.062 C 
ATOM     22  C   UNL     1       4.440  -2.170  -1.537  0.00  0.00    +0.066 C 
ATOM     23  N   UNL     1       4.825  -0.815  -1.120  0.00  0.00    -0.301 NA
ATOM     24  C   UNL     1       4.641   0.143  -2.219  0.00  0.00    +0.066 C 
ATOM     25  C   UNL     1       5.497  -0.283  -3.413  0.00  0.00    -0.062 C 
ATOM     26  H   UNL     1       4.042  -1.622  -4.091  0.00  0.00    -0.081 HD
BRANCH  23  27
ATOM     27  C   UNL     1       4.077  -0.398   0.074  0.00  0.00    +0.126 C 
BRANCH  27  28
ATOM     28  C   UNL     1       4.665   0.880   0.614  0.00  0.00    +0.005 A 
ATOM     29  C   UNL     1       4.343   2.161   0.315  0.00  0.00    +0.014 A 
ATOM     30  C   UNL     1       5.024   3.189   0.941  0.00  0.00    +0.028 A 
ATOM     31  C   UNL     1       5.995   2.883   1.837  0.00  0.00    +0.078 A 
ATOM     32  S   UNL     1       5.968   1.098   1.815  0.00  0.00    -0.080 S 
ATOM     33 CL   UNL     1       7.008   3.950   2.759  0.00  0.00    -0.076 Cl
ENDBRANCH  27  28
ENDBRANCH  23  27
ENDBRANCH  19  20
ENDBRANCH   1  19
TORSDOF 6
