REMARK  Name = ZINC19900779
REMARK  7 active torsions:
REMARK  status: ('A' for Active; 'I' for Inactive)
REMARK    1  A    between atoms: C_1  and  O_2
REMARK    2  A    between atoms: O_2  and  C_3
REMARK    3  A    between atoms: C_5  and  C_18
REMARK    4  A    between atoms: C_8  and  O_9
REMARK    5  A    between atoms: O_9  and  C_10
REMARK    6  A    between atoms: C_10  and  C_11
REMARK    7  A    between atoms: C_23  and  C_24
REMARK                            x       y       z     vdW  Elec       q    Type
REMARK                         _______ _______ _______ _____ _____    ______ ____
ROOT
ATOM      1  C   UNL     1      -3.690   6.418  -3.168  0.00  0.00    +0.162 A 
ATOM      2  C   UNL     1      -3.369   5.091  -2.952  0.00  0.00    +0.058 A 
ATOM      3  C   UNL     1      -2.031   4.710  -2.836  0.00  0.00    -0.013 A 
ATOM      4  C   UNL     1      -1.023   5.668  -2.950  0.00  0.00    +0.012 A 
ATOM      5  C   UNL     1      -1.349   6.989  -3.171  0.00  0.00    +0.050 A 
ATOM      6  C   UNL     1      -2.679   7.370  -3.280  0.00  0.00    +0.162 A 
ENDROOT
BRANCH   3   7
ATOM      7  C   UNL     1      -1.683   3.290  -2.600  0.00  0.00    +0.008 A 
ATOM      8  C   UNL     1      -1.058   2.896  -1.405  0.00  0.00    -0.017 A 
ATOM      9  C   UNL     1      -0.727   1.578  -1.225  0.00  0.00    +0.047 A 
ATOM     10  N   UNL     1      -1.026   0.671  -2.152  0.00  0.00    -0.236 NA
ATOM     11  C   UNL     1      -1.625   0.977  -3.287  0.00  0.00    +0.135 A 
ATOM     12  C   UNL     1      -1.970   2.310  -3.568  0.00  0.00    +0.099 A 
ATOM     13  N   UNL     1      -1.914  -0.019  -4.204  0.00  0.00    -0.342 N 
ATOM     14  C   UNL     1      -0.013   1.086   0.008  0.00  0.00    +0.056 C 
ATOM     15  C   UNL     1      -0.714   1.572   1.279  0.00  0.00    +0.006 C 
ATOM     16  C   UNL     1      -0.043   2.873   1.712  0.00  0.00    +0.001 C 
ATOM     17  C   UNL     1       0.421   3.648   0.478  0.00  0.00    +0.005 C 
ATOM     18  C   UNL     1      -0.805   3.969  -0.376  0.00  0.00    +0.037 C 
ATOM     19  H   UNL     1      -2.413   0.234  -5.151  0.00  0.00    +0.144 HD
ATOM     20  H   UNL     1      -1.644  -1.062  -3.986  0.00  0.00    +0.144 HD
BRANCH  12  21
ATOM     21  C   UNL     1      -2.597   2.661  -4.806  0.00  0.00    +0.103 C 
ATOM     22  N   UNL     1      -3.094   2.940  -5.789  0.00  0.00    -0.191 NA
ENDBRANCH  12  21
ENDBRANCH   3   7
BRANCH   1  24
ATOM     23  C   UNL     1      -5.977   5.765  -3.151  0.00  0.00    +0.277 C 
ATOM     24  O   UNL     1      -4.993   6.794  -3.276  0.00  0.00    -0.491 OA
ENDBRANCH   1  24
BRANCH   6  25
ATOM     25  O   UNL     1      -2.996   8.674  -3.498  0.00  0.00    -0.484 OA
BRANCH  25  26
ATOM     26  C   UNL     1      -1.909   9.596  -3.603  0.00  0.00    +0.266 C 
BRANCH  26  27
ATOM     27  C   UNL     1      -2.450  10.983  -3.842  0.00  0.00    +0.008 A 
ATOM     28  C   UNL     1      -3.814  11.187  -3.932  0.00  0.00    +0.008 A 
ATOM     29  C   UNL     1      -4.309  12.460  -4.146  0.00  0.00    +0.000 A 
ATOM     30  C   UNL     1      -3.441  13.527  -4.282  0.00  0.00    +0.001 A 
ATOM     31  C   UNL     1      -2.076  13.323  -4.198  0.00  0.00    +0.020 A 
ATOM     32  C   UNL     1      -1.580  12.050  -3.978  0.00  0.00    +0.047 A 
ATOM     33 CL   UNL     1       0.134  11.793  -3.873  0.00  0.00    -0.083 Cl
ENDBRANCH  26  27
ENDBRANCH  25  26
ENDBRANCH   6  25
TORSDOF 6
