REMARK  Name = ZINC60241086
REMARK  9 active torsions:
REMARK  status: ('A' for Active; 'I' for Inactive)
REMARK    1  A    between atoms: C_1  and  N_2
REMARK    2  A    between atoms: N_2  and  C_3
REMARK    3  A    between atoms: N_2  and  S_19
REMARK    4  A    between atoms: C_3  and  C_4
REMARK    5  A    between atoms: N_6  and  C_7
REMARK    6  A    between atoms: C_7  and  C_9
REMARK    7  A    between atoms: C_7  and  C_16
REMARK    8  A    between atoms: C_9  and  C_10
REMARK    9  A    between atoms: S_19  and  C_22
REMARK                            x       y       z     vdW  Elec       q    Type
REMARK                         _______ _______ _______ _____ _____    ______ ____
ROOT
ATOM      1  C   UNL     1      -1.384  -0.909   1.776  0.00  0.00    +0.229 C 
ATOM      2  O   UNL     1      -2.315  -0.455   1.145  0.00  0.00    -0.274 OA
ATOM      3  N   UNL     1      -1.610  -1.563   2.933  0.00  0.00    -0.303 N 
ATOM      4  H   UNL     1      -0.866  -1.926   3.438  0.00  0.00    +0.150 HD
ENDROOT
BRANCH   1   5
ATOM      5  C   UNL     1       0.024  -0.743   1.267  0.00  0.00    +0.204 C 
BRANCH   5   7
ATOM      6  C   UNL     1      -0.018   1.461   0.010  0.00  0.00    +0.132 C 
ATOM      7  N   UNL     1       0.002  -0.004   0.002  0.00  0.00    -0.170 NA
BRANCH   7   8
ATOM      8  S   UNL     1      -0.000  -0.824  -1.437  0.00  0.00    +0.067 S 
ATOM      9  O   UNL     1      -0.531  -2.115  -1.167  0.00  0.00    -0.152 OA
ATOM     10  O   UNL     1      -0.572   0.049  -2.401  0.00  0.00    -0.152 OA
BRANCH   8  11
ATOM     11  C   UNL     1       1.682  -1.059  -1.905  0.00  0.00    +0.144 A 
ATOM     12  C   UNL     1       2.512  -2.090  -1.615  0.00  0.00    +0.038 A 
ATOM     13  C   UNL     1       3.809  -2.063  -2.095  0.00  0.00    +0.030 A 
ATOM     14  C   UNL     1       4.210  -1.004  -2.842  0.00  0.00    +0.080 A 
ATOM     15  S   UNL     1       2.732  -0.005  -2.891  0.00  0.00    -0.057 S 
ATOM     16 CL   UNL     1       5.758  -0.703  -3.568  0.00  0.00    -0.076 Cl
ENDBRANCH   8  11
ENDBRANCH   7   8
ENDBRANCH   5   7
ENDBRANCH   1   5
BRANCH   3  17
ATOM     17  C   UNL     1      -2.979  -1.724   3.429  0.00  0.00    +0.163 C 
BRANCH  17  18
ATOM     18  C   UNL     1      -3.378  -0.499   4.210  0.00  0.00    +0.231 C 
ATOM     19  O   UNL     1      -2.596   0.419   4.341  0.00  0.00    -0.274 OA
ATOM     20  N   UNL     1      -4.604  -0.423   4.764  0.00  0.00    -0.328 N 
ATOM     21  H   UNL     1      -5.230  -1.156   4.660  0.00  0.00    +0.145 HD
ATOM     22  H   UNL     1      -4.861   0.366   5.268  0.00  0.00    +0.145 HD
ENDBRANCH  17  18
BRANCH  17  23
ATOM     23  C   UNL     1      -3.052  -2.954   4.336  0.00  0.00    +0.067 C 
BRANCH  23  24
ATOM     24  C   UNL     1      -2.773  -4.193   3.525  0.00  0.00    -0.045 A 
ATOM     25  C   UNL     1      -3.812  -4.865   2.910  0.00  0.00    +0.004 A 
ATOM     26  C   UNL     1      -3.556  -6.002   2.166  0.00  0.00    +0.000 A 
ATOM     27  C   UNL     1      -2.260  -6.466   2.037  0.00  0.00    +0.000 A 
ATOM     28  C   UNL     1      -1.221  -5.794   2.652  0.00  0.00    +0.000 A 
ATOM     29  C   UNL     1      -1.476  -4.654   3.392  0.00  0.00    +0.004 A 
ENDBRANCH  23  24
ENDBRANCH  17  23
ENDBRANCH   3  17
TORSDOF 8
