REMARK  Name = ZINC02031169
REMARK  12 active torsions:
REMARK  status: ('A' for Active; 'I' for Inactive)
REMARK    1  A    between atoms: C_1  and  C_2
REMARK    2  A    between atoms: C_2  and  C_3
REMARK    3  A    between atoms: C_2  and  C_4
REMARK    4  A    between atoms: C_2  and  C_5
REMARK    5  A    between atoms: C_7  and  C_15
REMARK    6  A    between atoms: C_9  and  C_11
REMARK    7  A    between atoms: C_11  and  C_12
REMARK    8  A    between atoms: C_11  and  C_13
REMARK    9  A    between atoms: C_11  and  C_14
REMARK   10  A    between atoms: C_15  and  O_17
REMARK   11  A    between atoms: O_17  and  C_18
REMARK   12  A    between atoms: C_21  and  C_24
REMARK                            x       y       z     vdW  Elec       q    Type
REMARK                         _______ _______ _______ _____ _____    ______ ____
ROOT
ATOM      1  C   UNL     1       0.315   1.677  -0.869  0.00  0.00    +0.132 A 
ATOM      2  C   UNL     1       1.205   1.337  -1.883  0.00  0.00    +0.047 A 
ATOM      3  C   UNL     1       2.294   0.560  -1.607  0.00  0.00    +0.011 A 
ATOM      4  C   UNL     1       2.514   0.106  -0.297  0.00  0.00    -0.024 A 
ATOM      5  C   UNL     1       1.613   0.453   0.720  0.00  0.00    +0.011 A 
ATOM      6  C   UNL     1       0.527   1.230   0.431  0.00  0.00    +0.047 A 
ENDROOT
BRANCH   4   7
ATOM      7  C   UNL     1       3.679  -0.725   0.006  0.00  0.00    +0.026 C 
ATOM      8  C   UNL     1       4.003  -1.786  -0.817  0.00  0.00    +0.100 C 
ATOM      9  C   UNL     1       3.089  -2.243  -1.883  0.00  0.00    +0.255 C 
ATOM     10  O   UNL     1       2.019  -1.694  -2.066  0.00  0.00    -0.270 OA
ATOM     11  N   UNL     1       3.476  -3.282  -2.651  0.00  0.00    -0.263 N 
ATOM     12  C   UNL     1       4.649  -3.900  -2.456  0.00  0.00    +0.143 C 
ATOM     13  S   UNL     1       5.051  -5.215  -3.476  0.00  0.00    -0.018 S 
ATOM     14  N   UNL     1       5.525  -3.544  -1.506  0.00  0.00    -0.263 N 
ATOM     15  C   UNL     1       5.277  -2.519  -0.666  0.00  0.00    +0.255 C 
ATOM     16  O   UNL     1       6.080  -2.205   0.192  0.00  0.00    -0.270 OA
ATOM     17  H   UNL     1       2.889  -3.592  -3.359  0.00  0.00    +0.157 HD
ATOM     18  H   UNL     1       6.356  -4.036  -1.421  0.00  0.00    +0.157 HD
ENDBRANCH   4   7
BRANCH   1  19
ATOM     19  O   UNL     1      -0.768   2.445  -1.151  0.00  0.00    -0.422 OA
BRANCH  19  20
ATOM     20  C   UNL     1      -0.789   3.689  -0.633  0.00  0.00    +0.344 C 
ATOM     21  O   UNL     1       0.094   4.047   0.121  0.00  0.00    -0.245 OA
BRANCH  20  24
ATOM     22  C   UNL     1      -2.933   6.767  -0.778  0.00  0.00    -0.041 A 
ATOM     23  C   UNL     1      -1.908   5.906  -0.448  0.00  0.00    +0.019 A 
ATOM     24  C   UNL     1      -1.884   4.616  -0.982  0.00  0.00    +0.060 A 
ATOM     25  C   UNL     1      -2.897   4.210  -1.853  0.00  0.00    +0.019 A 
ATOM     26  C   UNL     1      -3.919   5.079  -2.171  0.00  0.00    -0.041 A 
ATOM     27  C   UNL     1      -3.937   6.356  -1.637  0.00  0.00    +0.008 A 
BRANCH  22  29
ATOM     28  C   UNL     1      -1.748   8.359   0.709  0.00  0.00    +0.015 C 
ATOM     29  C   UNL     1      -2.961   8.160  -0.202  0.00  0.00    -0.013 C 
ATOM     30  C   UNL     1      -2.918   9.183  -1.339  0.00  0.00    +0.015 C 
ATOM     31  C   UNL     1      -4.244   8.351   0.608  0.00  0.00    +0.015 C 
ENDBRANCH  22  29
BRANCH  26  32
ATOM     32  C   UNL     1      -5.017   4.640  -3.105  0.00  0.00    -0.013 C 
ATOM     33  C   UNL     1      -5.039   5.554  -4.332  0.00  0.00    +0.015 C 
ATOM     34  C   UNL     1      -4.763   3.197  -3.548  0.00  0.00    +0.015 C 
ATOM     35  C   UNL     1      -6.364   4.722  -2.384  0.00  0.00    +0.015 C 
ENDBRANCH  26  32
ENDBRANCH  20  24
ENDBRANCH  19  20
ENDBRANCH   1  19
TORSDOF 6
