REMARK  Name = ZINC08418001
REMARK  7 active torsions:
REMARK  status: ('A' for Active; 'I' for Inactive)
REMARK    1  A    between atoms: C_3  and  C_9
REMARK    2  A    between atoms: C_9  and  N_36
REMARK    3  A    between atoms: C_10  and  C_11
REMARK    4  A    between atoms: C_10  and  N_36
REMARK    5  A    between atoms: C_11  and  N_12
REMARK    6  A    between atoms: N_12  and  C_13
REMARK    7  A    between atoms: C_16  and  N_19
REMARK                            x       y       z     vdW  Elec       q    Type
REMARK                         _______ _______ _______ _____ _____    ______ ____
ROOT
ATOM      1  C   UNL     1       2.263  -4.298  -0.042  0.00  0.00    -0.063 C 
ENDROOT
BRANCH   1   2
ATOM      2  N   UNL     1       3.556  -5.006  -0.058  0.00  0.00    +0.383 N 
ATOM      3  H   UNL     1       4.079  -4.739  -0.900  0.00  0.00    -0.085 HD
ATOM      4  H   UNL     1       4.095  -4.747   0.777  0.00  0.00    -0.085 HD
BRANCH   2   5
ATOM      5  C   UNL     1       3.341  -6.466  -0.063  0.00  0.00    -0.045 C 
BRANCH   5   8
ATOM      6  C   UNL     1       6.383  -8.402   1.054  0.00  0.00    +0.002 A 
ATOM      7  C   UNL     1       5.157  -7.763   1.069  0.00  0.00    +0.003 A 
ATOM      8  C   UNL     1       4.677  -7.162  -0.080  0.00  0.00    -0.045 A 
ATOM      9  C   UNL     1       5.419  -7.207  -1.246  0.00  0.00    +0.061 A 
ATOM     10  C   UNL     1       6.649  -7.843  -1.259  0.00  0.00    +0.059 A 
ATOM     11  C   UNL     1       7.129  -8.443  -0.109  0.00  0.00    +0.021 A 
ATOM     12 CL   UNL     1       7.585  -7.893  -2.720  0.00  0.00    -0.082 Cl
ATOM     13 CL   UNL     1       4.813  -6.459  -2.691  0.00  0.00    -0.082 Cl
ENDBRANCH   5   8
ENDBRANCH   2   5
ENDBRANCH   1   2
BRANCH   1  14
ATOM     14  C   UNL     1       2.518  -2.789  -0.037  0.00  0.00    +0.082 C 
BRANCH  14  15
ATOM     15  N   UNL     1       1.238  -2.077  -0.021  0.00  0.00    -0.346 N 
ATOM     16  H   UNL     1       0.406  -2.576  -0.015  0.00  0.00    +0.146 HD
BRANCH  15  17
ATOM     17  C   UNL     1       1.215  -0.681  -0.013  0.00  0.00    +0.027 A 
ATOM     18  C   UNL     1       0.002  -0.004   0.002  0.00  0.00    +0.025 A 
ATOM     19  C   UNL     1      -0.017   1.377   0.010  0.00  0.00    +0.034 A 
ATOM     20  C   UNL     1       1.171   2.086   0.002  0.00  0.00    +0.126 A 
ATOM     21  C   UNL     1       2.380   1.416  -0.013  0.00  0.00    +0.034 A 
ATOM     22  C   UNL     1       2.406   0.035  -0.021  0.00  0.00    +0.025 A 
BRANCH  20  23
ATOM     23  N   UNL     1       1.147   3.566   0.010  0.00  0.00    +0.056 N 
ATOM     24  O   UNL     1       0.082   4.158   0.023  0.00  0.00    -0.126 OA
ATOM     25  O   UNL     1       2.191   4.192   0.003  0.00  0.00    -0.126 OA
ENDBRANCH  20  23
ENDBRANCH  15  17
ENDBRANCH  14  15
ENDBRANCH   1  14
TORSDOF 7
