REMARK  Name = ZINC28912012
REMARK  9 active torsions:
REMARK  status: ('A' for Active; 'I' for Inactive)
REMARK    1  A    between atoms: C_1  and  C_2
REMARK    2  A    between atoms: C_4  and  C_10
REMARK    3  A    between atoms: C_6  and  C_9
REMARK    4  A    between atoms: C_7  and  O_8
REMARK    5  A    between atoms: C_11  and  C_12
REMARK    6  A    between atoms: C_11  and  C_14
REMARK    7  A    between atoms: N_16  and  C_17
REMARK    8  A    between atoms: C_20  and  S_23
REMARK    9  A    between atoms: S_23  and  N_26
REMARK                            x       y       z     vdW  Elec       q    Type
REMARK                         _______ _______ _______ _____ _____    ______ ____
ROOT
ATOM      1  C   UNL     1       2.363   5.743  -0.008  0.00  0.00    +0.259 C 
ATOM      2  O   UNL     1       1.341   6.372  -0.206  0.00  0.00    -0.269 OA
ATOM      3  N   UNL     1       3.499   6.389   0.320  0.00  0.00    -0.281 N 
ATOM      4  H   UNL     1       4.442   5.831   0.415  0.00  0.00    +0.155 HD
ENDROOT
BRANCH   3   5
ATOM      5  C   UNL     1       3.480   7.771   0.537  0.00  0.00    +0.034 A 
ATOM      6  C   UNL     1       4.556   8.553   0.139  0.00  0.00    +0.025 A 
ATOM      7  C   UNL     1       4.532   9.918   0.351  0.00  0.00    +0.030 A 
ATOM      8  C   UNL     1       3.442  10.503   0.969  0.00  0.00    +0.105 A 
ATOM      9  C   UNL     1       2.371   9.726   1.371  0.00  0.00    +0.030 A 
ATOM     10  C   UNL     1       2.387   8.362   1.158  0.00  0.00    +0.025 A 
BRANCH   8  11
ATOM     11  S   UNL     1       3.417  12.244   1.242  0.00  0.00    +0.056 S 
ATOM     12  O   UNL     1       4.296  12.818   0.285  0.00  0.00    -0.153 OA
ATOM     13  O   UNL     1       2.051  12.620   1.345  0.00  0.00    -0.153 OA
BRANCH  11  14
ATOM     14  N   UNL     1       4.095  12.515   2.729  0.00  0.00    -0.204 NA
ATOM     15  H   UNL     1       4.098  13.595   2.939  0.00  0.00    +0.144 HD
ATOM     16  H   UNL     1       5.128  12.137   2.736  0.00  0.00    +0.144 HD
ENDBRANCH  11  14
ENDBRANCH   8  11
ENDBRANCH   3   5
BRANCH   1  18
ATOM     17  C   UNL     1       1.197   3.616  -0.460  0.00  0.00    +0.032 C 
ATOM     18  C   UNL     1       2.359   4.277  -0.126  0.00  0.00    +0.114 C 
BRANCH  17  22
ATOM     19  C   UNL     1       3.570  -0.358  -2.276  0.00  0.00    +0.047 C 
ATOM     20  C   UNL     1       2.368   0.261  -1.612  0.00  0.00    -0.008 A 
ATOM     21  C   UNL     1       2.346   1.603  -1.356  0.00  0.00    +0.015 A 
ATOM     22  C   UNL     1       1.226   2.178  -0.737  0.00  0.00    -0.023 A 
ATOM     23  C   UNL     1       0.135   1.371  -0.386  0.00  0.00    +0.015 A 
ATOM     24  C   UNL     1       0.168   0.030  -0.647  0.00  0.00    -0.008 A 
ATOM     25  C   UNL     1       1.282  -0.534  -1.260  0.00  0.00    +0.123 A 
ATOM     26  C   UNL     1      -1.004  -0.839  -0.269  0.00  0.00    +0.047 C 
BRANCH  25  27
ATOM     27  O   UNL     1       1.309  -1.866  -1.517  0.00  0.00    -0.506 OA
ATOM     28  H   UNL     1       0.452  -2.498  -1.240  0.00  0.00    +0.292 HD
ENDBRANCH  25  27
ENDBRANCH  17  22
BRANCH  18  29
ATOM     29  C   UNL     1       3.562   3.536   0.108  0.00  0.00    +0.104 C 
ATOM     30  N   UNL     1       4.517   2.949   0.293  0.00  0.00    -0.191 NA
ENDBRANCH  18  29
ENDBRANCH   1  18
TORSDOF 7
