REMARK  Name = ZINC02856000
REMARK  6 active torsions:
REMARK  status: ('A' for Active; 'I' for Inactive)
REMARK    1  A    between atoms: C_7  and  C_15
REMARK    2  A    between atoms: N_17  and  N_18
REMARK    3  A    between atoms: N_18  and  C_19
REMARK    4  A    between atoms: C_19  and  N_21
REMARK    5  A    between atoms: N_21  and  C_22
REMARK    6  A    between atoms: C_22  and  C_23
REMARK                            x       y       z     vdW  Elec       q    Type
REMARK                         _______ _______ _______ _____ _____    ______ ____
ROOT
ATOM      1  C   UNL     1       1.403   1.602  -0.003  0.00  0.00    +0.241 C 
ATOM      2  O   UNL     1       1.784   2.308  -0.912  0.00  0.00    -0.273 OA
ATOM      3  N   UNL     1       2.246   1.280   0.998  0.00  0.00    -0.234 N 
ATOM      4  H   UNL     1       1.941   0.715   1.726  0.00  0.00    +0.173 HD
ENDROOT
BRANCH   1  11
ATOM      5  C   UNL     1      -1.149   1.401  -3.573  0.00  0.00    +0.001 A 
ATOM      6  C   UNL     1      -2.036   2.459  -3.499  0.00  0.00    +0.004 A 
ATOM      7  C   UNL     1      -2.271   3.078  -2.288  0.00  0.00    +0.046 A 
ATOM      8  C   UNL     1      -1.618   2.640  -1.141  0.00  0.00    +0.133 A 
ATOM      9  C   UNL     1      -0.731   1.579  -1.219  0.00  0.00    +0.011 A 
ATOM     10  C   UNL     1      -0.499   0.963  -2.436  0.00  0.00    +0.008 A 
ATOM     11  C   UNL     1      -0.013   1.086   0.008  0.00  0.00    +0.143 C 
ATOM     12  C   UNL     1      -0.707   1.566   1.253  0.00  0.00    +0.011 A 
ATOM     13  C   UNL     1      -0.449   0.937   2.459  0.00  0.00    +0.008 A 
ATOM     14  C   UNL     1      -1.077   1.362   3.614  0.00  0.00    +0.001 A 
ATOM     15  C   UNL     1      -1.966   2.420   3.568  0.00  0.00    +0.004 A 
ATOM     16  C   UNL     1      -2.226   3.052   2.369  0.00  0.00    +0.046 A 
ATOM     17  C   UNL     1      -1.595   2.627   1.205  0.00  0.00    +0.133 A 
ATOM     18  O   UNL     1      -1.863   3.260   0.038  0.00  0.00    -0.455 OA
ENDBRANCH   1  11
BRANCH   3  19
ATOM     19  N   UNL     1       3.562   1.760   0.988  0.00  0.00    -0.246 N 
ATOM     20  H   UNL     1       3.866   2.325   0.261  0.00  0.00    +0.172 HD
BRANCH  19  21
ATOM     21  C   UNL     1       4.404   1.437   1.990  0.00  0.00    +0.147 C 
ATOM     22  S   UNL     1       6.013   2.024   1.977  0.00  0.00    -0.017 S 
BRANCH  21  23
ATOM     23  N   UNL     1       3.981   0.653   3.000  0.00  0.00    -0.321 N 
ATOM     24  H   UNL     1       3.070   0.320   3.007  0.00  0.00    +0.148 HD
BRANCH  23  25
ATOM     25  C   UNL     1       4.897   0.302   4.088  0.00  0.00    +0.138 C 
BRANCH  25  26
ATOM     26  C   UNL     1       4.183  -0.577   5.082  0.00  0.00    -0.030 A 
ATOM     27  C   UNL     1       3.510  -0.009   6.149  0.00  0.00    +0.006 A 
ATOM     28  C   UNL     1       2.851  -0.815   7.058  0.00  0.00    +0.020 A 
ATOM     29  C   UNL     1       2.873  -2.190   6.907  0.00  0.00    +0.041 A 
ATOM     30  C   UNL     1       3.550  -2.758   5.843  0.00  0.00    +0.020 A 
ATOM     31  C   UNL     1       4.205  -1.951   4.931  0.00  0.00    +0.006 A 
ATOM     32 CL   UNL     1       2.049  -3.203   8.052  0.00  0.00    -0.084 Cl
ENDBRANCH  25  26
ENDBRANCH  23  25
ENDBRANCH  21  23
ENDBRANCH  19  21
ENDBRANCH   3  19
TORSDOF 6
