REMARK  Name = ZINC05165766
REMARK  6 active torsions:
REMARK  status: ('A' for Active; 'I' for Inactive)
REMARK    1  A    between atoms: C_1  and  N_2
REMARK    2  A    between atoms: C_3  and  C_5
REMARK    3  A    between atoms: C_5  and  N_14
REMARK    4  A    between atoms: C_6  and  C_7
REMARK    5  A    between atoms: C_15  and  C_17
REMARK    6  A    between atoms: C_20  and  N_23
REMARK                            x       y       z     vdW  Elec       q    Type
REMARK                         _______ _______ _______ _____ _____    ______ ____
ROOT
ATOM      1  C   UNL     1      -0.149   1.635  -0.206  0.00  0.00    +0.097 C 
ATOM      2  C   UNL     1       0.910   2.409   0.127  0.00  0.00    +0.036 C 
ENDROOT
BRANCH   2   3
ATOM      3  C   UNL     1       2.256   1.821   0.199  0.00  0.00    -0.023 A 
ATOM      4  C   UNL     1       2.431   0.523   0.691  0.00  0.00    +0.009 A 
ATOM      5  C   UNL     1       3.695  -0.024   0.750  0.00  0.00    +0.020 A 
ATOM      6  C   UNL     1       4.792   0.713   0.334  0.00  0.00    +0.041 A 
ATOM      7  C   UNL     1       4.627   2.001  -0.149  0.00  0.00    +0.020 A 
ATOM      8  C   UNL     1       3.369   2.558  -0.219  0.00  0.00    +0.009 A 
ATOM      9 CL   UNL     1       6.381   0.019   0.419  0.00  0.00    -0.084 Cl
ENDBRANCH   2   3
BRANCH   1  12
ATOM     10  C   UNL     1       0.879  -1.382  -2.259  0.00  0.00    +0.128 C 
ATOM     11  N   UNL     1       0.559  -0.007  -1.868  0.00  0.00    -0.313 N 
ATOM     12  C   UNL     1       0.062   0.247  -0.641  0.00  0.00    +0.258 C 
ATOM     13  O   UNL     1      -0.212  -0.673   0.106  0.00  0.00    -0.269 OA
ATOM     14  H   UNL     1       0.705   0.721  -2.492  0.00  0.00    +0.149 HD
ENDBRANCH   1  12
BRANCH   1  15
ATOM     15  N   UNL     1      -1.444   2.158  -0.142  0.00  0.00    -0.277 N 
ATOM     16  C   UNL     1      -2.501   1.381  -0.451  0.00  0.00    +0.248 C 
ATOM     17  O   UNL     1      -2.338   0.199  -0.688  0.00  0.00    -0.270 OA
ATOM     18  H   UNL     1      -1.582   3.081   0.124  0.00  0.00    +0.155 HD
BRANCH  16  19
ATOM     19  C   UNL     1      -3.858   1.964  -0.501  0.00  0.00    +0.037 A 
ATOM     20  C   UNL     1      -4.050   3.319  -0.224  0.00  0.00    +0.015 A 
ATOM     21  C   UNL     1      -5.318   3.858  -0.279  0.00  0.00    +0.033 A 
ATOM     22  C   UNL     1      -6.401   3.057  -0.596  0.00  0.00    +0.126 A 
ATOM     23  C   UNL     1      -6.219   1.713  -0.866  0.00  0.00    +0.033 A 
ATOM     24  C   UNL     1      -4.955   1.162  -0.821  0.00  0.00    +0.015 A 
BRANCH  22  25
ATOM     25  N   UNL     1      -7.760   3.642  -0.646  0.00  0.00    +0.056 N 
ATOM     26  O   UNL     1      -8.715   2.939  -0.925  0.00  0.00    -0.126 OA
ATOM     27  O   UNL     1      -7.923   4.825  -0.408  0.00  0.00    -0.126 OA
ENDBRANCH  22  25
ENDBRANCH  16  19
ENDBRANCH   1  15
TORSDOF 5
