REMARK  Name = ZINC14176529
REMARK  4 active torsions:
REMARK  status: ('A' for Active; 'I' for Inactive)
REMARK    1  A    between atoms: C_3  and  C_14
REMARK    2  A    between atoms: C_5  and  N_7
REMARK    3  A    between atoms: C_8  and  C_10
REMARK    4  A    between atoms: C_19  and  C_21
REMARK                            x       y       z     vdW  Elec       q    Type
REMARK                         _______ _______ _______ _____ _____    ______ ____
ROOT
ATOM      1  C   UNL     1       0.670  -0.062  -0.370  0.00  0.00    +0.043 C 
ATOM      2  C   UNL     1       1.942  -0.565  -0.536  0.00  0.00    +0.152 C 
ATOM      3  C   UNL     1       2.321  -1.970  -0.786  0.00  0.00    +0.364 C 
ATOM      4  O   UNL     1       1.580  -2.928  -0.891  0.00  0.00    -0.243 OA
ATOM      5  O   UNL     1       3.669  -1.961  -0.878  0.00  0.00    -0.402 OA
ATOM      6  C   UNL     1       4.106  -0.700  -0.697  0.00  0.00    +0.232 C 
ATOM      7  N   UNL     1       3.117   0.127  -0.497  0.00  0.00    -0.205 NA
ENDROOT
BRANCH   6   8
ATOM      8  C   UNL     1       5.527  -0.303  -0.724  0.00  0.00    +0.041 A 
ATOM      9  C   UNL     1       5.884   1.034  -0.526  0.00  0.00    +0.017 A 
ATOM     10  C   UNL     1       7.212   1.402  -0.551  0.00  0.00    +0.050 A 
ATOM     11  C   UNL     1       8.198   0.450  -0.772  0.00  0.00    +0.166 A 
ATOM     12  C   UNL     1       7.847  -0.886  -0.970  0.00  0.00    +0.167 A 
ATOM     13  C   UNL     1       6.519  -1.263  -0.940  0.00  0.00    +0.062 A 
ATOM     14  O   UNL     1       8.988  -1.611  -1.164  0.00  0.00    -0.453 OA
ATOM     15  C   UNL     1      10.006  -0.646  -1.490  0.00  0.00    +0.466 C 
ATOM     16  O   UNL     1       9.556   0.558  -0.842  0.00  0.00    -0.453 OA
ENDBRANCH   6   8
BRANCH   1  19
ATOM     17  C   UNL     1       1.372   3.605  -0.024  0.00  0.00    +0.002 A 
ATOM     18  C   UNL     1       1.569   2.246  -0.153  0.00  0.00    +0.008 A 
ATOM     19  C   UNL     1       0.467   1.384  -0.233  0.00  0.00    -0.021 A 
ATOM     20  C   UNL     1      -0.830   1.911  -0.186  0.00  0.00    +0.031 A 
ATOM     21  C   UNL     1      -1.012   3.276  -0.051  0.00  0.00    +0.034 A 
ATOM     22  C   UNL     1       0.090   4.122   0.028  0.00  0.00    +0.023 A 
BRANCH  21  23
ATOM     23  N   UNL     1      -2.306   3.808   0.002  0.00  0.00    -0.278 N 
ATOM     24  C   UNL     1      -3.291   3.121   0.614  0.00  0.00    +0.321 C 
ATOM     25  O   UNL     1      -3.077   2.009   1.047  0.00  0.00    -0.266 OA
ATOM     26  H   UNL     1      -2.493   4.670  -0.401  0.00  0.00    +0.155 HD
BRANCH  24  27
ATOM     27  C   UNL     1      -4.660   3.736   0.758  0.00  0.00    +0.470 C 
ATOM     28  F   UNL     1      -5.506   2.840   1.420  0.00  0.00    -0.162 F 
ATOM     29  F   UNL     1      -4.564   4.920   1.497  0.00  0.00    -0.162 F 
ATOM     30  F   UNL     1      -5.180   4.018  -0.510  0.00  0.00    -0.162 F 
ENDBRANCH  24  27
ENDBRANCH  21  23
ENDBRANCH   1  19
TORSDOF 4
