REMARK  Name = ZINC59167230
REMARK  8 active torsions:
REMARK  status: ('A' for Active; 'I' for Inactive)
REMARK    1  A    between atoms: C_1  and  C_2
REMARK    2  A    between atoms: C_7  and  C_8
REMARK    3  A    between atoms: N_13  and  N_14
REMARK    4  A    between atoms: C_15  and  C_17
REMARK    5  A    between atoms: C_17  and  C_19
REMARK    6  A    between atoms: C_17  and  S_20
REMARK    7  A    between atoms: S_20  and  C_21
REMARK    8  A    between atoms: C_21  and  C_22
REMARK                            x       y       z     vdW  Elec       q    Type
REMARK                         _______ _______ _______ _____ _____    ______ ____
ROOT
ATOM      1  C   UNL     1      -0.018   1.503   0.010  0.00  0.00    +0.044 C 
ATOM      2  C   UNL     1       0.002  -0.004   0.002  0.00  0.00    -0.046 A 
ATOM      3  C   UNL     1       0.006  -0.683  -1.205  0.00  0.00    +0.004 A 
ATOM      4  C   UNL     1       0.025  -2.064  -1.221  0.00  0.00    +0.012 A 
ATOM      5  C   UNL     1       0.040  -2.768  -0.022  0.00  0.00    +0.028 A 
ATOM      6  C   UNL     1       0.037  -2.085   1.200  0.00  0.00    +0.046 A 
ATOM      7  C   UNL     1       0.023  -0.694   1.197  0.00  0.00    -0.026 A 
ATOM      8  C   UNL     1       0.024   0.061   2.501  0.00  0.00    +0.046 C 
ATOM      9  N   UNL     1       0.055  -3.006   2.242  0.00  0.00    -0.279 N 
ATOM     10  C   UNL     1       0.070  -4.268   1.781  0.00  0.00    +0.269 C 
ATOM     11  O   UNL     1       0.087  -5.278   2.460  0.00  0.00    -0.268 OA
ATOM     12  C   UNL     1       0.062  -4.212   0.305  0.00  0.00    +0.153 C 
ATOM     13  N   UNL     1       0.072  -5.221  -0.532  0.00  0.00    -0.175 NA
ATOM     14  H   UNL     1       0.056  -2.767   3.182  0.00  0.00    +0.155 HD
ENDROOT
BRANCH  13  15
ATOM     15  N   UNL     1       0.093  -6.535  -0.046  0.00  0.00    -0.205 N 
ATOM     16  C   UNL     1       0.103  -7.572  -0.907  0.00  0.00    +0.245 C 
ATOM     17  O   UNL     1       0.094  -7.367  -2.102  0.00  0.00    -0.273 OA
ATOM     18  H   UNL     1       0.100  -6.698   0.910  0.00  0.00    +0.177 HD
BRANCH  16  19
ATOM     19  C   UNL     1       0.125  -8.985  -0.384  0.00  0.00    +0.131 C 
ATOM     20  C   UNL     1      -1.304  -9.439  -0.082  0.00  0.00    +0.029 C 
BRANCH  19  21
ATOM     21  S   UNL     1       0.857 -10.080  -1.631  0.00  0.00    -0.144 S 
BRANCH  21  22
ATOM     22  C   UNL     1       0.951 -11.690  -0.801  0.00  0.00    +0.105 C 
BRANCH  22  23
ATOM     23  C   UNL     1       1.549 -12.705  -1.740  0.00  0.00    -0.038 A 
ATOM     24  C   UNL     1       0.730 -13.438  -2.579  0.00  0.00    +0.004 A 
ATOM     25  C   UNL     1       1.279 -14.370  -3.440  0.00  0.00    +0.000 A 
ATOM     26  C   UNL     1       2.647 -14.568  -3.463  0.00  0.00    +0.000 A 
ATOM     27  C   UNL     1       3.466 -13.834  -2.626  0.00  0.00    +0.000 A 
ATOM     28  C   UNL     1       2.917 -12.899  -1.767  0.00  0.00    +0.004 A 
ENDBRANCH  22  23
ENDBRANCH  21  22
ENDBRANCH  19  21
ENDBRANCH  16  19
ENDBRANCH  13  15
TORSDOF 5
