REMARK  Name = ZINC62212758
REMARK  8 active torsions:
REMARK  status: ('A' for Active; 'I' for Inactive)
REMARK    1  A    between atoms: C_1  and  C_2
REMARK    2  A    between atoms: C_2  and  C_3
REMARK    3  A    between atoms: C_2  and  C_4
REMARK    4  A    between atoms: C_2  and  N_5
REMARK    5  A    between atoms: C_6  and  C_15
REMARK    6  A    between atoms: C_8  and  N_14
REMARK    7  A    between atoms: C_18  and  O_21
REMARK    8  A    between atoms: O_21  and  C_22
REMARK                            x       y       z     vdW  Elec       q    Type
REMARK                         _______ _______ _______ _____ _____    ______ ____
ROOT
ATOM      1  N   UNL     1       1.091  -0.500  -0.211  0.00  0.00    -0.291 N 
ATOM      2  C   UNL     1       1.595  -1.840  -0.484  0.00  0.00    +0.092 C 
ATOM      3  C   UNL     1       2.257  -1.893  -1.861  0.00  0.00    -0.049 C 
ATOM      4  C   UNL     1       3.266  -0.743  -1.965  0.00  0.00    -0.005 C 
ATOM      5  C   UNL     1       2.494   0.579  -1.975  0.00  0.00    +0.094 C 
ATOM      6  C   UNL     1       1.493   0.596  -0.856  0.00  0.00    +0.216 C 
ATOM      7  O   UNL     1       1.028   1.664  -0.518  0.00  0.00    -0.276 OA
ENDROOT
BRANCH   2   8
ATOM      8  C   UNL     1       0.450  -2.819  -0.448  0.00  0.00    -0.028 A 
ATOM      9  C   UNL     1      -0.679  -2.589  -1.213  0.00  0.00    +0.009 A 
ATOM     10  C   UNL     1      -1.730  -3.485  -1.182  0.00  0.00    +0.046 A 
ATOM     11  C   UNL     1      -1.652  -4.617  -0.383  0.00  0.00    +0.120 A 
ATOM     12  C   UNL     1      -0.518  -4.846   0.383  0.00  0.00    +0.046 A 
ATOM     13  C   UNL     1       0.533  -3.949   0.344  0.00  0.00    +0.009 A 
BRANCH  11  14
ATOM     14  O   UNL     1      -2.685  -5.500  -0.350  0.00  0.00    -0.495 OA
ATOM     15  C   UNL     1      -2.535  -6.642   0.494  0.00  0.00    +0.277 C 
ENDBRANCH  11  14
ENDBRANCH   2   8
BRANCH   1  17
ATOM     16  C   UNL     1      -1.261   0.036   0.193  0.00  0.00    +0.031 C 
ATOM     17  C   UNL     1       0.074  -0.347   0.833  0.00  0.00    +0.030 C 
ATOM     18  C   UNL     1       0.506   0.749   1.809  0.00  0.00    +0.031 C 
ATOM     19  C   UNL     1      -0.083  -1.669   1.588  0.00  0.00    +0.031 C 
ENDBRANCH   1  17
BRANCH   3  20
ATOM     20  N   UNL     1       2.950  -3.177  -2.025  0.00  0.00    +0.381 N 
ATOM     21  H   UNL     1       2.285  -3.931  -1.944  0.00  0.00    -0.090 HD
ATOM     22  H   UNL     1       3.387  -3.210  -2.935  0.00  0.00    -0.090 HD
ATOM     23  H   UNL     1       3.656  -3.273  -1.310  0.00  0.00    -0.090 HD
ENDBRANCH   3  20
TORSDOF 4
