REMARK  Name = ZINC66177910
REMARK  6 active torsions:
REMARK  status: ('A' for Active; 'I' for Inactive)
REMARK    1  A    between atoms: C_1  and  C_2
REMARK    2  A    between atoms: C_5  and  N_8
REMARK    3  A    between atoms: C_11  and  N_14
REMARK    4  A    between atoms: N_14  and  C_15
REMARK    5  A    between atoms: N_18  and  C_19
REMARK    6  A    between atoms: C_23  and  C_25
REMARK                            x       y       z     vdW  Elec       q    Type
REMARK                         _______ _______ _______ _____ _____    ______ ____
ROOT
ATOM      1  N   UNL     1      -4.167   0.124   7.386  0.00  0.00    -0.286 N 
ATOM      2  C   UNL     1      -4.239   1.581   7.527  0.00  0.00    +0.134 C 
ATOM      3  C   UNL     1      -4.709  -0.671   8.329  0.00  0.00    +0.306 C 
ATOM      4  O   UNL     1      -4.649  -1.880   8.213  0.00  0.00    -0.252 OA
ATOM      5  N   UNL     1      -5.318  -0.127   9.401  0.00  0.00    -0.269 N 
ATOM      6  H   UNL     1      -5.308   0.835   9.528  0.00  0.00    +0.156 HD
ENDROOT
BRANCH   1  10
ATOM      7  N   UNL     1      -2.085  -0.073   3.727  0.00  0.00    +0.382 N 
ATOM      8  C   UNL     1      -3.468  -0.565   3.726  0.00  0.00    -0.077 C 
ATOM      9  C   UNL     1      -4.212  -0.008   4.942  0.00  0.00    +0.004 C 
ATOM     10  C   UNL     1      -3.505  -0.467   6.221  0.00  0.00    +0.074 C 
ATOM     11  C   UNL     1      -2.043  -0.012   6.176  0.00  0.00    +0.004 C 
ATOM     12  C   UNL     1      -1.380  -0.569   4.914  0.00  0.00    -0.077 C 
ATOM     13  H   UNL     1      -2.090   0.936   3.736  0.00  0.00    -0.081 HD
BRANCH   7  18
ATOM     14  C   UNL     1       0.011   1.527   0.028  0.00  0.00    +0.007 C 
ATOM     15  C   UNL     1       0.022  -0.003   0.013  0.00  0.00    -0.014 C 
ATOM     16  C   UNL     1      -1.417  -0.523   0.019  0.00  0.00    +0.002 C 
ATOM     17  C   UNL     1      -2.132  -0.030   1.278  0.00  0.00    -0.015 C 
ATOM     18  C   UNL     1      -1.398  -0.546   2.517  0.00  0.00    -0.069 C 
ATOM     19  C   UNL     1       0.041  -0.026   2.511  0.00  0.00    -0.015 C 
ATOM     20  C   UNL     1       0.756  -0.519   1.252  0.00  0.00    +0.002 C 
ENDBRANCH   7  18
ENDBRANCH   1  10
BRANCH   5  21
ATOM     21  C   UNL     1      -5.966  -0.950  10.332  0.00  0.00    +0.036 A 
ATOM     22  C   UNL     1      -5.444  -2.204  10.631  0.00  0.00    +0.026 A 
ATOM     23  C   UNL     1      -6.077  -3.020  11.548  0.00  0.00    +0.041 A 
ATOM     24  C   UNL     1      -7.235  -2.596  12.174  0.00  0.00    +0.136 A 
ATOM     25  C   UNL     1      -7.767  -1.337  11.879  0.00  0.00    +0.073 A 
ATOM     26  C   UNL     1      -7.121  -0.512  10.957  0.00  0.00    +0.039 A 
ATOM     27  F   UNL     1      -7.852  -3.397  13.070  0.00  0.00    -0.205 F 
BRANCH  25  28
ATOM     28  C   UNL     1      -9.003  -0.879  12.545  0.00  0.00    +0.244 C 
ATOM     29  O   UNL     1      -9.561  -1.598  13.351  0.00  0.00    -0.270 OA
ATOM     30  N   UNL     1      -9.513   0.335  12.258  0.00  0.00    -0.325 N 
ATOM     31  H   UNL     1      -9.068   0.909  11.615  0.00  0.00    +0.145 HD
ATOM     32  H   UNL     1     -10.325   0.636  12.696  0.00  0.00    +0.145 HD
ENDBRANCH  25  28
ENDBRANCH   5  21
TORSDOF 4
