REMARK  Name = ZINC24892551
REMARK  13 active torsions:
REMARK  status: ('A' for Active; 'I' for Inactive)
REMARK    1  A    between atoms: C_1  and  C_2
REMARK    2  A    between atoms: C_2  and  C_4
REMARK    3  A    between atoms: C_2  and  N_10
REMARK    4  A    between atoms: C_4  and  C_5
REMARK    5  A    between atoms: N_10  and  C_11
REMARK    6  A    between atoms: N_10  and  C_20
REMARK    7  A    between atoms: C_11  and  C_12
REMARK    8  A    between atoms: C_15  and  O_18
REMARK    9  A    between atoms: O_18  and  C_19
REMARK   10  A    between atoms: C_20  and  C_21
REMARK   11  A    between atoms: N_23  and  C_24
REMARK   12  A    between atoms: C_29  and  C_30
REMARK   13  A    between atoms: C_30  and  C_32
REMARK                            x       y       z     vdW  Elec       q    Type
REMARK                         _______ _______ _______ _____ _____    ______ ____
ROOT
ATOM      1  N   UNL     1       0.703  -0.116  -0.869  0.00  0.00    +0.390 N 
ATOM      2  H   UNL     1       1.300   0.526  -1.534  0.00  0.00    -0.080 HD
ENDROOT
BRANCH   1   4
ATOM      3  C   UNL     1       1.071  -1.798   0.872  0.00  0.00    -0.013 C 
ATOM      4  C   UNL     1       1.537  -0.462   0.290  0.00  0.00    -0.066 C 
BRANCH   4   5
ATOM      5  C   UNL     1       2.998  -0.578  -0.149  0.00  0.00    +0.027 C 
BRANCH   5   6
ATOM      6  C   UNL     1       3.483   0.762  -0.638  0.00  0.00    -0.012 A 
ATOM      7  C   UNL     1       4.149   1.729   0.040  0.00  0.00    +0.011 A 
ATOM      8  C   UNL     1       4.498   2.892  -0.621  0.00  0.00    +0.008 A 
ATOM      9  C   UNL     1       4.165   3.031  -1.927  0.00  0.00    +0.045 A 
ATOM     10  S   UNL     1       3.337   1.486  -2.264  0.00  0.00    -0.102 S 
ENDBRANCH   5   6
ENDBRANCH   4   5
ENDBRANCH   1   4
BRANCH   1  11
ATOM     11  C   UNL     1       0.323  -1.318  -1.622  0.00  0.00    -0.042 C 
BRANCH  11  12
ATOM     12  C   UNL     1       1.520  -1.837  -2.377  0.00  0.00    -0.064 A 
ATOM     13  C   UNL     1       1.920  -1.219  -3.547  0.00  0.00    +0.005 A 
ATOM     14  C   UNL     1       3.020  -1.690  -4.237  0.00  0.00    +0.046 A 
ATOM     15  C   UNL     1       3.717  -2.791  -3.761  0.00  0.00    +0.120 A 
ATOM     16  C   UNL     1       3.311  -3.413  -2.590  0.00  0.00    +0.046 A 
ATOM     17  C   UNL     1       2.213  -2.935  -1.900  0.00  0.00    +0.005 A 
BRANCH  15  18
ATOM     18  O   UNL     1       4.797  -3.259  -4.441  0.00  0.00    -0.495 OA
ATOM     19  C   UNL     1       5.158  -2.568  -5.639  0.00  0.00    +0.277 C 
ENDBRANCH  15  18
ENDBRANCH  11  12
ENDBRANCH   1  11
BRANCH   1  20
ATOM     20  C   UNL     1      -0.484   0.644  -0.455  0.00  0.00    +0.020 C 
BRANCH  20  21
ATOM     21  C   UNL     1      -0.092   2.069  -0.162  0.00  0.00    +0.201 C 
ATOM     22  O   UNL     1       1.072   2.403  -0.226  0.00  0.00    -0.278 OA
ATOM     23  N   UNL     1      -1.036   2.974   0.165  0.00  0.00    -0.286 N 
ATOM     24  H   UNL     1      -2.082   2.657   0.291  0.00  0.00    +0.155 HD
BRANCH  23  25
ATOM     25  C   UNL     1      -0.687   4.310   0.344  0.00  0.00    +0.048 A 
ATOM     26  C   UNL     1       0.535   4.640   0.907  0.00  0.00    +0.073 A 
ATOM     27  C   UNL     1       0.884   5.970   1.087  0.00  0.00    +0.168 A 
ATOM     28  C   UNL     1       0.004   6.986   0.701  0.00  0.00    +0.167 A 
ATOM     29  C   UNL     1      -1.215   6.672   0.141  0.00  0.00    +0.062 A 
ATOM     30  C   UNL     1      -1.573   5.330  -0.051  0.00  0.00    +0.042 A 
ATOM     31  O   UNL     1       0.584   8.191   0.983  0.00  0.00    -0.453 OA
ATOM     32  C   UNL     1       1.641   7.899   1.916  0.00  0.00    +0.466 C 
ATOM     33  O   UNL     1       2.007   6.542   1.607  0.00  0.00    -0.453 OA
BRANCH  30  34
ATOM     34  C   UNL     1      -2.864   4.991  -0.652  0.00  0.00    +0.162 C 
ATOM     35  O   UNL     1      -3.202   3.829  -0.749  0.00  0.00    -0.292 OA
ATOM     36  C   UNL     1      -3.773   6.084  -1.152  0.00  0.00    +0.091 C 
ENDBRANCH  30  34
ENDBRANCH  23  25
ENDBRANCH  20  21
ENDBRANCH   1  20
TORSDOF 10
