REMARK  Name = ZINC66236456
REMARK  9 active torsions:
REMARK  status: ('A' for Active; 'I' for Inactive)
REMARK    1  A    between atoms: C_1  and  C_2
REMARK    2  A    between atoms: C_5  and  O_23
REMARK    3  A    between atoms: C_6  and  C_8
REMARK    4  A    between atoms: C_8  and  C_10
REMARK    5  A    between atoms: C_8  and  N_11
REMARK    6  A    between atoms: N_11  and  C_12
REMARK    7  A    between atoms: C_12  and  C_13
REMARK    8  A    between atoms: C_17  and  N_19
REMARK    9  A    between atoms: O_23  and  C_24
REMARK                            x       y       z     vdW  Elec       q    Type
REMARK                         _______ _______ _______ _____ _____    ______ ____
ROOT
ATOM      1  N   UNL     1       0.520  -1.956   3.569  0.00  0.00    +0.386 N 
ATOM      2  H   UNL     1       1.416  -1.567   3.319  0.00  0.00    -0.085 HD
ATOM      3  H   UNL     1      -0.145  -1.210   3.704  0.00  0.00    -0.085 HD
ENDROOT
BRANCH   1   4
ATOM      4  C   UNL     1       0.052  -2.841   2.493  0.00  0.00    -0.040 C 
ATOM      5  C   UNL     1      -1.360  -3.333   2.815  0.00  0.00    -0.009 C 
BRANCH   4  11
ATOM      6  C   UNL     1      -0.018   1.503   0.010  0.00  0.00    +0.044 C 
ATOM      7  C   UNL     1       0.002  -0.004   0.002  0.00  0.00    -0.050 A 
ATOM      8  C   UNL     1       0.006  -0.688  -1.200  0.00  0.00    +0.007 A 
ATOM      9  C   UNL     1       0.024  -2.069  -1.210  0.00  0.00    +0.046 A 
ATOM     10  C   UNL     1       0.039  -2.770  -0.013  0.00  0.00    +0.122 A 
ATOM     11  C   UNL     1       0.036  -2.082   1.191  0.00  0.00    -0.020 A 
ATOM     12  C   UNL     1       0.023  -0.701   1.196  0.00  0.00    +0.009 A 
BRANCH  10  13
ATOM     13  O   UNL     1       0.057  -4.129  -0.021  0.00  0.00    -0.495 OA
ATOM     14  C   UNL     1       0.058  -4.771  -1.298  0.00  0.00    +0.277 C 
ENDBRANCH  10  13
ENDBRANCH   4  11
ENDBRANCH   1   4
BRANCH   1  15
ATOM     15  C   UNL     1       0.650  -2.726   4.814  0.00  0.00    -0.046 C 
BRANCH  15  16
ATOM     16  C   UNL     1       1.129  -1.819   5.918  0.00  0.00    -0.062 A 
ATOM     17  C   UNL     1       2.484  -1.659   6.141  0.00  0.00    +0.003 A 
ATOM     18  C   UNL     1       2.924  -0.827   7.152  0.00  0.00    +0.018 A 
ATOM     19  C   UNL     1       2.009  -0.154   7.942  0.00  0.00    +0.048 A 
ATOM     20  C   UNL     1       0.654  -0.315   7.719  0.00  0.00    +0.140 A 
ATOM     21  C   UNL     1       0.214  -1.144   6.703  0.00  0.00    +0.035 A 
ATOM     22 BR   UNL     1       2.611   0.984   9.327  0.00  0.00    -0.048 Br
BRANCH  20  23
ATOM     23  N   UNL     1      -0.326   0.403   8.564  0.00  0.00    +0.058 N 
ATOM     24  O   UNL     1      -1.511   0.262   8.368  0.00  0.00    -0.126 OA
ATOM     25  O   UNL     1       0.058   1.131   9.449  0.00  0.00    -0.126 OA
ENDBRANCH  20  23
ENDBRANCH  15  16
ENDBRANCH   1  15
TORSDOF 6
