REMARK  Name = ZINC06577553
REMARK  11 active torsions:
REMARK  status: ('A' for Active; 'I' for Inactive)
REMARK    1  A    between atoms: C_1  and  C_2
REMARK    2  A    between atoms: C_2  and  C_3
REMARK    3  A    between atoms: C_3  and  C_4
REMARK    4  A    between atoms: C_4  and  C_34
REMARK    5  A    between atoms: C_9  and  C_12
REMARK    6  A    between atoms: C_15  and  O_19
REMARK    7  A    between atoms: C_17  and  O_18
REMARK    8  A    between atoms: O_19  and  C_20
REMARK    9  A    between atoms: N_23  and  C_26
REMARK   10  A    between atoms: C_29  and  O_32
REMARK   11  A    between atoms: O_32  and  C_33
REMARK                            x       y       z     vdW  Elec       q    Type
REMARK                         _______ _______ _______ _____ _____    ______ ____
ROOT
ATOM      1  C   UNL     1       1.009  -1.901  -1.219  0.00  0.00    +0.048 C 
ATOM      2  C   UNL     1       1.386  -2.482  -2.597  0.00  0.00    +0.086 C 
ATOM      3  C   UNL     1       0.382  -3.642  -2.829  0.00  0.00    +0.077 C 
ATOM      4  C   UNL     1      -0.498  -3.663  -1.562  0.00  0.00    -0.023 C 
ATOM      5  N   UNL     1      -0.417  -2.272  -1.031  0.00  0.00    +0.396 N 
ATOM      6  C   UNL     1      -0.434  -3.168  -4.011  0.00  0.00    +0.229 C 
ATOM      7  O   UNL     1      -1.343  -3.781  -4.526  0.00  0.00    -0.275 OA
ATOM      8  N   UNL     1       0.004  -1.964  -4.398  0.00  0.00    -0.210 N 
ATOM      9  C   UNL     1       1.038  -1.478  -3.673  0.00  0.00    +0.229 C 
ATOM     10  O   UNL     1       1.596  -0.416  -3.847  0.00  0.00    -0.275 OA
ATOM     11  H   UNL     1      -0.660  -2.257  -0.052  0.00  0.00    -0.083 HD
ATOM     12  H   UNL     1      -1.016  -1.649  -1.554  0.00  0.00    -0.083 HD
ENDROOT
BRANCH   4  13
ATOM     13  C   UNL     1      -1.924  -3.994  -1.918  0.00  0.00    -0.019 A 
ATOM     14  C   UNL     1      -2.836  -2.977  -2.134  0.00  0.00    +0.009 A 
ATOM     15  C   UNL     1      -4.144  -3.277  -2.461  0.00  0.00    +0.046 A 
ATOM     16  C   UNL     1      -4.546  -4.600  -2.574  0.00  0.00    +0.124 A 
ATOM     17  C   UNL     1      -3.635  -5.622  -2.358  0.00  0.00    +0.091 A 
ATOM     18  C   UNL     1      -2.321  -5.318  -2.035  0.00  0.00    +0.122 A 
BRANCH  18  19
ATOM     19  O   UNL     1      -1.423  -6.317  -1.830  0.00  0.00    -0.506 OA
ATOM     20  H   UNL     1      -1.374  -6.620  -0.912  0.00  0.00    +0.292 HD
ENDBRANCH  18  19
BRANCH  16  21
ATOM     21  O   UNL     1      -5.834  -4.894  -2.895  0.00  0.00    -0.495 OA
ATOM     22  C   UNL     1      -6.719  -3.792  -3.102  0.00  0.00    +0.277 C 
ENDBRANCH  16  21
ENDBRANCH   4  13
BRANCH   8  23
ATOM     23  C   UNL     1      -0.558  -1.262  -5.475  0.00  0.00    +0.044 A 
ATOM     24  C   UNL     1      -1.246  -0.078  -5.250  0.00  0.00    +0.027 A 
ATOM     25  C   UNL     1      -1.799   0.612  -6.310  0.00  0.00    +0.047 A 
ATOM     26  C   UNL     1      -1.666   0.122  -7.601  0.00  0.00    +0.120 A 
ATOM     27  C   UNL     1      -0.979  -1.061  -7.827  0.00  0.00    +0.047 A 
ATOM     28  C   UNL     1      -0.421  -1.749  -6.768  0.00  0.00    +0.027 A 
BRANCH  26  29
ATOM     29  O   UNL     1      -2.210   0.802  -8.645  0.00  0.00    -0.495 OA
ATOM     30  C   UNL     1      -2.035   0.240  -9.947  0.00  0.00    +0.277 C 
ENDBRANCH  26  29
ENDBRANCH   8  23
BRANCH   1  31
ATOM     31  C   UNL     1       1.858  -2.516  -0.137  0.00  0.00    +0.346 C 
ATOM     32  O   UNL     1       1.335  -3.160   0.756  0.00  0.00    -0.248 OA
ATOM     33  O   UNL     1       3.068  -2.369  -0.154  0.00  0.00    -0.248 OA
ENDBRANCH   1  31
BRANCH   1  34
ATOM     34  C   UNL     1       1.168  -0.379  -1.220  0.00  0.00    -0.001 C 
BRANCH  34  36
ATOM     35  C   UNL     1       0.871   1.704   0.127  0.00  0.00    +0.004 C 
ATOM     36  C   UNL     1       0.711   0.183   0.128  0.00  0.00    -0.004 C 
ENDBRANCH  34  36
ENDBRANCH   1  34
TORSDOF 8
