REMARK  Name = ZINC12074411
REMARK  7 active torsions:
REMARK  status: ('A' for Active; 'I' for Inactive)
REMARK    1  A    between atoms: C_1  and  C_2
REMARK    2  A    between atoms: C_2  and  C_24
REMARK    3  A    between atoms: C_3  and  C_4
REMARK    4  A    between atoms: C_4  and  N_57
REMARK    5  A    between atoms: C_10  and  C_12
REMARK    6  A    between atoms: C_12  and  C_13
REMARK    7  A    between atoms: N_15  and  C_16
REMARK                            x       y       z     vdW  Elec       q    Type
REMARK                         _______ _______ _______ _____ _____    ______ ____
ROOT
ATOM      1  C   UNL     1       3.518   0.641  -1.146  0.00  0.00    -0.058 C 
ATOM      2  C   UNL     1       4.269   1.730  -0.378  0.00  0.00    +0.085 C 
ATOM      3  N   UNL     1       3.522   2.103   0.820  0.00  0.00    -0.318 N 
ATOM      4  C   UNL     1       2.224   1.826   0.983  0.00  0.00    +0.200 C 
ATOM      5  O   UNL     1       1.673   2.200   1.996  0.00  0.00    -0.278 OA
ATOM      6  C   UNL     1       1.420   1.071  -0.037  0.00  0.00    +0.028 C 
ATOM      7  H   UNL     1       3.989   2.573   1.529  0.00  0.00    +0.149 HD
ATOM      8  N   UNL     1       2.124   1.092  -1.333  0.00  0.00    +0.391 N 
ATOM      9  H   UNL     1       2.128   2.052  -1.697  0.00  0.00    -0.080 HD
ENDROOT
BRANCH   8  10
ATOM     10  C   UNL     1       1.431   0.212  -2.301  0.00  0.00    -0.050 C 
BRANCH  10  13
ATOM     11  C   UNL     1      -0.356   0.855  -4.386  0.00  0.00    +0.038 C 
ATOM     12  C   UNL     1       1.130   0.856  -4.637  0.00  0.00    -0.081 C 
ATOM     13  C   UNL     1       1.955   0.499  -3.684  0.00  0.00    -0.047 C 
ATOM     14  C   UNL     1       1.666   1.267  -5.984  0.00  0.00    +0.038 C 
ENDBRANCH  10  13
ENDBRANCH   8  10
BRANCH   6  15
ATOM     15  C   UNL     1       0.054   1.739  -0.203  0.00  0.00    +0.089 C 
BRANCH  15  16
ATOM     16  C   UNL     1       0.237   3.125  -0.766  0.00  0.00    +0.212 C 
ATOM     17  O   UNL     1       1.353   3.564  -0.944  0.00  0.00    -0.276 OA
ATOM     18  N   UNL     1      -0.839   3.874  -1.076  0.00  0.00    -0.312 N 
ATOM     19  H   UNL     1      -1.732   3.521  -0.938  0.00  0.00    +0.149 HD
BRANCH  18  20
ATOM     20  C   UNL     1      -0.661   5.221  -1.623  0.00  0.00    +0.073 C 
ATOM     21  C   UNL     1      -0.482   6.218  -0.476  0.00  0.00    +0.022 C 
ATOM     22  C   UNL     1       0.092   7.526  -1.023  0.00  0.00    +0.002 C 
ATOM     23  C   UNL     1       1.220   7.217  -2.008  0.00  0.00    +0.000 C 
ATOM     24  C   UNL     1       0.795   7.633  -3.418  0.00  0.00    +0.000 C 
ATOM     25  C   UNL     1      -0.191   6.605  -3.976  0.00  0.00    +0.000 C 
ATOM     26  C   UNL     1      -1.562   6.809  -3.328  0.00  0.00    +0.002 C 
ATOM     27  C   UNL     1      -1.894   5.605  -2.445  0.00  0.00    +0.022 C 
ENDBRANCH  18  20
ENDBRANCH  15  16
ENDBRANCH   6  15
TORSDOF 5
