REMARK  Name = ZINC08871879
REMARK  7 active torsions:
REMARK  status: ('A' for Active; 'I' for Inactive)
REMARK    1  A    between atoms: C_1  and  C_2
REMARK    2  A    between atoms: C_4  and  O_32
REMARK    3  A    between atoms: C_5  and  S_25
REMARK    4  A    between atoms: C_7  and  N_8
REMARK    5  A    between atoms: N_8  and  S_9
REMARK    6  A    between atoms: S_9  and  C_12
REMARK    7  A    between atoms: S_25  and  C_26
REMARK                            x       y       z     vdW  Elec       q    Type
REMARK                         _______ _______ _______ _____ _____    ______ ____
ROOT
ATOM      1  N   UNL     1       0.282  -0.234   2.257  0.00  0.00    -0.216 N 
ATOM      2  H   UNL     1      -0.315   0.494   2.493  0.00  0.00    +0.174 HD
ENDROOT
BRANCH   1   9
ATOM      3  C   UNL     1      -0.100   1.589   0.110  0.00  0.00    +0.046 C 
ATOM      4  C   UNL     1       0.103   0.114  -0.125  0.00  0.00    -0.025 A 
ATOM      5  C   UNL     1       0.112  -0.384  -1.415  0.00  0.00    +0.051 A 
ATOM      6  C   UNL     1       0.297  -1.738  -1.635  0.00  0.00    +0.131 A 
ATOM      7  C   UNL     1       0.476  -2.601  -0.555  0.00  0.00    +0.059 A 
ATOM      8  C   UNL     1       0.467  -2.101   0.738  0.00  0.00    +0.043 A 
ATOM      9  C   UNL     1       0.286  -0.741   0.953  0.00  0.00    +0.052 A 
BRANCH   6  10
ATOM     10  O   UNL     1       0.306  -2.226  -2.905  0.00  0.00    -0.506 OA
ATOM     11  H   UNL     1       1.181  -2.241  -3.316  0.00  0.00    +0.292 HD
ENDBRANCH   6  10
BRANCH   7  12
ATOM     12  S   UNL     1       0.712  -4.325  -0.833  0.00  0.00    -0.047 S 
BRANCH  12  13
ATOM     13  C   UNL     1      -0.891  -4.909  -1.274  0.00  0.00    +0.189 A 
ATOM     14  H   UNL     1      -0.654  -6.971  -1.445  0.00  0.00    +0.191 HD
ATOM     15  N   UNL     1      -1.965  -4.168  -1.450  0.00  0.00    -0.209 NA
ATOM     16  C   UNL     1      -2.998  -4.945  -1.776  0.00  0.00    +0.245 A 
ATOM     17  N   UNL     1      -2.604  -6.189  -1.813  0.00  0.00    -0.160 NA
ATOM     18  N   UNL     1      -1.236  -6.196  -1.496  0.00  0.00    -0.254 N 
ENDBRANCH  12  13
ENDBRANCH   7  12
ENDBRANCH   1   9
BRANCH   1  19
ATOM     19  S   UNL     1       1.298  -0.874   3.398  0.00  0.00    +0.073 S 
ATOM     20  O   UNL     1       0.770  -0.505   4.664  0.00  0.00    -0.150 OA
ATOM     21  O   UNL     1       1.518  -2.229   3.030  0.00  0.00    -0.150 OA
BRANCH  19  22
ATOM     22  C   UNL     1       2.847  -0.051   3.237  0.00  0.00    +0.116 A 
ATOM     23  C   UNL     1       3.299   0.787   4.220  0.00  0.00    +0.031 A 
ATOM     24  C   UNL     1       4.516   1.464   4.148  0.00  0.00    +0.026 A 
ATOM     25  C   UNL     1       5.331   1.305   3.043  0.00  0.00    +0.042 A 
ATOM     26  C   UNL     1       4.859   0.450   2.052  0.00  0.00    +0.017 A 
ATOM     27  C   UNL     1       3.649  -0.245   2.101  0.00  0.00    +0.011 A 
ATOM     28  C   UNL     1       3.339  -1.072   1.007  0.00  0.00    +0.010 A 
ATOM     29  C   UNL     1       4.227  -1.157  -0.032  0.00  0.00    +0.001 A 
ATOM     30  C   UNL     1       5.434  -0.461  -0.062  0.00  0.00    +0.014 A 
ATOM     31  C   UNL     1       5.772   0.372   0.991  0.00  0.00    +0.047 A 
ATOM     32  C   UNL     1       6.871   1.257   1.395  0.00  0.00    +0.249 C 
ATOM     33  O   UNL     1       7.881   1.483   0.755  0.00  0.00    -0.270 OA
ATOM     34  N   UNL     1       6.562   1.781   2.611  0.00  0.00    -0.281 N 
ATOM     35  H   UNL     1       7.122   2.400   3.106  0.00  0.00    +0.155 HD
ENDBRANCH  19  22
ENDBRANCH   1  19
TORSDOF 6
