REMARK  Name = ZINC05679579
REMARK  5 active torsions:
REMARK  status: ('A' for Active; 'I' for Inactive)
REMARK    1  A    between atoms: C_1  and  C_2
REMARK    2  A    between atoms: C_5  and  C_26
REMARK    3  A    between atoms: C_6  and  C_8
REMARK    4  A    between atoms: C_8  and  C_10
REMARK    5  A    between atoms: C_10  and  N_11
REMARK                            x       y       z     vdW  Elec       q    Type
REMARK                         _______ _______ _______ _____ _____    ______ ____
ROOT
ATOM      1  N   UNL     1       0.927  -2.729   4.888  0.00  0.00    -0.216 N 
ATOM      2  C   UNL     1      -0.043  -3.263   5.659  0.00  0.00    +0.251 C 
ATOM      3  O   UNL     1      -1.240  -3.108   5.545  0.00  0.00    -0.272 OA
ATOM      4  C   UNL     1       0.678  -4.093   6.693  0.00  0.00    +0.139 C 
ATOM      5  C   UNL     1       0.374  -3.598   8.099  0.00  0.00    +0.040 C 
ATOM      6  C   UNL     1       0.969  -4.555   9.137  0.00  0.00    +0.008 C 
ATOM      7  C   UNL     1       0.196  -5.881   9.090  0.00  0.00    +0.043 C 
ATOM      8  C   UNL     1       0.076  -6.312   7.665  0.00  0.00    -0.005 A 
ATOM      9  C   UNL     1       0.281  -5.553   6.552  0.00  0.00    -0.005 A 
ATOM     10  C   UNL     1       0.109  -6.191   5.324  0.00  0.00    +0.014 A 
ATOM     11  C   UNL     1      -0.246  -7.495   5.281  0.00  0.00    +0.046 A 
ATOM     12  S   UNL     1      -0.361  -7.902   7.017  0.00  0.00    -0.101 S 
ATOM     13  N   UNL     1       2.097  -3.924   6.367  0.00  0.00    -0.281 N 
ATOM     14  C   UNL     1       2.145  -3.113   5.292  0.00  0.00    +0.310 C 
ATOM     15  O   UNL     1       3.177  -2.767   4.751  0.00  0.00    -0.252 OA
ATOM     16  H   UNL     1       2.851  -4.320   6.831  0.00  0.00    +0.152 HD
ENDROOT
BRANCH   1  17
ATOM     17  C   UNL     1       0.679  -1.845   3.746  0.00  0.00    +0.197 C 
BRANCH  17  18
ATOM     18  C   UNL     1       0.524  -2.672   2.495  0.00  0.00    +0.181 C 
ATOM     19  O   UNL     1       0.612  -3.880   2.552  0.00  0.00    -0.290 OA
BRANCH  18  25
ATOM     20  C   UNL     1       0.057   1.497  -0.200  0.00  0.00    +0.044 C 
ATOM     21  C   UNL     1       0.039  -0.006  -0.099  0.00  0.00    -0.050 A 
ATOM     22  C   UNL     1      -0.222  -0.771  -1.223  0.00  0.00    +0.003 A 
ATOM     23  C   UNL     1      -0.240  -2.152  -1.140  0.00  0.00    +0.004 A 
ATOM     24  C   UNL     1       0.001  -2.778   0.065  0.00  0.00    -0.040 A 
ATOM     25  C   UNL     1       0.266  -2.012   1.205  0.00  0.00    +0.022 A 
ATOM     26  C   UNL     1       0.289  -0.617   1.112  0.00  0.00    +0.015 A 
ATOM     27  C   UNL     1      -0.020  -4.282   0.153  0.00  0.00    +0.044 C 
ENDBRANCH  18  25
ENDBRANCH  17  18
ENDBRANCH   1  17
TORSDOF 3
