REMARK  Name = ZINC21169218
REMARK  7 active torsions:
REMARK  status: ('A' for Active; 'I' for Inactive)
REMARK    1  A    between atoms: C_1  and  C_2
REMARK    2  A    between atoms: C_2  and  C_3
REMARK    3  A    between atoms: C_8  and  N_9
REMARK    4  A    between atoms: C_14  and  C_24
REMARK    5  A    between atoms: C_16  and  C_23
REMARK    6  A    between atoms: C_24  and  O_25
REMARK    7  A    between atoms: O_25  and  C_26
REMARK                            x       y       z     vdW  Elec       q    Type
REMARK                         _______ _______ _______ _____ _____    ______ ____
ROOT
ATOM      1  N   UNL     1       3.849  -1.256   0.178  0.00  0.00    -0.251 N 
ATOM      2  C   UNL     1       4.354   0.045   0.612  0.00  0.00    +0.218 C 
ATOM      3  N   UNL     1       3.690   1.167  -0.054  0.00  0.00    -0.326 N 
ATOM      4  C   UNL     1       2.293   1.025  -0.020  0.00  0.00    +0.057 A 
ATOM      5  C   UNL     1       1.345   2.134   0.001  0.00  0.00    +0.035 A 
ATOM      6  C   UNL     1       1.624   3.524   0.010  0.00  0.00    -0.009 A 
ATOM      7  C   UNL     1       0.577   4.415   0.026  0.00  0.00    +0.029 A 
ATOM      8  C   UNL     1      -0.733   3.959   0.033  0.00  0.00    +0.040 A 
ATOM      9  N   UNL     1      -0.989   2.665   0.030  0.00  0.00    -0.245 NA
ATOM     10  C   UNL     1      -0.022   1.774   0.012  0.00  0.00    +0.111 A 
ATOM     11  S   UNL     1       0.002  -0.004   0.002  0.00  0.00    -0.062 S 
ATOM     12  C   UNL     1       1.748  -0.253  -0.010  0.00  0.00    +0.098 A 
ATOM     13  C   UNL     1       2.514  -1.433  -0.020  0.00  0.00    +0.261 C 
ATOM     14  O   UNL     1       2.019  -2.532  -0.194  0.00  0.00    -0.269 OA
ATOM     15  C   UNL     1      -1.870   4.948   0.049  0.00  0.00    +0.065 C 
ATOM     16  H   UNL     1       4.290   1.976  -0.497  0.00  0.00    +0.148 HD
ENDROOT
BRANCH   1  22
ATOM     17  C   UNL     1       5.054  -3.175   1.013  0.00  0.00    -0.026 A 
ATOM     18  C   UNL     1       5.926  -4.224   0.801  0.00  0.00    +0.005 A 
ATOM     19  C   UNL     1       6.490  -4.416  -0.447  0.00  0.00    +0.000 A 
ATOM     20  C   UNL     1       6.178  -3.561  -1.488  0.00  0.00    +0.002 A 
ATOM     21  C   UNL     1       5.303  -2.512  -1.284  0.00  0.00    +0.024 A 
ATOM     22  C   UNL     1       4.735  -2.317  -0.032  0.00  0.00    +0.041 A 
BRANCH  17  24
ATOM     23  C   UNL     1       3.074  -3.641   2.432  0.00  0.00    +0.009 C 
ATOM     24  C   UNL     1       4.445  -2.963   2.375  0.00  0.00    +0.033 C 
ENDBRANCH  17  24
ENDBRANCH   1  22
BRANCH   6  25
ATOM     25  C   UNL     1       3.048   4.017   0.002  0.00  0.00    +0.195 C 
BRANCH  25  26
ATOM     26  O   UNL     1       3.057   5.446   0.014  0.00  0.00    -0.378 OA
ATOM     27  C   UNL     1       4.366   6.019   0.007  0.00  0.00    +0.194 C 
ENDBRANCH  25  26
ENDBRANCH   6  25
TORSDOF 4
