REMARK  Name = ZINC16431234
REMARK  3 active torsions:
REMARK  status: ('A' for Active; 'I' for Inactive)
REMARK    1  A    between atoms: C_6  and  N_7
REMARK    2  A    between atoms: C_11  and  C_12
REMARK    3  A    between atoms: C_15  and  N_17
REMARK                            x       y       z     vdW  Elec       q    Type
REMARK                         _______ _______ _______ _____ _____    ______ ____
ROOT
ATOM      1  N   UNL     1      -1.245   2.076  -0.408  0.00  0.00    -0.190 N 
ATOM      2  C   UNL     1      -2.398   1.375  -0.395  0.00  0.00    +0.264 C 
ATOM      3  O   UNL     1      -2.396   0.167  -0.545  0.00  0.00    -0.269 OA
ATOM      4  C   UNL     1      -3.656   2.108  -0.195  0.00  0.00    +0.103 C 
ATOM      5  C   UNL     1      -4.888   1.448  -0.169  0.00  0.00    +0.064 C 
ATOM      6  C   UNL     1      -3.564   3.565  -0.021  0.00  0.00    +0.257 C 
ATOM      7  O   UNL     1      -4.564   4.238   0.149  0.00  0.00    -0.270 OA
ATOM      8  N   UNL     1      -2.342   4.136  -0.056  0.00  0.00    -0.235 N 
ATOM      9  C   UNL     1      -1.233   3.406  -0.238  0.00  0.00    +0.320 C 
ATOM     10  O   UNL     1      -0.162   3.980  -0.255  0.00  0.00    -0.251 OA
ATOM     11  H   UNL     1      -2.265   5.097   0.056  0.00  0.00    +0.159 HD
ENDROOT
BRANCH   1  17
ATOM     12  C   UNL     1       0.582   0.763   0.473  0.00  0.00    +0.028 A 
ATOM     13  C   UNL     1       1.775   0.089   0.287  0.00  0.00    +0.051 A 
ATOM     14  C   UNL     1       2.360   0.046  -0.968  0.00  0.00    +0.166 A 
ATOM     15  C   UNL     1       1.745   0.682  -2.044  0.00  0.00    +0.168 A 
ATOM     16  C   UNL     1       0.551   1.357  -1.856  0.00  0.00    +0.073 A 
ATOM     17  C   UNL     1      -0.032   1.398  -0.597  0.00  0.00    +0.049 A 
ATOM     18  O   UNL     1       2.512   0.494  -3.158  0.00  0.00    -0.453 OA
ATOM     19  C   UNL     1       3.386  -0.605  -2.841  0.00  0.00    +0.466 C 
ATOM     20  O   UNL     1       3.511  -0.542  -1.408  0.00  0.00    -0.453 OA
ENDBRANCH   1  17
BRANCH   5  21
ATOM     21  C   UNL     1      -4.932   0.054  -0.179  0.00  0.00    +0.132 A 
ATOM     22  C   UNL     1      -5.827  -0.731  -0.902  0.00  0.00    +0.066 A 
ATOM     23  C   UNL     1      -5.514  -2.056  -0.623  0.00  0.00    +0.079 A 
ATOM     24  C   UNL     1      -4.452  -2.045   0.262  0.00  0.00    +0.204 A 
ATOM     25  O   UNL     1      -4.116  -0.772   0.516  0.00  0.00    -0.441 OA
ATOM     26 BR   UNL     1      -6.383  -3.586  -1.316  0.00  0.00    -0.045 Br
BRANCH  24  27
ATOM     27  N   UNL     1      -3.841  -3.156   0.793  0.00  0.00    -0.296 N 
ATOM     28  C   UNL     1      -4.815  -4.012   1.487  0.00  0.00    +0.136 C 
ATOM     29  C   UNL     1      -4.105  -5.263   2.010  0.00  0.00    +0.179 C 
ATOM     30  O   UNL     1      -3.026  -4.871   2.862  0.00  0.00    -0.377 OA
ATOM     31  C   UNL     1      -2.058  -4.038   2.219  0.00  0.00    +0.179 C 
ATOM     32  C   UNL     1      -2.747  -2.774   1.698  0.00  0.00    +0.136 C 
ENDBRANCH  24  27
ENDBRANCH   5  21
TORSDOF 3
