REMARK  Name = ZINC39545121
REMARK  4 active torsions:
REMARK  status: ('A' for Active; 'I' for Inactive)
REMARK    1  A    between atoms: C_4  and  N_7
REMARK    2  A    between atoms: N_7  and  C_8
REMARK    3  A    between atoms: C_13  and  O_14
REMARK    4  A    between atoms: C_15  and  C_17
REMARK                            x       y       z     vdW  Elec       q    Type
REMARK                         _______ _______ _______ _____ _____    ______ ____
ROOT
ATOM      1  N   UNL     1       3.734  -0.754  -0.666  0.00  0.00    -0.235 N 
ATOM      2  C   UNL     1       3.639  -1.994  -0.147  0.00  0.00    +0.244 C 
ATOM      3  O   UNL     1       4.596  -2.496   0.405  0.00  0.00    -0.273 OA
ENDROOT
BRANCH   2   4
ATOM      4  C   UNL     1       2.344  -2.758  -0.251  0.00  0.00    +0.150 C 
ATOM      5  C   UNL     1       1.453  -2.481   0.976  0.00  0.00    +0.076 C 
ATOM      6  C   UNL     1       1.258  -3.842   1.604  0.00  0.00    +0.032 C 
ATOM      7  C   UNL     1       1.903  -4.741   0.906  0.00  0.00    +0.085 C 
ATOM      8  N   UNL     1       1.928  -6.126   1.160  0.00  0.00    -0.303 N 
ATOM      9  C   UNL     1       1.937  -6.936   0.012  0.00  0.00    +0.037 A 
ATOM     10  C   UNL     1       1.846  -8.315   0.139  0.00  0.00    +0.023 A 
ATOM     11  C   UNL     1       1.865  -9.112  -0.989  0.00  0.00    +0.002 A 
ATOM     12  C   UNL     1       1.976  -8.532  -2.239  0.00  0.00    +0.000 A 
ATOM     13  C   UNL     1       2.063  -7.159  -2.367  0.00  0.00    +0.007 A 
ATOM     14  C   UNL     1       2.040  -6.350  -1.242  0.00  0.00    -0.010 A 
ATOM     15  C   UNL     1       2.111  -4.856  -1.415  0.00  0.00    +0.124 C 
ATOM     16  N   UNL     1       2.594  -4.207  -0.195  0.00  0.00    -0.369 NA
ATOM     17 BR   UNL     1       0.238  -4.191   3.158  0.00  0.00    -0.052 Br
ATOM     18  H   UNL     1       1.938  -6.492   2.058  0.00  0.00    +0.153 HD
ATOM     19  H   UNL     1       3.583  -4.378  -0.092  0.00  0.00    +0.129 HD
ENDBRANCH   2   4
BRANCH   1  23
ATOM     20  C   UNL     1       7.413   1.202  -0.731  0.00  0.00    +0.000 A 
ATOM     21  C   UNL     1       6.262   1.883  -1.083  0.00  0.00    +0.002 A 
ATOM     22  C   UNL     1       5.042   1.238  -1.063  0.00  0.00    +0.024 A 
ATOM     23  C   UNL     1       4.970  -0.097  -0.688  0.00  0.00    +0.041 A 
ATOM     24  C   UNL     1       6.127  -0.779  -0.335  0.00  0.00    +0.024 A 
ATOM     25  C   UNL     1       7.345  -0.128  -0.357  0.00  0.00    +0.002 A 
ENDBRANCH   1  23
BRANCH   1  26
ATOM     26  C   UNL     1       2.595  -0.122  -1.184  0.00  0.00    +0.083 A 
ATOM     27  C   UNL     1       2.257  -0.283  -2.520  0.00  0.00    +0.027 A 
ATOM     28  C   UNL     1       1.133   0.341  -3.029  0.00  0.00    +0.002 A 
ATOM     29  C   UNL     1       0.344   1.126  -2.209  0.00  0.00    +0.004 A 
ATOM     30  C   UNL     1       0.674   1.291  -0.877  0.00  0.00    +0.047 A 
ATOM     31  C   UNL     1       1.796   0.665  -0.358  0.00  0.00    +0.138 A 
BRANCH  31  32
ATOM     32  O   UNL     1       2.118   0.821   0.954  0.00  0.00    -0.505 OA
ATOM     33  H   UNL     1       2.698   1.575   1.129  0.00  0.00    +0.292 HD
ENDBRANCH  31  32
ENDBRANCH   1  26
TORSDOF 4
