REMARK  Name = ZINC35652297
REMARK  4 active torsions:
REMARK  status: ('A' for Active; 'I' for Inactive)
REMARK    1  A    between atoms: C_8  and  C_10
REMARK    2  A    between atoms: C_10  and  C_11
REMARK    3  A    between atoms: C_11  and  N_12
REMARK    4  A    between atoms: N_12  and  C_13
REMARK                            x       y       z     vdW  Elec       q    Type
REMARK                         _______ _______ _______ _____ _____    ______ ____
ROOT
ATOM      1  C   UNL     1       3.202  -4.455  -1.496  0.00  0.00    -0.075 C 
ENDROOT
BRANCH   1   2
ATOM      2  N   UNL     1       3.601  -5.869  -1.507  0.00  0.00    +0.381 N 
ATOM      3  H   UNL     1       4.490  -5.971  -1.041  0.00  0.00    -0.086 HD
ATOM      4  H   UNL     1       2.904  -6.418  -1.028  0.00  0.00    -0.086 HD
BRANCH   2   5
ATOM      5  C   UNL     1       3.720  -6.333  -2.896  0.00  0.00    -0.069 C 
ATOM      6  C   UNL     1       2.352  -6.263  -3.568  0.00  0.00    +0.007 C 
ATOM      7  C   UNL     1       2.499  -6.481  -5.076  0.00  0.00    +0.164 C 
ATOM      8  S   UNL     1       3.147  -8.154  -5.368  0.00  0.00    -0.031 S 
ATOM      9  O   UNL     1       3.544  -8.254  -6.729  0.00  0.00    -0.174 OA
ATOM     10  O   UNL     1       2.221  -9.096  -4.845  0.00  0.00    -0.174 OA
ATOM     11  C   UNL     1       4.639  -8.168  -4.329  0.00  0.00    +0.164 C 
ATOM     12  C   UNL     1       4.253  -7.762  -2.904  0.00  0.00    +0.007 C 
ENDBRANCH   2   5
ENDBRANCH   1   2
BRANCH   1  13
ATOM     13  C   UNL     1       3.078  -3.972  -0.050  0.00  0.00    +0.044 C 
BRANCH  13  21
ATOM     14  C   UNL     1      -0.016   1.357   0.009  0.00  0.00    +0.002 A 
ATOM     15  C   UNL     1       1.156   2.100   0.002  0.00  0.00    +0.001 A 
ATOM     16  C   UNL     1       2.375   1.449  -0.013  0.00  0.00    +0.017 A 
ATOM     17  C   UNL     1       2.404   0.076  -0.021  0.00  0.00    +0.039 A 
ATOM     18  C   UNL     1       1.226  -0.705  -0.013  0.00  0.00    +0.078 A 
ATOM     19  C   UNL     1       0.002  -0.004   0.002  0.00  0.00    +0.029 A 
ATOM     20  N   UNL     1       1.464  -2.033  -0.023  0.00  0.00    -0.244 NA
ATOM     21  C   UNL     1       2.669  -2.521  -0.038  0.00  0.00    +0.078 A 
ATOM     22  S   UNL     1       3.669  -1.167  -0.040  0.00  0.00    -0.072 S 
ENDBRANCH  13  21
ENDBRANCH   1  13
TORSDOF 4
