REMARK  Name = ZINC54621572
REMARK  6 active torsions:
REMARK  status: ('A' for Active; 'I' for Inactive)
REMARK    1  A    between atoms: C_1  and  C_2
REMARK    2  A    between atoms: C_8  and  C_13
REMARK    3  A    between atoms: C_9  and  O_12
REMARK    4  A    between atoms: C_13  and  C_15
REMARK    5  A    between atoms: C_13  and  N_21
REMARK    6  A    between atoms: N_21  and  C_22
REMARK                            x       y       z     vdW  Elec       q    Type
REMARK                         _______ _______ _______ _____ _____    ______ ____
ROOT
ATOM      1  C   UNL     1       0.086  -4.769   3.747  0.00  0.00    +0.135 C 
ENDROOT
BRANCH   1   9
ATOM      2  C   UNL     1       0.216   1.359  -0.221  0.00  0.00    +0.065 C 
ATOM      3  C   UNL     1       0.277  -0.146  -0.168  0.00  0.00    +0.039 A 
ATOM      4  C   UNL     1       0.428  -0.861  -1.355  0.00  0.00    +0.023 A 
ATOM      5  C   UNL     1       0.486  -2.225  -1.326  0.00  0.00    +0.012 A 
ATOM      6  C   UNL     1       0.388  -2.867  -0.077  0.00  0.00    +0.004 A 
ATOM      7  C   UNL     1       0.439  -4.267   0.031  0.00  0.00    +0.010 A 
ATOM      8  C   UNL     1       0.342  -4.854   1.256  0.00  0.00    +0.010 A 
ATOM      9  C   UNL     1       0.191  -4.086   2.408  0.00  0.00    +0.021 A 
ATOM     10  C   UNL     1       0.137  -2.723   2.342  0.00  0.00    +0.148 A 
ATOM     11  C   UNL     1       0.235  -2.080   1.090  0.00  0.00    +0.113 A 
ATOM     12  N   UNL     1       0.191  -0.748   0.993  0.00  0.00    -0.248 NA
BRANCH  10  13
ATOM     13  O   UNL     1      -0.011  -1.990   3.476  0.00  0.00    -0.504 OA
ATOM     14  H   UNL     1       0.825  -1.738   3.894  0.00  0.00    +0.292 HD
ENDBRANCH  10  13
ENDBRANCH   1   9
BRANCH   1  15
ATOM     15  C   UNL     1       1.456  -4.881   4.362  0.00  0.00    -0.020 A 
ATOM     16  C   UNL     1       2.334  -5.878   3.964  0.00  0.00    +0.025 A 
ATOM     17  C   UNL     1       3.583  -5.950   4.551  0.00  0.00    +0.111 A 
ATOM     18  N   UNL     1       3.942  -5.085   5.480  0.00  0.00    -0.263 NA
ATOM     19  C   UNL     1       3.134  -4.125   5.884  0.00  0.00    +0.111 A 
ATOM     20  C   UNL     1       1.872  -3.987   5.337  0.00  0.00    +0.025 A 
ENDBRANCH   1  15
BRANCH   1  21
ATOM     21  N   UNL     1      -0.481  -6.108   3.568  0.00  0.00    -0.333 N 
ATOM     22  H   UNL     1      -0.394  -6.562   2.715  0.00  0.00    +0.147 HD
BRANCH  21  23
ATOM     23  C   UNL     1      -1.146  -6.732   4.626  0.00  0.00    +0.031 A 
ATOM     24  C   UNL     1      -1.277  -6.081   5.846  0.00  0.00    +0.043 A 
ATOM     25  C   UNL     1      -1.936  -6.700   6.891  0.00  0.00    +0.044 A 
ATOM     26  C   UNL     1      -2.466  -7.967   6.723  0.00  0.00    +0.040 A 
ATOM     27  C   UNL     1      -2.337  -8.618   5.508  0.00  0.00    +0.044 A 
ATOM     28  C   UNL     1      -1.683  -8.002   4.458  0.00  0.00    +0.043 A 
ATOM     29 CL   UNL     1      -3.002 -10.209   5.302  0.00  0.00    -0.083 Cl
ATOM     30 CL   UNL     1      -2.099  -5.888   8.417  0.00  0.00    -0.083 Cl
ENDBRANCH  21  23
ENDBRANCH   1  21
TORSDOF 5
