REMARK  Name = ZINC02761842
REMARK  5 active torsions:
REMARK  status: ('A' for Active; 'I' for Inactive)
REMARK    1  A    between atoms: C_3  and  C_8
REMARK    2  A    between atoms: C_11  and  C_13
REMARK    3  A    between atoms: C_15  and  C_32
REMARK    4  A    between atoms: C_16  and  N_31
REMARK    5  A    between atoms: N_17  and  C_25
REMARK                            x       y       z     vdW  Elec       q    Type
REMARK                         _______ _______ _______ _____ _____    ______ ____
ROOT
ATOM      1  C   UNL     1       0.174  -0.231  -0.131  0.00  0.00    +0.133 C 
ATOM      2  C   UNL     1       0.042   1.184   0.351  0.00  0.00    +0.080 C 
ATOM      3  C   UNL     1       1.118   2.011   0.402  0.00  0.00    +0.107 C 
ATOM      4  N   UNL     1       2.355   1.560   0.001  0.00  0.00    -0.259 N 
ATOM      5  C   UNL     1       2.467   0.458  -0.806  0.00  0.00    +0.025 C 
ATOM      6  C   UNL     1       1.450  -0.424  -0.910  0.00  0.00    +0.028 C 
ATOM      7  C   UNL     1       1.549  -1.548  -1.749  0.00  0.00    +0.162 C 
ATOM      8  O   UNL     1       0.620  -2.328  -1.812  0.00  0.00    -0.292 OA
ATOM      9  C   UNL     1       2.784  -1.803  -2.569  0.00  0.00    +0.080 C 
ATOM     10  C   UNL     1       3.455  -0.464  -2.890  0.00  0.00    +0.014 C 
ATOM     11  C   UNL     1       3.750   0.259  -1.574  0.00  0.00    +0.052 C 
ENDROOT
BRANCH   4  12
ATOM     12  C   UNL     1       3.509   2.233   0.420  0.00  0.00    +0.058 A 
ATOM     13  C   UNL     1       4.189   1.824   1.564  0.00  0.00    +0.027 A 
ATOM     14  C   UNL     1       5.325   2.521   1.939  0.00  0.00    +0.021 A 
ATOM     15  C   UNL     1       5.744   3.593   1.172  0.00  0.00    +0.111 A 
ATOM     16  N   UNL     1       5.077   3.956   0.094  0.00  0.00    -0.261 NA
ATOM     17  C   UNL     1       3.994   3.316  -0.301  0.00  0.00    +0.134 A 
ENDBRANCH   4  12
BRANCH   1  21
ATOM     18  C   UNL     1       0.758  -2.112   2.946  0.00  0.00    +0.135 A 
ATOM     19  C   UNL     1      -0.351  -2.759   2.498  0.00  0.00    +0.050 A 
ATOM     20  C   UNL     1      -0.718  -2.142   1.286  0.00  0.00    +0.046 A 
ATOM     21  C   UNL     1       0.174  -1.159   1.056  0.00  0.00    +0.118 A 
ATOM     22  O   UNL     1       1.068  -1.148   2.059  0.00  0.00    -0.459 OA
BRANCH  18  25
ATOM     23  C   UNL     1       1.766  -3.735   6.180  0.00  0.00    +0.002 A 
ATOM     24  C   UNL     1       1.068  -3.450   5.024  0.00  0.00    +0.011 A 
ATOM     25  C   UNL     1       1.498  -2.418   4.189  0.00  0.00    +0.019 A 
ATOM     26  C   UNL     1       2.626  -1.673   4.534  0.00  0.00    +0.031 A 
ATOM     27  C   UNL     1       3.313  -1.964   5.696  0.00  0.00    +0.042 A 
ATOM     28  C   UNL     1       2.884  -2.993   6.517  0.00  0.00    +0.020 A 
ATOM     29 CL   UNL     1       4.717  -1.039   6.127  0.00  0.00    -0.084 Cl
ENDBRANCH  18  25
ENDBRANCH   1  21
BRANCH   3  30
ATOM     30  N   UNL     1       0.971   3.300   0.854  0.00  0.00    -0.345 N 
ATOM     31  H   UNL     1       0.121   3.593   1.218  0.00  0.00    +0.144 HD
ATOM     32  H   UNL     1       1.717   3.918   0.808  0.00  0.00    +0.144 HD
ENDBRANCH   3  30
BRANCH   2  33
ATOM     33  C   UNL     1      -1.241   1.672   0.758  0.00  0.00    +0.099 C 
ATOM     34  N   UNL     1      -2.259   2.059   1.082  0.00  0.00    -0.191 NA
ENDBRANCH   2  33
TORSDOF 5
