REMARK  Name = ZINC32985179
REMARK  12 active torsions:
REMARK  status: ('A' for Active; 'I' for Inactive)
REMARK    1  A    between atoms: C_1  and  C_2
REMARK    2  A    between atoms: C_5  and  S_8
REMARK    3  A    between atoms: S_8  and  N_11
REMARK    4  A    between atoms: N_11  and  C_12
REMARK    5  A    between atoms: C_18  and  C_35
REMARK    6  A    between atoms: C_20  and  N_22
REMARK    7  A    between atoms: N_25  and  C_28
REMARK    8  A    between atoms: C_28  and  C_30
REMARK    9  A    between atoms: C_28  and  C_31
REMARK   10  A    between atoms: C_31  and  C_32
REMARK   11  A    between atoms: C_32  and  C_33
REMARK   12  A    between atoms: C_32  and  C_34
REMARK                            x       y       z     vdW  Elec       q    Type
REMARK                         _______ _______ _______ _____ _____    ______ ____
ROOT
ATOM      1  C   UNL     1      -0.352   8.816   0.985  0.00  0.00    +0.049 A 
ATOM      2  C   UNL     1      -1.318   7.809   1.096  0.00  0.00    +0.026 A 
ATOM      3  C   UNL     1      -0.958   6.500   1.184  0.00  0.00    +0.030 A 
ATOM      4  C   UNL     1       0.402   6.142   1.165  0.00  0.00    +0.074 A 
ATOM      5  C   UNL     1       1.383   7.160   1.052  0.00  0.00    +0.016 A 
ATOM      6  C   UNL     1       0.991   8.498   0.963  0.00  0.00    +0.035 A 
ATOM      7  C   UNL     1       2.795   6.774   1.034  0.00  0.00    +0.076 A 
ATOM      8  C   UNL     1       3.087   5.421   1.135  0.00  0.00    +0.059 A 
ATOM      9  C   UNL     1       2.039   4.497   1.237  0.00  0.00    +0.123 A 
ATOM     10  N   UNL     1       0.777   4.863   1.252  0.00  0.00    -0.232 NA
ENDROOT
BRANCH   9  11
ATOM     11  N   UNL     1       2.345   3.146   1.332  0.00  0.00    -0.319 N 
ATOM     12  C   UNL     1       1.123   2.335   1.437  0.00  0.00    +0.088 C 
ATOM     13  C   UNL     1       1.499   0.852   1.460  0.00  0.00    -0.059 C 
ATOM     14  N   UNL     1       2.398   0.594   2.593  0.00  0.00    +0.383 N 
ATOM     15  C   UNL     1       3.619   1.404   2.488  0.00  0.00    -0.059 C 
ATOM     16  C   UNL     1       3.244   2.888   2.466  0.00  0.00    +0.088 C 
ATOM     17  H   UNL     1       1.874   0.886   3.515  0.00  0.00    -0.081 HD
BRANCH  14  18
ATOM     18  C   UNL     1       2.721  -0.836   2.694  0.00  0.00    -0.071 C 
ATOM     19  C   UNL     1       1.466  -1.616   3.087  0.00  0.00    -0.013 C 
BRANCH  18  20
ATOM     20  C   UNL     1       3.803  -1.040   3.756  0.00  0.00    -0.013 C 
BRANCH  20  21
ATOM     21  C   UNL     1       4.197  -2.518   3.805  0.00  0.00    -0.019 C 
ATOM     22  C   UNL     1       4.869  -2.910   2.487  0.00  0.00    +0.007 C 
ATOM     23  C   UNL     1       5.171  -2.748   4.962  0.00  0.00    +0.007 C 
ENDBRANCH  20  21
ENDBRANCH  18  20
ENDBRANCH  14  18
ENDBRANCH   9  11
BRANCH   7  24
ATOM     24  C   UNL     1       3.866   7.785   0.919  0.00  0.00    +0.387 C 
ATOM     25  O   UNL     1       3.590   8.968   0.940  0.00  0.00    -0.241 OA
ATOM     26  O   UNL     1       5.149   7.395   0.791  0.00  0.00    -0.241 OA
ENDBRANCH   7  24
BRANCH   1  27
ATOM     27  N   UNL     1      -0.750  10.150   0.895  0.00  0.00    -0.216 N 
ATOM     28  H   UNL     1      -0.246  10.916   1.503  0.00  0.00    +0.174 HD
BRANCH  27  29
ATOM     29  S   UNL     1      -1.980  10.581  -0.127  0.00  0.00    +0.072 S 
ATOM     30  O   UNL     1      -3.074   9.725   0.172  0.00  0.00    -0.150 OA
ATOM     31  O   UNL     1      -2.081  11.997  -0.067  0.00  0.00    -0.150 OA
BRANCH  29  36
ATOM     32  C   UNL     1      -0.205   9.214  -5.729  0.00  0.00    +0.044 C 
ATOM     33  C   UNL     1      -0.649   9.556  -4.330  0.00  0.00    -0.050 A 
ATOM     34  C   UNL     1      -1.243   8.591  -3.538  0.00  0.00    +0.005 A 
ATOM     35  C   UNL     1      -1.649   8.904  -2.255  0.00  0.00    +0.029 A 
ATOM     36  C   UNL     1      -1.461  10.181  -1.763  0.00  0.00    +0.109 A 
ATOM     37  C   UNL     1      -0.872  11.148  -2.556  0.00  0.00    +0.029 A 
ATOM     38  C   UNL     1      -0.461  10.834  -3.838  0.00  0.00    +0.005 A 
ENDBRANCH  29  36
ENDBRANCH  27  29
ENDBRANCH   1  27
TORSDOF 8
