REMARK  Name = ZINC14000883
REMARK  5 active torsions:
REMARK  status: ('A' for Active; 'I' for Inactive)
REMARK    1  A    between atoms: C_3  and  O_25
REMARK    2  A    between atoms: C_6  and  C_7
REMARK    3  A    between atoms: N_17  and  C_18
REMARK    4  A    between atoms: O_25  and  C_26
REMARK    5  A    between atoms: C_26  and  C_27
REMARK                            x       y       z     vdW  Elec       q    Type
REMARK                         _______ _______ _______ _____ _____    ______ ____
ROOT
ATOM      1  C   UNL     1      -1.293  -0.774   0.011  0.00  0.00    +0.062 C 
ATOM      2  C   UNL     1      -1.350  -1.679   1.245  0.00  0.00    +0.111 C 
ATOM      3  C   UNL     1      -0.525  -2.919   1.061  0.00  0.00    +0.239 C 
ATOM      4  O   UNL     1       0.046  -3.378   2.031  0.00  0.00    -0.274 OA
ATOM      5  N   UNL     1      -0.385  -3.540  -0.102  0.00  0.00    -0.164 NA
ATOM      6  C   UNL     1      -0.896  -2.992  -1.201  0.00  0.00    +0.140 C 
ATOM      7  C   UNL     1      -1.373  -1.653  -1.214  0.00  0.00    +0.015 C 
ATOM      8  C   UNL     1      -1.856  -1.386  -2.434  0.00  0.00    +0.095 C 
ATOM      9  N   UNL     1      -1.681  -2.487  -3.226  0.00  0.00    -0.265 N 
ATOM     10  N   UNL     1      -1.027  -3.477  -2.466  0.00  0.00    -0.206 N 
ATOM     11  H   UNL     1      -1.961  -2.573  -4.151  0.00  0.00    +0.170 HD
ENDROOT
BRANCH  10  12
ATOM     12  C   UNL     1      -0.592  -4.724  -2.926  0.00  0.00    +0.055 A 
ATOM     13  C   UNL     1       0.037  -5.605  -2.056  0.00  0.00    +0.026 A 
ATOM     14  C   UNL     1       0.466  -6.836  -2.513  0.00  0.00    +0.017 A 
ATOM     15  C   UNL     1       0.268  -7.192  -3.835  0.00  0.00    +0.018 A 
ATOM     16  C   UNL     1      -0.359  -6.316  -4.704  0.00  0.00    +0.017 A 
ATOM     17  C   UNL     1      -0.795  -5.087  -4.251  0.00  0.00    +0.026 A 
ATOM     18 BR   UNL     1       0.856  -8.879  -4.456  0.00  0.00    -0.050 Br
ENDBRANCH  10  12
BRANCH   1  24
ATOM     19  C   UNL     1      -0.017   1.378   0.010  0.00  0.00    +0.008 A 
ATOM     20  C   UNL     1       1.169   2.087   0.002  0.00  0.00    +0.046 A 
ATOM     21  C   UNL     1       2.380   1.409  -0.013  0.00  0.00    +0.121 A 
ATOM     22  C   UNL     1       2.396   0.022  -0.021  0.00  0.00    +0.046 A 
ATOM     23  C   UNL     1       1.207  -0.681  -0.013  0.00  0.00    +0.008 A 
ATOM     24  C   UNL     1       0.002  -0.004   0.002  0.00  0.00    -0.039 A 
BRANCH  21  25
ATOM     25  O   UNL     1       3.548   2.104  -0.021  0.00  0.00    -0.483 OA
BRANCH  25  26
ATOM     26  C   UNL     1       4.756   1.341  -0.036  0.00  0.00    +0.324 C 
BRANCH  26  27
ATOM     27  C   UNL     1       5.940   2.274  -0.043  0.00  0.00    +0.248 C 
ATOM     28  O   UNL     1       5.766   3.474  -0.036  0.00  0.00    -0.272 OA
ATOM     29  N   UNL     1       7.192   1.774  -0.058  0.00  0.00    -0.327 N 
ATOM     30  H   UNL     1       7.331   0.814  -0.064  0.00  0.00    +0.145 HD
ATOM     31  H   UNL     1       7.953   2.375  -0.062  0.00  0.00    +0.145 HD
ENDBRANCH  26  27
ENDBRANCH  25  26
ENDBRANCH  21  25
ENDBRANCH   1  24
TORSDOF 5
