REMARK  Name = ZINC34771664
REMARK  11 active torsions:
REMARK  status: ('A' for Active; 'I' for Inactive)
REMARK    1  A    between atoms: C_1  and  C_2
REMARK    2  A    between atoms: C_2  and  O_3
REMARK    3  A    between atoms: O_3  and  C_4
REMARK    4  A    between atoms: C_4  and  C_6
REMARK    5  A    between atoms: C_7  and  C_35
REMARK    6  A    between atoms: C_11  and  C_13
REMARK    7  A    between atoms: C_16  and  C_19
REMARK    8  A    between atoms: C_25  and  C_31
REMARK    9  A    between atoms: C_27  and  C_30
REMARK   10  A    between atoms: C_31  and  O_33
REMARK   11  A    between atoms: O_33  and  C_34
REMARK                            x       y       z     vdW  Elec       q    Type
REMARK                         _______ _______ _______ _____ _____    ______ ____
ROOT
ATOM      1  C   UNL     1      -2.612  -2.630  -0.089  0.00  0.00    +0.065 C 
ATOM      2  C   UNL     1      -2.764  -3.965  -0.110  0.00  0.00    +0.016 C 
ATOM      3  N   UNL     1      -4.013  -4.519  -0.161  0.00  0.00    -0.321 N 
ATOM      4  C   UNL     1      -5.115  -3.791   0.199  0.00  0.00    +0.016 C 
ATOM      5  C   UNL     1      -5.063  -2.443   0.237  0.00  0.00    +0.025 C 
ATOM      6  C   UNL     1      -3.797  -1.710  -0.124  0.00  0.00    +0.092 C 
ATOM      7  C   UNL     1      -6.182  -1.684   0.621  0.00  0.00    +0.176 C 
ATOM      8  O   UNL     1      -6.104  -0.472   0.637  0.00  0.00    -0.291 OA
ATOM      9  C   UNL     1      -7.475  -2.346   1.012  0.00  0.00    +0.171 C 
ATOM     10  C   UNL     1      -7.172  -3.733   1.589  0.00  0.00    +0.013 C 
ATOM     11  C   UNL     1      -6.383  -4.530   0.547  0.00  0.00    +0.055 C 
ATOM     12  C   UNL     1      -6.344  -3.588   2.867  0.00  0.00    +0.009 C 
ATOM     13  C   UNL     1      -1.550  -4.858  -0.076  0.00  0.00    +0.061 C 
ATOM     14  H   UNL     1      -4.119  -5.437  -0.456  0.00  0.00    +0.152 HD
ENDROOT
BRANCH   6  15
ATOM     15  C   UNL     1      -3.940  -1.139  -1.511  0.00  0.00    -0.035 A 
ATOM     16  C   UNL     1      -4.140  -1.982  -2.588  0.00  0.00    +0.005 A 
ATOM     17  C   UNL     1      -4.271  -1.458  -3.861  0.00  0.00    +0.012 A 
ATOM     18  C   UNL     1      -4.203  -0.091  -4.056  0.00  0.00    +0.055 A 
ATOM     19  C   UNL     1      -4.003   0.752  -2.978  0.00  0.00    +0.012 A 
ATOM     20  C   UNL     1      -3.877   0.228  -1.705  0.00  0.00    +0.005 A 
BRANCH  18  21
ATOM     21  C   UNL     1      -4.345   0.480  -5.443  0.00  0.00    +0.417 C 
ATOM     22  F   UNL     1      -5.694   0.746  -5.702  0.00  0.00    -0.166 F 
ATOM     23  F   UNL     1      -3.609   1.666  -5.537  0.00  0.00    -0.166 F 
ATOM     24  F   UNL     1      -3.864  -0.443  -6.379  0.00  0.00    -0.166 F 
ENDBRANCH  18  21
ENDBRANCH   6  15
BRANCH   1  25
ATOM     25  C   UNL     1      -1.309  -2.081  -0.029  0.00  0.00    +0.338 C 
ATOM     26  O   UNL     1      -0.350  -2.809   0.149  0.00  0.00    -0.245 OA
BRANCH  25  27
ATOM     27  O   UNL     1      -1.130  -0.751  -0.169  0.00  0.00    -0.462 OA
BRANCH  27  29
ATOM     28  C   UNL     1       0.215   1.253  -0.276  0.00  0.00    +0.048 C 
ATOM     29  C   UNL     1       0.212  -0.266  -0.097  0.00  0.00    +0.229 C 
ENDBRANCH  27  29
ENDBRANCH  25  27
ENDBRANCH   1  25
BRANCH   9  30
ATOM     30  C   UNL     1      -8.176  -1.508   2.051  0.00  0.00    +0.318 C 
ATOM     31  O   UNL     1      -7.533  -0.920   2.888  0.00  0.00    -0.250 OA
BRANCH  30  32
ATOM     32  O   UNL     1      -9.515  -1.416   2.046  0.00  0.00    -0.467 OA
ATOM     33  C   UNL     1     -10.113  -0.605   3.060  0.00  0.00    +0.280 C 
ENDBRANCH  30  32
ENDBRANCH   9  30
TORSDOF 7
