REMARK  Name = ZINC25422097
REMARK  5 active torsions:
REMARK  status: ('A' for Active; 'I' for Inactive)
REMARK    1  A    between atoms: C_10  and  C_12
REMARK    2  A    between atoms: C_12  and  S_13
REMARK    3  A    between atoms: S_13  and  C_14
REMARK    4  A    between atoms: C_15  and  C_32
REMARK    5  A    between atoms: C_16  and  C_26
REMARK                            x       y       z     vdW  Elec       q    Type
REMARK                         _______ _______ _______ _____ _____    ______ ____
ROOT
ATOM      1  C   UNL     1      -2.345  -1.204  -1.181  0.00  0.00    +0.080 C 
ATOM      2  C   UNL     1      -2.594   0.132  -1.221  0.00  0.00    +0.069 C 
ATOM      3  C   UNL     1      -2.518   0.972   0.020  0.00  0.00    +0.098 C 
ATOM      4  C   UNL     1      -2.582   0.116   1.259  0.00  0.00    +0.024 C 
ATOM      5  C   UNL     1      -2.330  -1.208   1.203  0.00  0.00    +0.016 C 
ATOM      6  N   UNL     1      -2.025  -1.810   0.012  0.00  0.00    -0.311 N 
ATOM      7  C   UNL     1      -2.374  -2.062   2.447  0.00  0.00    +0.051 C 
ATOM      8  C   UNL     1      -3.401  -1.490   3.426  0.00  0.00    +0.014 C 
ATOM      9  C   UNL     1      -3.008  -0.046   3.755  0.00  0.00    +0.080 C 
ATOM     10  C   UNL     1      -2.913   0.739   2.476  0.00  0.00    +0.162 C 
ATOM     11  O   UNL     1      -3.127   1.935   2.494  0.00  0.00    -0.292 OA
ATOM     12  H   UNL     1      -1.520  -2.787   0.014  0.00  0.00    +0.152 HD
ENDROOT
BRANCH   3  13
ATOM     13  C   UNL     1      -1.223   1.742   0.017  0.00  0.00    -0.017 A 
ATOM     14  C   UNL     1      -1.231   3.129   0.030  0.00  0.00    +0.007 A 
ATOM     15  C   UNL     1      -0.015   3.796   0.022  0.00  0.00    +0.020 A 
ATOM     16  C   UNL     1       1.156   3.061   0.007  0.00  0.00    +0.111 A 
ATOM     17  N   UNL     1       1.125   1.743   0.001  0.00  0.00    -0.263 NA
ATOM     18  C   UNL     1      -0.013   1.076   0.008  0.00  0.00    +0.115 A 
ENDBRANCH   3  13
BRANCH   2  19
ATOM     19  C   UNL     1      -2.933   0.748  -2.469  0.00  0.00    +0.098 C 
ATOM     20  N   UNL     1      -3.202   1.236  -3.459  0.00  0.00    -0.191 NA
ENDBRANCH   2  19
BRANCH   1  21
ATOM     21  S   UNL     1      -2.435  -2.161  -2.657  0.00  0.00    -0.100 S 
BRANCH  21  22
ATOM     22  C   UNL     1      -2.023  -3.796  -1.998  0.00  0.00    +0.171 C 
BRANCH  22  32
ATOM     23  C   UNL     1      -0.782  -8.020   0.707  0.00  0.00    +0.000 A 
ATOM     24  C   UNL     1      -1.016  -6.658   0.770  0.00  0.00    +0.002 A 
ATOM     25  C   UNL     1      -1.345  -5.958  -0.371  0.00  0.00    +0.024 A 
ATOM     26  C   UNL     1      -1.444  -6.617  -1.598  0.00  0.00    +0.040 A 
ATOM     27  C   UNL     1      -1.208  -7.981  -1.650  0.00  0.00    -0.024 A 
ATOM     28  C   UNL     1      -0.879  -8.679  -0.504  0.00  0.00    +0.005 A 
ATOM     29  C   UNL     1      -1.377  -8.444  -3.079  0.00  0.00    +0.056 C 
ATOM     30  C   UNL     1      -1.750  -7.172  -3.857  0.00  0.00    +0.118 C 
ATOM     31  N   UNL     1      -1.760  -6.100  -2.858  0.00  0.00    -0.270 N 
ATOM     32  C   UNL     1      -2.039  -4.807  -3.116  0.00  0.00    +0.230 C 
ATOM     33  O   UNL     1      -2.302  -4.456  -4.247  0.00  0.00    -0.274 OA
ENDBRANCH  22  32
ENDBRANCH  21  22
ENDBRANCH   1  21
TORSDOF 5
