REMARK  Name = ZINC17020947
REMARK  4 active torsions:
REMARK  status: ('A' for Active; 'I' for Inactive)
REMARK    1  A    between atoms: C_1  and  C_2
REMARK    2  A    between atoms: C_13  and  O_15
REMARK    3  A    between atoms: O_15  and  C_16
REMARK    4  A    between atoms: C_30  and  C_31
REMARK                            x       y       z     vdW  Elec       q    Type
REMARK                         _______ _______ _______ _____ _____    ______ ____
ROOT
ATOM      1  C   UNL     1      -0.060  -1.049  -1.399  0.00  0.00    +0.015 C 
ATOM      2  C   UNL     1      -0.004  -0.083  -0.215  0.00  0.00    +0.008 C 
ATOM      3  C   UNL     1      -0.283   1.333  -0.657  0.00  0.00    +0.011 C 
ATOM      4  C   UNL     1       1.022   2.066  -0.992  0.00  0.00    +0.006 C 
ATOM      5  C   UNL     1       2.104   1.092  -1.445  0.00  0.00    +0.010 C 
ATOM      6  C   UNL     1       2.515   0.189  -0.281  0.00  0.00    -0.003 C 
ATOM      7  C   UNL     1       1.327  -0.170   0.559  0.00  0.00    +0.002 C 
ATOM      8  C   UNL     1       1.278  -1.599   1.121  0.00  0.00    +0.008 C 
ATOM      9  C   UNL     1      -0.210  -1.768   1.531  0.00  0.00    +0.045 C 
ATOM     10  C   UNL     1      -0.986  -0.612   0.854  0.00  0.00    +0.180 C 
ATOM     11  C   UNL     1       3.318  -1.005  -0.771  0.00  0.00    +0.008 C 
ATOM     12  C   UNL     1       4.319  -0.564  -1.842  0.00  0.00    +0.032 C 
ATOM     13  C   UNL     1       4.534   0.929  -1.755  0.00  0.00    -0.053 C 
ATOM     14  C   UNL     1       5.750   1.416  -1.531  0.00  0.00    +0.046 C 
ATOM     15  C   UNL     1       5.987   2.853  -1.432  0.00  0.00    +0.156 C 
ATOM     16  O   UNL     1       7.117   3.270  -1.273  0.00  0.00    -0.293 OA
ATOM     17  C   UNL     1       4.838   3.823  -1.526  0.00  0.00    +0.080 C 
ATOM     18  C   UNL     1       3.539   3.123  -1.123  0.00  0.00    +0.026 C 
ATOM     19  C   UNL     1       3.348   1.847  -1.936  0.00  0.00    +0.051 C 
ENDROOT
BRANCH  19  20
ATOM     20  C   UNL     1       3.182   2.175  -3.398  0.00  0.00    +0.234 C 
ATOM     21  O   UNL     1       3.946   1.713  -4.211  0.00  0.00    -0.300 OA
ENDBRANCH  19  20
BRANCH  10  22
ATOM     22  O   UNL     1      -2.169  -1.097   0.225  0.00  0.00    -0.488 OA
BRANCH  22  23
ATOM     23  C   UNL     1      -3.300  -1.127   0.978  0.00  0.00    +0.121 A 
ATOM     24  C   UNL     1      -4.513  -1.467   0.396  0.00  0.00    +0.045 A 
ATOM     25  C   UNL     1      -5.660  -1.502   1.164  0.00  0.00    +0.004 A 
ATOM     26  C   UNL     1      -5.603  -1.187   2.509  0.00  0.00    +0.000 A 
ATOM     27  C   UNL     1      -4.397  -0.842   3.090  0.00  0.00    +0.004 A 
ATOM     28  C   UNL     1      -3.245  -0.811   2.327  0.00  0.00    +0.045 A 
ENDBRANCH  22  23
ENDBRANCH  10  22
TORSDOF 3
