REMARK  Name = ZINC14854781
REMARK  7 active torsions:
REMARK  status: ('A' for Active; 'I' for Inactive)
REMARK    1  A    between atoms: C_1  and  C_2
REMARK    2  A    between atoms: C_2  and  C_3
REMARK    3  A    between atoms: C_2  and  C_4
REMARK    4  A    between atoms: C_2  and  C_5
REMARK    5  A    between atoms: C_12  and  C_14
REMARK    6  A    between atoms: N_16  and  N_17
REMARK    7  A    between atoms: C_18  and  C_20
REMARK                            x       y       z     vdW  Elec       q    Type
REMARK                         _______ _______ _______ _____ _____    ______ ____
ROOT
ATOM      1  C   UNL     1       1.147   1.655   0.000  0.00  0.00    +0.267 C 
ATOM      2  O   UNL     1       1.130   2.872   0.007  0.00  0.00    -0.268 OA
ATOM      3  N   UNL     1      -0.011   0.966   0.007  0.00  0.00    -0.230 N 
ATOM      4  H   UNL     1       0.002  -0.004   0.002  0.00  0.00    +0.173 HD
ENDROOT
BRANCH   1  11
ATOM      5  C   UNL     1       7.099  -0.156  -0.529  0.00  0.00    -0.001 C 
ATOM      6  C   UNL     1       6.804  -1.405   0.307  0.00  0.00    +0.009 C 
ATOM      7  C   UNL     1       5.407  -1.926  -0.058  0.00  0.00    +0.043 C 
ATOM      8  C   UNL     1       4.454  -0.771  -0.044  0.00  0.00    -0.006 A 
ATOM      9  C   UNL     1       4.770   0.558  -0.040  0.00  0.00    -0.036 A 
ATOM     10  C   UNL     1       3.711   1.451  -0.031  0.00  0.00    +0.024 A 
ATOM     11  C   UNL     1       2.426   0.940  -0.016  0.00  0.00    +0.076 A 
ATOM     12  S   UNL     1       2.732  -0.818  -0.029  0.00  0.00    -0.088 S 
ATOM     13  C   UNL     1       6.229   1.007  -0.053  0.00  0.00    +0.040 C 
BRANCH   5  15
ATOM     14  C   UNL     1       8.880   0.516   1.089  0.00  0.00    +0.011 C 
ATOM     15  C   UNL     1       8.575   0.219  -0.381  0.00  0.00    -0.035 C 
ATOM     16  C   UNL     1       9.447  -0.944  -0.857  0.00  0.00    +0.011 C 
ATOM     17  C   UNL     1       8.873   1.459  -1.225  0.00  0.00    +0.011 C 
ENDBRANCH   5  15
ENDBRANCH   1  11
BRANCH   3  18
ATOM     18  N   UNL     1      -1.234   1.650   0.017  0.00  0.00    -0.229 N 
ATOM     19  C   UNL     1      -2.392   0.960   0.019  0.00  0.00    +0.281 C 
ATOM     20  O   UNL     1      -2.375  -0.256   0.012  0.00  0.00    -0.267 OA
ATOM     21  H   UNL     1      -1.247   2.620   0.022  0.00  0.00    +0.173 HD
BRANCH  19  22
ATOM     22  C   UNL     1      -3.680   1.681   0.029  0.00  0.00    +0.155 A 
ATOM     23  C   UNL     1      -4.950   0.936   0.031  0.00  0.00    +0.020 A 
ATOM     24  C   UNL     1      -5.008  -0.453   0.024  0.00  0.00    +0.011 A 
ATOM     25  C   UNL     1      -6.237  -1.079   0.027  0.00  0.00    +0.001 A 
ATOM     26  C   UNL     1      -7.412  -0.338   0.037  0.00  0.00    +0.001 A 
ATOM     27  C   UNL     1      -7.376   1.040   0.043  0.00  0.00    +0.014 A 
ATOM     28  C   UNL     1      -6.146   1.690   0.040  0.00  0.00    +0.050 A 
ATOM     29  C   UNL     1      -6.017   3.154   0.048  0.00  0.00    +0.272 A 
ATOM     30  O   UNL     1      -7.004   3.867   0.057  0.00  0.00    -0.266 OA
ATOM     31  N   UNL     1      -4.779   3.690   0.045  0.00  0.00    -0.242 N 
ATOM     32  H   UNL     1      -4.697   4.656   0.050  0.00  0.00    +0.192 HD
ATOM     33  N   UNL     1      -3.707   2.991   0.041  0.00  0.00    -0.166 NA
ENDBRANCH  19  22
ENDBRANCH   3  18
TORSDOF 4
