REMARK  Name = ZINC39601114
REMARK  8 active torsions:
REMARK  status: ('A' for Active; 'I' for Inactive)
REMARK    1  A    between atoms: C_1  and  C_2
REMARK    2  A    between atoms: C_2  and  C_3
REMARK    3  A    between atoms: C_2  and  C_4
REMARK    4  A    between atoms: C_4  and  C_5
REMARK    5  A    between atoms: C_5  and  N_6
REMARK    6  A    between atoms: C_7  and  C_9
REMARK    7  A    between atoms: C_20  and  C_22
REMARK    8  A    between atoms: C_25  and  C_29
REMARK                            x       y       z     vdW  Elec       q    Type
REMARK                         _______ _______ _______ _____ _____    ______ ____
ROOT
ATOM      1  C   UNL     1      -5.126  -4.390  -0.160  0.00  0.00    +0.100 C 
ATOM      2  C   UNL     1      -5.616  -3.682  -1.443  0.00  0.00    +0.121 C 
ATOM      3  N   UNL     1      -5.449  -4.691  -2.515  0.00  0.00    -0.296 N 
ATOM      4  C   UNL     1      -5.853  -5.970  -1.884  0.00  0.00    +0.115 C 
ATOM      5  C   UNL     1      -5.286  -5.891  -0.452  0.00  0.00    -0.004 C 
ATOM      6  C   UNL     1      -3.932  -6.590  -0.383  0.00  0.00    -0.010 C 
ATOM      7  C   UNL     1      -4.125  -8.091  -0.620  0.00  0.00    -0.082 C 
ATOM      8  N   UNL     1      -5.032  -8.636   0.396  0.00  0.00    +0.379 N 
ATOM      9  C   UNL     1      -6.360  -8.025   0.263  0.00  0.00    -0.082 C 
ATOM     10  C   UNL     1      -6.261  -6.521   0.537  0.00  0.00    -0.010 C 
ATOM     11  C   UNL     1      -5.025  -4.491  -3.779  0.00  0.00    +0.247 C 
ATOM     12  O   UNL     1      -4.607  -3.400  -4.115  0.00  0.00    -0.270 OA
ATOM     13  H   UNL     1      -5.109  -9.635   0.275  0.00  0.00    -0.086 HD
ATOM     14  H   UNL     1      -4.663  -8.439   1.315  0.00  0.00    -0.086 HD
ENDROOT
BRANCH  11  15
ATOM     15  C   UNL     1      -5.068  -5.599  -4.757  0.00  0.00    +0.040 A 
ATOM     16  C   UNL     1      -5.914  -6.689  -4.545  0.00  0.00    +0.014 A 
ATOM     17  C   UNL     1      -5.950  -7.720  -5.460  0.00  0.00    +0.016 A 
ATOM     18  C   UNL     1      -5.151  -7.677  -6.588  0.00  0.00    +0.090 A 
ATOM     19  C   UNL     1      -4.308  -6.599  -6.806  0.00  0.00    +0.136 A 
ATOM     20  C   UNL     1      -4.267  -5.557  -5.899  0.00  0.00    +0.052 A 
ATOM     21  F   UNL     1      -3.529  -6.564  -7.909  0.00  0.00    -0.205 F 
BRANCH  18  22
ATOM     22  C   UNL     1      -5.196  -8.807  -7.584  0.00  0.00    +0.420 C 
ATOM     23  F   UNL     1      -6.112  -9.772  -7.153  0.00  0.00    -0.166 F 
ATOM     24  F   UNL     1      -5.592  -8.313  -8.832  0.00  0.00    -0.166 F 
ATOM     25  F   UNL     1      -3.926  -9.384  -7.692  0.00  0.00    -0.166 F 
ENDBRANCH  18  22
ENDBRANCH  11  15
BRANCH   1  27
ATOM     26  N   UNL     1      -3.184  -4.149   1.352  0.00  0.00    -0.315 N 
ATOM     27  C   UNL     1      -3.680  -4.058   0.103  0.00  0.00    +0.218 C 
ATOM     28  O   UNL     1      -2.962  -3.708  -0.810  0.00  0.00    -0.275 OA
ATOM     29  H   UNL     1      -3.757  -4.429   2.083  0.00  0.00    +0.149 HD
BRANCH  26  30
ATOM     30  C   UNL     1      -1.778  -3.826   1.608  0.00  0.00    +0.104 C 
BRANCH  30  31
ATOM     31  C   UNL     1      -1.474  -4.011   3.096  0.00  0.00    +0.022 C 
BRANCH  31  33
ATOM     32  C   UNL     1       0.267  -3.737   4.867  0.00  0.00    +0.007 C 
ATOM     33  C   UNL     1      -0.006  -3.674   3.363  0.00  0.00    -0.016 C 
ATOM     34  C   UNL     1       0.889  -4.682   2.639  0.00  0.00    +0.007 C 
ENDBRANCH  31  33
ENDBRANCH  30  31
ENDBRANCH  26  30
ENDBRANCH   1  27
TORSDOF 6
