REMARK  Name = ZINC12497201
REMARK  6 active torsions:
REMARK  status: ('A' for Active; 'I' for Inactive)
REMARK    1  A    between atoms: C_10  and  C_11
REMARK    2  A    between atoms: C_12  and  C_13
REMARK    3  A    between atoms: N_15  and  C_16
REMARK    4  A    between atoms: C_16  and  N_18
REMARK    5  A    between atoms: N_18  and  C_19
REMARK    6  A    between atoms: C_20  and  C_28
REMARK                            x       y       z     vdW  Elec       q    Type
REMARK                         _______ _______ _______ _____ _____    ______ ____
ROOT
ATOM      1  C   UNL     1       8.458   3.466  -0.059  0.00  0.00    +0.141 C 
ATOM      2  S   UNL     1       8.546   1.756  -0.068  0.00  0.00    -0.018 S 
ENDROOT
BRANCH   1   5
ATOM      3  C   UNL     1       6.127   3.346  -0.038  0.00  0.00    +0.242 C 
ATOM      4  O   UNL     1       6.189   2.131  -0.044  0.00  0.00    -0.270 OA
ATOM      5  N   UNL     1       7.258   4.079  -0.045  0.00  0.00    -0.264 N 
ATOM      6  H   UNL     1       7.209   5.048  -0.041  0.00  0.00    +0.157 HD
BRANCH   3   8
ATOM      7  C   UNL     1       3.691   3.276  -0.016  0.00  0.00    +0.013 C 
ATOM      8  C   UNL     1       4.826   4.011  -0.023  0.00  0.00    +0.068 C 
BRANCH   7  18
ATOM      9  C   UNL     1      -1.233   1.746   0.017  0.00  0.00    +0.001 A 
ATOM     10  C   UNL     1      -0.013   1.076   0.008  0.00  0.00    +0.001 A 
ATOM     11  C   UNL     1       1.164   1.764   0.000  0.00  0.00    +0.009 A 
ATOM     12  C   UNL     1       1.147   3.163   0.008  0.00  0.00    -0.011 A 
ATOM     13  C   UNL     1      -0.092   3.849   0.023  0.00  0.00    -0.017 A 
ATOM     14  C   UNL     1      -1.286   3.107   0.030  0.00  0.00    +0.008 A 
ATOM     15  C   UNL     1      -0.105   5.253   0.029  0.00  0.00    +0.008 A 
ATOM     16  C   UNL     1       1.059   5.960   0.021  0.00  0.00    +0.001 A 
ATOM     17  C   UNL     1       2.296   5.333   0.005  0.00  0.00    +0.008 A 
ATOM     18  C   UNL     1       2.385   3.943  -0.001  0.00  0.00    -0.017 A 
ENDBRANCH   7  18
ENDBRANCH   3   8
ENDBRANCH   1   5
BRANCH   1  19
ATOM     19  N   UNL     1       9.589   4.198  -0.067  0.00  0.00    -0.291 N 
ATOM     20  H   UNL     1       9.540   5.167  -0.062  0.00  0.00    +0.154 HD
BRANCH  19  21
ATOM     21  C   UNL     1      10.823   3.568  -0.081  0.00  0.00    +0.084 A 
ATOM     22  C   UNL     1      12.086   4.144  -0.096  0.00  0.00    +0.068 A 
ATOM     23  C   UNL     1      13.232   3.250  -0.106  0.00  0.00    -0.023 A 
ATOM     24  C   UNL     1      12.933   1.933  -0.109  0.00  0.00    -0.004 A 
ATOM     25  S   UNL     1      11.164   1.869  -0.092  0.00  0.00    -0.077 S 
ATOM     26  C   UNL     1      13.899   0.788  -0.125  0.00  0.00    +0.043 C 
ATOM     27  C   UNL     1      15.283   1.328  -0.515  0.00  0.00    +0.005 C 
ATOM     28  C   UNL     1      15.581   2.573   0.325  0.00  0.00    +0.005 C 
ATOM     29  C   UNL     1      14.679   3.727  -0.117  0.00  0.00    +0.037 C 
BRANCH  22  30
ATOM     30  C   UNL     1      12.258   5.600  -0.098  0.00  0.00    +0.244 C 
ATOM     31  O   UNL     1      12.342   6.204   0.955  0.00  0.00    -0.270 OA
ATOM     32  N   UNL     1      12.322   6.269  -1.266  0.00  0.00    -0.325 N 
ATOM     33  H   UNL     1      12.255   5.787  -2.106  0.00  0.00    +0.145 HD
ATOM     34  H   UNL     1      12.436   7.232  -1.268  0.00  0.00    +0.145 HD
ENDBRANCH  22  30
ENDBRANCH  19  21
ENDBRANCH   1  19
TORSDOF 6
