REMARK  Name = ZINC39530499
REMARK  8 active torsions:
REMARK  status: ('A' for Active; 'I' for Inactive)
REMARK    1  A    between atoms: C_4  and  O_7
REMARK    2  A    between atoms: O_7  and  S_8
REMARK    3  A    between atoms: S_8  and  C_11
REMARK    4  A    between atoms: C_13  and  O_34
REMARK    5  A    between atoms: C_16  and  N_17
REMARK    6  A    between atoms: C_21  and  S_24
REMARK    7  A    between atoms: S_24  and  O_27
REMARK    8  A    between atoms: O_27  and  C_28
REMARK                            x       y       z     vdW  Elec       q    Type
REMARK                         _______ _______ _______ _____ _____    ______ ____
ROOT
ATOM      1  C   UNL     1       3.192  -2.273   2.002  0.00  0.00    +0.152 A 
ATOM      2  C   UNL     1       2.051  -2.014   2.737  0.00  0.00    +0.077 A 
ATOM      3  C   UNL     1       1.305  -3.062   3.253  0.00  0.00    +0.119 A 
ATOM      4  C   UNL     1       1.703  -4.373   3.032  0.00  0.00    +0.047 A 
ATOM      5  C   UNL     1       2.844  -4.634   2.298  0.00  0.00    +0.029 A 
ATOM      6  C   UNL     1       3.588  -3.585   1.776  0.00  0.00    +0.058 A 
ENDROOT
BRANCH   6   7
ATOM      7  N   UNL     1       4.741  -3.849   1.027  0.00  0.00    -0.330 N 
ATOM      8  C   UNL     1       6.054  -3.970   1.678  0.00  0.00    +0.086 C 
ATOM      9  C   UNL     1       6.715  -5.269   1.202  0.00  0.00    -0.061 C 
ATOM     10  N   UNL     1       6.762  -5.282  -0.266  0.00  0.00    +0.398 N 
ATOM     11  C   UNL     1       5.398  -5.309  -0.810  0.00  0.00    +0.133 C 
ATOM     12  C   UNL     1       4.672  -4.019  -0.432  0.00  0.00    +0.115 C 
ATOM     13  H   UNL     1       7.237  -4.454  -0.594  0.00  0.00    -0.083 HD
ATOM     14  H   UNL     1       7.263  -6.100  -0.578  0.00  0.00    -0.083 HD
BRANCH  11  15
ATOM     15  S   UNL     1       5.471  -5.458  -2.616  0.00  0.00    +0.109 S 
ATOM     16  O   UNL     1       4.167  -5.665  -3.143  0.00  0.00    -0.138 OA
ATOM     17  O   UNL     1       6.319  -4.455  -3.157  0.00  0.00    -0.138 OA
BRANCH  15  18
ATOM     18  O   UNL     1       6.205  -6.767  -2.872  0.00  0.00    -0.347 OA
BRANCH  18  19
ATOM     19  C   UNL     1       5.454  -7.876  -2.641  0.00  0.00    +0.156 A 
ATOM     20  C   UNL     1       5.438  -8.454  -1.380  0.00  0.00    +0.048 A 
ATOM     21  C   UNL     1       4.673  -9.581  -1.148  0.00  0.00    +0.004 A 
ATOM     22  C   UNL     1       3.925 -10.133  -2.172  0.00  0.00    +0.000 A 
ATOM     23  C   UNL     1       3.941  -9.559  -3.430  0.00  0.00    +0.004 A 
ATOM     24  C   UNL     1       4.699  -8.429  -3.665  0.00  0.00    +0.048 A 
ENDBRANCH  18  19
ENDBRANCH  15  18
ENDBRANCH  11  15
ENDBRANCH   6   7
BRANCH   1  25
ATOM     25  S   UNL     1       4.140  -0.941   1.346  0.00  0.00    +0.153 S 
ATOM     26  O   UNL     1       5.458  -1.436   1.154  0.00  0.00    -0.131 OA
ATOM     27  O   UNL     1       3.863   0.192   2.158  0.00  0.00    -0.131 OA
BRANCH  25  28
ATOM     28  O   UNL     1       3.586  -0.632  -0.037  0.00  0.00    -0.342 OA
BRANCH  28  32
ATOM     29  C   UNL     1      -0.017   1.378   0.010  0.00  0.00    +0.000 A 
ATOM     30  C   UNL     1       1.170   2.088   0.002  0.00  0.00    +0.004 A 
ATOM     31  C   UNL     1       2.377   1.417  -0.013  0.00  0.00    +0.048 A 
ATOM     32  C   UNL     1       2.399   0.030  -0.021  0.00  0.00    +0.157 A 
ATOM     33  C   UNL     1       1.207  -0.680  -0.013  0.00  0.00    +0.048 A 
ATOM     34  C   UNL     1       0.002  -0.004   0.002  0.00  0.00    +0.004 A 
ENDBRANCH  28  32
ENDBRANCH  25  28
ENDBRANCH   1  25
BRANCH   3  35
ATOM     35  O   UNL     1       0.182  -2.806   3.976  0.00  0.00    -0.507 OA
ATOM     36  H   UNL     1      -0.624  -2.753   3.445  0.00  0.00    +0.292 HD
ENDBRANCH   3  35
TORSDOF 8
