REMARK  Name = ZINC36508365
REMARK  15 active torsions:
REMARK  status: ('A' for Active; 'I' for Inactive)
REMARK    1  A    between atoms: C_1  and  C_2
REMARK    2  A    between atoms: C_2  and  C_3
REMARK    3  A    between atoms: C_3  and  C_4
REMARK    4  A    between atoms: C_4  and  C_5
REMARK    5  A    between atoms: C_5  and  C_6
REMARK    6  A    between atoms: C_6  and  N_7
REMARK    7  A    between atoms: N_7  and  C_8
REMARK    8  A    between atoms: C_8  and  C_10
REMARK    9  A    between atoms: C_8  and  C_17
REMARK   10  A    between atoms: C_15  and  C_16
REMARK   11  A    between atoms: N_19  and  C_20
REMARK   12  A    between atoms: C_20  and  S_21
REMARK   13  A    between atoms: S_21  and  C_24
REMARK   14  A    between atoms: C_27  and  C_30
REMARK   15  A    between atoms: C_31  and  C_33
REMARK                            x       y       z     vdW  Elec       q    Type
REMARK                         _______ _______ _______ _____ _____    ______ ____
ROOT
ATOM      1  C   UNL     1      -5.050  -4.293  -1.067  0.00  0.00    +0.192 C 
ENDROOT
BRANCH   1   2
ATOM      2  C   UNL     1      -5.072  -5.799  -1.014  0.00  0.00    -0.015 A 
ATOM      3  C   UNL     1      -6.133  -6.454  -0.416  0.00  0.00    +0.006 A 
ATOM      4  C   UNL     1      -6.154  -7.835  -0.368  0.00  0.00    +0.000 A 
ATOM      5  C   UNL     1      -5.114  -8.561  -0.917  0.00  0.00    +0.000 A 
ATOM      6  C   UNL     1      -4.054  -7.907  -1.515  0.00  0.00    +0.004 A 
ATOM      7  C   UNL     1      -4.035  -6.525  -1.567  0.00  0.00    -0.045 A 
ATOM      8  C   UNL     1      -2.881  -5.812  -2.224  0.00  0.00    +0.044 C 
ENDBRANCH   1   2
BRANCH   1   9
ATOM      9  C   UNL     1      -6.428  -3.759  -0.773  0.00  0.00    +0.239 C 
ATOM     10  O   UNL     1      -6.663  -3.244   0.299  0.00  0.00    -0.273 OA
ATOM     11  N   UNL     1      -7.399  -3.854  -1.703  0.00  0.00    -0.294 N 
ATOM     12  H   UNL     1      -7.233  -4.330  -2.531  0.00  0.00    +0.150 HD
BRANCH  11  13
ATOM     13  C   UNL     1      -8.707  -3.237  -1.462  0.00  0.00    +0.278 C 
BRANCH  13  14
ATOM     14  S   UNL     1      -8.745  -1.588  -2.215  0.00  0.00    +0.013 S 
ATOM     15  O   UNL     1     -10.028  -1.002  -2.044  0.00  0.00    -0.168 OA
ATOM     16  O   UNL     1      -7.569  -0.867  -1.875  0.00  0.00    -0.168 OA
BRANCH  14  17
ATOM     17  C   UNL     1      -8.610  -1.878  -3.948  0.00  0.00    +0.090 A 
ATOM     18  C   UNL     1      -7.364  -1.932  -4.544  0.00  0.00    +0.027 A 
ATOM     19  C   UNL     1      -7.259  -2.159  -5.904  0.00  0.00    +0.005 A 
ATOM     20  C   UNL     1      -8.398  -2.333  -6.666  0.00  0.00    -0.050 A 
ATOM     21  C   UNL     1      -9.644  -2.280  -6.069  0.00  0.00    +0.005 A 
ATOM     22  C   UNL     1      -9.750  -2.057  -4.709  0.00  0.00    +0.027 A 
ATOM     23  C   UNL     1      -8.283  -2.581  -8.148  0.00  0.00    +0.044 C 
ENDBRANCH  14  17
ENDBRANCH  13  14
ENDBRANCH  11  13
ENDBRANCH   1   9
BRANCH   1  24
ATOM     24  N   UNL     1      -4.106  -3.783  -0.069  0.00  0.00    -0.286 N 
ATOM     25  C   UNL     1      -4.239  -4.134   1.226  0.00  0.00    +0.220 C 
ATOM     26  O   UNL     1      -5.087  -4.937   1.552  0.00  0.00    -0.275 OA
BRANCH  25  27
ATOM     27  C   UNL     1      -3.334  -3.528   2.267  0.00  0.00    +0.075 C 
ATOM     28  C   UNL     1      -1.938  -4.143   2.150  0.00  0.00    +0.013 C 
ATOM     29  C   UNL     1      -1.019  -3.528   3.208  0.00  0.00    +0.001 C 
ATOM     30  C   UNL     1      -1.585  -3.810   4.601  0.00  0.00    +0.000 C 
ATOM     31  C   UNL     1      -2.981  -3.195   4.718  0.00  0.00    +0.001 C 
ATOM     32  C   UNL     1      -3.900  -3.810   3.661  0.00  0.00    +0.013 C 
ENDBRANCH  25  27
BRANCH  24  33
ATOM     33  C   UNL     1      -3.017  -2.892  -0.478  0.00  0.00    +0.109 C 
BRANCH  33  34
ATOM     34  C   UNL     1      -3.530  -1.451  -0.530  0.00  0.00    +0.019 C 
BRANCH  34  35
ATOM     35  C   UNL     1      -2.393  -0.521  -0.958  0.00  0.00    +0.002 C 
BRANCH  35  36
ATOM     36  C   UNL     1      -2.905   0.920  -1.010  0.00  0.00    -0.000 C 
BRANCH  36  38
ATOM     37  C   UNL     1      -2.281   3.291  -1.489  0.00  0.00    +0.004 C 
ATOM     38  C   UNL     1      -1.769   1.850  -1.437  0.00  0.00    -0.003 C 
ENDBRANCH  36  38
ENDBRANCH  35  36
ENDBRANCH  34  35
ENDBRANCH  33  34
ENDBRANCH  24  33
ENDBRANCH   1  24
TORSDOF 12
