REMARK  Name = ZINC67544649
REMARK  4 active torsions:
REMARK  status: ('A' for Active; 'I' for Inactive)
REMARK    1  A    between atoms: C_1  and  C_2
REMARK    2  A    between atoms: C_5  and  C_28
REMARK    3  A    between atoms: C_14  and  C_16
REMARK    4  A    between atoms: C_19  and  C_21
REMARK                            x       y       z     vdW  Elec       q    Type
REMARK                         _______ _______ _______ _____ _____    ______ ____
ROOT
ATOM      1  C   UNL     1      -0.219   1.608  -0.053  0.00  0.00    +0.028 C 
ATOM      2  C   UNL     1      -0.162   0.093  -0.258  0.00  0.00    +0.080 C 
ATOM      3  C   UNL     1      -1.577  -0.495  -0.186  0.00  0.00    +0.040 C 
ATOM      4  C   UNL     1      -2.205  -0.107   1.152  0.00  0.00    +0.108 C 
ATOM      5  C   UNL     1      -1.283  -0.459   2.290  0.00  0.00    -0.014 A 
ATOM      6  C   UNL     1      -1.811  -0.596   3.563  0.00  0.00    +0.006 A 
ATOM      7  C   UNL     1      -0.991  -0.915   4.627  0.00  0.00    +0.000 A 
ATOM      8  C   UNL     1       0.365  -1.100   4.428  0.00  0.00    +0.002 A 
ATOM      9  C   UNL     1       0.899  -0.967   3.162  0.00  0.00    +0.024 A 
ATOM     10  C   UNL     1       0.075  -0.647   2.089  0.00  0.00    +0.041 A 
ATOM     11  N   UNL     1       0.637  -0.524   0.810  0.00  0.00    -0.264 N 
ATOM     12  C   UNL     1       1.887  -0.965   0.564  0.00  0.00    +0.259 C 
ATOM     13  O   UNL     1       2.489  -1.594   1.415  0.00  0.00    -0.269 OA
ENDROOT
BRANCH  12  14
ATOM     14  C   UNL     1       2.521  -0.686  -0.727  0.00  0.00    +0.094 A 
ATOM     15  C   UNL     1       3.720  -1.158  -1.247  0.00  0.00    +0.132 A 
ATOM     16  N   UNL     1       4.040  -0.736  -2.442  0.00  0.00    -0.246 NA
ATOM     17  C   UNL     1       3.261   0.096  -3.114  0.00  0.00    +0.112 A 
ATOM     18  S   UNL     1       1.963   0.348  -2.072  0.00  0.00    -0.063 S 
BRANCH  17  19
ATOM     19  C   UNL     1       3.475   0.664  -4.460  0.00  0.00    +0.042 A 
ATOM     20  C   UNL     1       2.537   1.538  -5.011  0.00  0.00    +0.013 A 
ATOM     21  C   UNL     1       2.743   2.065  -6.268  0.00  0.00    +0.001 A 
ATOM     22  C   UNL     1       3.878   1.728  -6.987  0.00  0.00    +0.003 A 
ATOM     23  C   UNL     1       4.813   0.863  -6.450  0.00  0.00    +0.039 A 
ATOM     24  C   UNL     1       4.622   0.332  -5.188  0.00  0.00    +0.133 A 
ATOM     25  F   UNL     1       5.539  -0.509  -4.661  0.00  0.00    -0.205 F 
ENDBRANCH  17  19
ENDBRANCH  12  14
BRANCH   4  26
ATOM     26  C   UNL     1      -3.508  -0.845   1.323  0.00  0.00    +0.218 C 
ATOM     27  O   UNL     1      -3.618  -1.983   0.917  0.00  0.00    -0.275 OA
ATOM     28  N   UNL     1      -4.551  -0.241   1.925  0.00  0.00    -0.329 N 
ATOM     29  H   UNL     1      -4.442   0.641   2.314  0.00  0.00    +0.145 HD
ATOM     30  H   UNL     1      -5.411  -0.689   1.970  0.00  0.00    +0.145 HD
ENDBRANCH   4  26
TORSDOF 3
