REMARK  Name = ZINC25791773
REMARK  6 active torsions:
REMARK  status: ('A' for Active; 'I' for Inactive)
REMARK    1  A    between atoms: C_3  and  C_13
REMARK    2  A    between atoms: C_6  and  C_7
REMARK    3  A    between atoms: C_13  and  O_15
REMARK    4  A    between atoms: O_15  and  C_16
REMARK    5  A    between atoms: C_16  and  C_17
REMARK    6  A    between atoms: N_23  and  C_24
REMARK                            x       y       z     vdW  Elec       q    Type
REMARK                         _______ _______ _______ _____ _____    ______ ____
ROOT
ATOM      1  C   UNL     1       1.366   3.582   0.015  0.00  0.00    +0.173 A 
ATOM      2  N   UNL     1       1.450   4.265   1.143  0.00  0.00    -0.196 NA
ATOM      3  C   UNL     1       1.268   5.584   1.140  0.00  0.00    +0.217 A 
ATOM      4  N   UNL     1       1.001   6.213   0.001  0.00  0.00    -0.181 NA
ATOM      5  C   UNL     1       0.918   5.524  -1.131  0.00  0.00    +0.224 A 
ATOM      6  N   UNL     1       1.107   4.206  -1.121  0.00  0.00    -0.196 NA
ATOM      7  N   UNL     1       0.641   6.173  -2.318  0.00  0.00    -0.284 N 
ATOM      8  N   UNL     1       1.355   6.296   2.319  0.00  0.00    -0.327 N 
ATOM      9  H   UNL     1       0.661   5.617  -3.267  0.00  0.00    +0.155 HD
ATOM     10  H   UNL     1       1.204   7.386   2.316  0.00  0.00    +0.145 HD
ATOM     11  H   UNL     1       1.575   5.774   3.262  0.00  0.00    +0.145 HD
ENDROOT
BRANCH   7  12
ATOM     12  C   UNL     1       0.334   7.539  -2.313  0.00  0.00    +0.034 A 
ATOM     13  C   UNL     1      -0.355   8.093  -1.243  0.00  0.00    +0.026 A 
ATOM     14  C   UNL     1      -0.652   9.442  -1.238  0.00  0.00    +0.040 A 
ATOM     15  C   UNL     1      -0.273  10.239  -2.304  0.00  0.00    +0.124 A 
ATOM     16  C   UNL     1       0.410   9.688  -3.375  0.00  0.00    +0.040 A 
ATOM     17  C   UNL     1       0.714   8.340  -3.382  0.00  0.00    +0.026 A 
ATOM     18  F   UNL     1      -0.569  11.557  -2.300  0.00  0.00    -0.205 F 
ENDBRANCH   7  12
BRANCH   1  19
ATOM     19  C   UNL     1       1.573   2.090   0.023  0.00  0.00    +0.308 C 
BRANCH  19  20
ATOM     20  O   UNL     1       0.299   1.426   0.236  0.00  0.00    -0.453 OA
BRANCH  20  21
ATOM     21  C   UNL     1       0.310   0.079   0.271  0.00  0.00    +0.340 C 
ATOM     22  O   UNL     1       1.354  -0.524   0.126  0.00  0.00    -0.245 OA
BRANCH  21  25
ATOM     23  C   UNL     1      -2.121  -2.748   0.720  0.00  0.00    +0.006 A 
ATOM     24  C   UNL     1      -0.942  -2.060   0.520  0.00  0.00    +0.015 A 
ATOM     25  C   UNL     1      -0.949  -0.664   0.484  0.00  0.00    +0.059 A 
ATOM     26  C   UNL     1      -2.151   0.026   0.657  0.00  0.00    +0.015 A 
ATOM     27  C   UNL     1      -3.323  -0.674   0.850  0.00  0.00    +0.006 A 
ATOM     28  C   UNL     1      -3.309  -2.058   0.884  0.00  0.00    -0.025 A 
BRANCH  28  29
ATOM     29  C   UNL     1      -4.593  -2.816   1.102  0.00  0.00    +0.133 C 
ATOM     30  S   UNL     1      -5.772  -2.407  -0.218  0.00  0.00    -0.142 S 
ATOM     31  C   UNL     1      -7.279  -3.294   0.262  0.00  0.00    +0.071 C 
ATOM     32  C   UNL     1      -7.788  -2.772   1.601  0.00  0.00    +0.021 C 
ATOM     33  C   UNL     1      -6.891  -3.240   2.742  0.00  0.00    +0.071 C 
ATOM     34  S   UNL     1      -5.315  -2.344   2.700  0.00  0.00    -0.142 S 
ENDBRANCH  28  29
ENDBRANCH  21  25
ENDBRANCH  20  21
ENDBRANCH  19  20
ENDBRANCH   1  19
TORSDOF 6
