REMARK  Name = ZINC20786846
REMARK  5 active torsions:
REMARK  status: ('A' for Active; 'I' for Inactive)
REMARK    1  A    between atoms: C_5  and  O_7
REMARK    2  A    between atoms: O_7  and  C_8
REMARK    3  A    between atoms: C_8  and  C_9
REMARK    4  A    between atoms: N_11  and  N_12
REMARK    5  A    between atoms: C_21  and  O_22
REMARK                            x       y       z     vdW  Elec       q    Type
REMARK                         _______ _______ _______ _____ _____    ______ ____
ROOT
ATOM      1  N   UNL     1       4.946   7.746  -0.003  0.00  0.00    -0.174 NA
ATOM      2  C   UNL     1       5.098   9.046  -0.097  0.00  0.00    +0.152 C 
ATOM      3  C   UNL     1       4.045  10.088  -0.100  0.00  0.00    +0.035 A 
ATOM      4  C   UNL     1       2.660  10.058  -0.014  0.00  0.00    +0.032 A 
ATOM      5  C   UNL     1       1.945  11.241  -0.046  0.00  0.00    +0.043 A 
ATOM      6  C   UNL     1       2.608  12.453  -0.165  0.00  0.00    +0.042 A 
ATOM      7  C   UNL     1       3.984  12.499  -0.253  0.00  0.00    +0.068 A 
ATOM      8  C   UNL     1       4.728  11.314  -0.222  0.00  0.00    +0.095 A 
ATOM      9  N   UNL     1       6.065  11.078  -0.288  0.00  0.00    -0.210 NA
ATOM     10  C   UNL     1       6.358   9.806  -0.217  0.00  0.00    +0.241 C 
ATOM     11 CL   UNL     1       4.793  14.028  -0.402  0.00  0.00    -0.081 Cl
ATOM     12 CL   UNL     1       0.213  11.208   0.062  0.00  0.00    -0.083 Cl
ENDROOT
BRANCH   1  15
ATOM     13  C   UNL     1       3.599   5.912   0.199  0.00  0.00    +0.270 C 
ATOM     14  O   UNL     1       4.538   5.178  -0.028  0.00  0.00    -0.270 OA
ATOM     15  N   UNL     1       3.777   7.247   0.220  0.00  0.00    -0.203 N 
ATOM     16  H   UNL     1       2.926   7.913   0.426  0.00  0.00    +0.177 HD
BRANCH  13  17
ATOM     17  C   UNL     1       2.234   5.329   0.460  0.00  0.00    +0.326 C 
BRANCH  17  18
ATOM     18  O   UNL     1       2.302   3.904   0.384  0.00  0.00    -0.480 OA
BRANCH  18  23
ATOM     19  C   UNL     1      -1.200   3.206   1.087  0.00  0.00    +0.004 A 
ATOM     20  C   UNL     1      -1.206   1.825   1.023  0.00  0.00    +0.003 A 
ATOM     21  C   UNL     1      -0.037   1.137   0.754  0.00  0.00    +0.042 A 
ATOM     22  C   UNL     1       1.140   1.831   0.538  0.00  0.00    +0.165 A 
ATOM     23  C   UNL     1       1.147   3.219   0.596  0.00  0.00    +0.156 A 
ATOM     24  C   UNL     1      -0.027   3.905   0.871  0.00  0.00    +0.048 A 
ATOM     25  F   UNL     1       2.281   1.160   0.270  0.00  0.00    -0.202 F 
ENDBRANCH  18  23
ENDBRANCH  17  18
ENDBRANCH  13  17
ENDBRANCH   1  15
BRANCH  10  26
ATOM     26  O   UNL     1       7.604   9.276  -0.251  0.00  0.00    -0.491 OA
ATOM     27  H   UNL     1       8.480   9.935  -0.343  0.00  0.00    +0.294 HD
ENDBRANCH  10  26
TORSDOF 5
