REMARK  Name = ZINC09391472
REMARK  11 active torsions:
REMARK  status: ('A' for Active; 'I' for Inactive)
REMARK    1  A    between atoms: C_1  and  C_2
REMARK    2  A    between atoms: C_2  and  O_3
REMARK    3  A    between atoms: O_3  and  C_4
REMARK    4  A    between atoms: C_4  and  C_6
REMARK    5  A    between atoms: C_10  and  N_11
REMARK    6  A    between atoms: C_12  and  C_14
REMARK    7  A    between atoms: C_17  and  S_20
REMARK    8  A    between atoms: S_20  and  N_23
REMARK    9  A    between atoms: N_23  and  C_24
REMARK   10  A    between atoms: N_23  and  C_25
REMARK   11  A    between atoms: C_30  and  C_32
REMARK                            x       y       z     vdW  Elec       q    Type
REMARK                         _______ _______ _______ _____ _____    ______ ____
ROOT
ATOM      1  C   UNL     1       1.244   1.962   0.001  0.00  0.00    +0.091 A 
ATOM      2  C   UNL     1       1.879   2.354  -1.247  0.00  0.00    -0.018 A 
ATOM      3  C   UNL     1       3.033   3.043  -1.109  0.00  0.00    +0.013 A 
ATOM      4  S   UNL     1       3.283   3.170   0.638  0.00  0.00    -0.076 S 
ATOM      5  C   UNL     1       1.871   2.329   1.184  0.00  0.00    +0.087 A 
ATOM      6  C   UNL     1       3.898   3.577  -2.211  0.00  0.00    +0.150 C 
ATOM      7  N   UNL     1       3.387   3.014  -3.477  0.00  0.00    -0.297 N 
ATOM      8  C   UNL     1       1.929   2.965  -3.659  0.00  0.00    +0.113 C 
ATOM      9  C   UNL     1       1.314   2.023  -2.622  0.00  0.00    +0.056 C 
ATOM     10  C   UNL     1       4.226   2.561  -4.429  0.00  0.00    +0.213 C 
ATOM     11  O   UNL     1       3.782   2.102  -5.461  0.00  0.00    -0.276 OA
ATOM     12  C   UNL     1       5.716   2.624  -4.213  0.00  0.00    +0.109 C 
ENDROOT
BRANCH   5  13
ATOM     13  N   UNL     1       1.466   2.081   2.486  0.00  0.00    -0.275 N 
ATOM     14  C   UNL     1       2.212   2.520   3.518  0.00  0.00    +0.249 C 
ATOM     15  O   UNL     1       3.240   3.133   3.308  0.00  0.00    -0.270 OA
ATOM     16  H   UNL     1       0.645   1.591   2.653  0.00  0.00    +0.156 HD
BRANCH  14  17
ATOM     17  C   UNL     1       1.780   2.255   4.907  0.00  0.00    +0.037 A 
ATOM     18  C   UNL     1       0.597   1.556   5.152  0.00  0.00    +0.015 A 
ATOM     19  C   UNL     1       0.202   1.308   6.450  0.00  0.00    +0.029 A 
ATOM     20  C   UNL     1       0.971   1.760   7.509  0.00  0.00    +0.105 A 
ATOM     21  C   UNL     1       2.142   2.458   7.273  0.00  0.00    +0.029 A 
ATOM     22  C   UNL     1       2.551   2.708   5.979  0.00  0.00    +0.015 A 
BRANCH  20  23
ATOM     23  S   UNL     1       0.456   1.444   9.164  0.00  0.00    +0.060 S 
ATOM     24  O   UNL     1      -0.387   0.301   9.116  0.00  0.00    -0.153 OA
ATOM     25  O   UNL     1       1.626   1.494   9.969  0.00  0.00    -0.153 OA
BRANCH  23  26
ATOM     26  N   UNL     1      -0.496   2.715   9.632  0.00  0.00    -0.183 NA
ATOM     27  C   UNL     1      -1.942   2.670   9.404  0.00  0.00    +0.131 C 
ATOM     28  C   UNL     1       0.108   3.886  10.273  0.00  0.00    +0.131 C 
ENDBRANCH  23  26
ENDBRANCH  20  23
ENDBRANCH  14  17
ENDBRANCH   5  13
BRANCH   1  29
ATOM     29  C   UNL     1      -0.014   1.212   0.009  0.00  0.00    +0.342 C 
ATOM     30  O   UNL     1       0.002  -0.004   0.002  0.00  0.00    -0.245 OA
BRANCH  29  31
ATOM     31  O   UNL     1      -1.192   1.871   0.018  0.00  0.00    -0.461 OA
BRANCH  31  33
ATOM     32  C   UNL     1      -3.624   1.979   0.030  0.00  0.00    +0.048 C 
ATOM     33  C   UNL     1      -2.398   1.063   0.019  0.00  0.00    +0.229 C 
ENDBRANCH  31  33
ENDBRANCH  29  31
ENDBRANCH   1  29
TORSDOF 7
