REMARK  Name = ZINC02237265
REMARK  11 active torsions:
REMARK  status: ('A' for Active; 'I' for Inactive)
REMARK    1  A    between atoms: C_1  and  C_2
REMARK    2  A    between atoms: C_5  and  C_8
REMARK    3  A    between atoms: C_8  and  C_18
REMARK    4  A    between atoms: C_12  and  C_15
REMARK    5  A    between atoms: C_15  and  C_16
REMARK    6  A    between atoms: C_15  and  C_17
REMARK    7  A    between atoms: C_18  and  C_19
REMARK    8  A    between atoms: C_19  and  N_20
REMARK    9  A    between atoms: N_20  and  S_21
REMARK   10  A    between atoms: S_21  and  C_24
REMARK   11  A    between atoms: C_27  and  C_30
REMARK                            x       y       z     vdW  Elec       q    Type
REMARK                         _______ _______ _______ _____ _____    ______ ____
ROOT
ATOM      1  C   UNL     1       0.139  -4.173   0.019  0.00  0.00    +0.001 C 
ATOM      2  C   UNL     1      -1.231  -4.472  -0.597  0.00  0.00    +0.040 C 
ATOM      3  C   UNL     1      -2.326  -3.941   0.331  0.00  0.00    +0.161 C 
ATOM      4  O   UNL     1      -2.188  -4.539   1.621  0.00  0.00    -0.376 OA
ATOM      5  C   UNL     1      -0.945  -4.255   2.266  0.00  0.00    +0.122 C 
ATOM      6  C   UNL     1       0.206  -4.798   1.416  0.00  0.00    +0.043 C 
ENDROOT
BRANCH   1  11
ATOM      7  C   UNL     1       0.866   1.546   0.430  0.00  0.00    +0.044 C 
ATOM      8  C   UNL     1       0.677   0.054   0.323  0.00  0.00    -0.050 A 
ATOM      9  C   UNL     1      -0.402  -0.457  -0.374  0.00  0.00    +0.003 A 
ATOM     10  C   UNL     1      -0.576  -1.825  -0.472  0.00  0.00    +0.004 A 
ATOM     11  C   UNL     1       0.329  -2.681   0.126  0.00  0.00    -0.041 A 
ATOM     12  C   UNL     1       1.409  -2.170   0.822  0.00  0.00    +0.004 A 
ATOM     13  C   UNL     1       1.585  -0.802   0.916  0.00  0.00    +0.003 A 
ENDBRANCH   1  11
BRANCH   5  14
ATOM     14  C   UNL     1      -0.921  -4.920   3.644  0.00  0.00    +0.012 C 
ATOM     15  C   UNL     1      -2.072  -4.377   4.492  0.00  0.00    +0.010 C 
ATOM     16  C   UNL     1      -1.076  -6.433   3.482  0.00  0.00    +0.010 C 
ENDBRANCH   5  14
BRANCH   1  17
ATOM     17  C   UNL     1       1.240  -4.767  -0.861  0.00  0.00    +0.028 C 
BRANCH  17  18
ATOM     18  C   UNL     1       1.163  -4.152  -2.260  0.00  0.00    +0.107 C 
BRANCH  18  19
ATOM     19  N   UNL     1       2.223  -4.714  -3.100  0.00  0.00    -0.190 NA
ATOM     20  H   UNL     1       2.959  -5.197  -2.694  0.00  0.00    +0.148 HD
BRANCH  19  21
ATOM     21  S   UNL     1       2.164  -4.524  -4.744  0.00  0.00    +0.058 S 
ATOM     22  O   UNL     1       3.329  -5.147  -5.267  0.00  0.00    -0.153 OA
ATOM     23  O   UNL     1       0.854  -4.896  -5.150  0.00  0.00    -0.153 OA
BRANCH  21  24
ATOM     24  C   UNL     1       2.324  -2.801  -5.076  0.00  0.00    +0.105 A 
ATOM     25  C   UNL     1       1.197  -2.003  -5.144  0.00  0.00    +0.029 A 
ATOM     26  C   UNL     1       1.322  -0.651  -5.404  0.00  0.00    +0.005 A 
ATOM     27  C   UNL     1       2.574  -0.097  -5.595  0.00  0.00    -0.050 A 
ATOM     28  C   UNL     1       3.701  -0.895  -5.526  0.00  0.00    +0.005 A 
ATOM     29  C   UNL     1       3.576  -2.246  -5.262  0.00  0.00    +0.029 A 
ATOM     30  C   UNL     1       2.711   1.377  -5.880  0.00  0.00    +0.044 C 
ENDBRANCH  21  24
ENDBRANCH  19  21
ENDBRANCH  18  19
ENDBRANCH  17  18
ENDBRANCH   1  17
TORSDOF 7
