REMARK  Name = ZINC47856194
REMARK  6 active torsions:
REMARK  status: ('A' for Active; 'I' for Inactive)
REMARK    1  A    between atoms: C_1  and  C_2
REMARK    2  A    between atoms: C_2  and  S_3
REMARK    3  A    between atoms: S_3  and  C_4
REMARK    4  A    between atoms: C_9  and  N_10
REMARK    5  A    between atoms: N_16  and  C_19
REMARK    6  A    between atoms: C_24  and  O_25
REMARK                            x       y       z     vdW  Elec       q    Type
REMARK                         _______ _______ _______ _____ _____    ______ ____
ROOT
ATOM      1  N   UNL     1       1.976  -2.551  -3.459  0.00  0.00    -0.268 N 
ATOM      2  C   UNL     1       2.618  -3.320  -4.361  0.00  0.00    +0.307 C 
ATOM      3  O   UNL     1       2.582  -4.531  -4.263  0.00  0.00    -0.252 OA
ATOM      4  N   UNL     1       3.300  -2.745  -5.372  0.00  0.00    -0.282 N 
ATOM      5  C   UNL     1       3.454  -1.285  -5.435  0.00  0.00    +0.128 C 
ATOM      6  C   UNL     1       4.950  -0.954  -5.522  0.00  0.00    +0.124 C 
ATOM      7  N   UNL     1       5.551  -1.776  -6.581  0.00  0.00    -0.324 N 
ATOM      8  C   UNL     1       5.397  -3.236  -6.518  0.00  0.00    +0.124 C 
ATOM      9  C   UNL     1       3.906  -3.568  -6.428  0.00  0.00    +0.128 C 
ATOM     10  H   UNL     1       1.949  -1.588  -3.574  0.00  0.00    +0.156 HD
ENDROOT
BRANCH   1  16
ATOM     11  C   UNL     1       1.213  -2.433  -1.162  0.00  0.00    +0.029 A 
ATOM     12  C   UNL     1       0.584  -3.024  -0.075  0.00  0.00    +0.016 A 
ATOM     13  C   UNL     1       0.098  -4.314  -0.175  0.00  0.00    +0.001 A 
ATOM     14  C   UNL     1       0.237  -5.020  -1.355  0.00  0.00    +0.002 A 
ATOM     15  C   UNL     1       0.863  -4.440  -2.444  0.00  0.00    +0.024 A 
ATOM     16  C   UNL     1       1.347  -3.144  -2.355  0.00  0.00    +0.048 A 
BRANCH  11  17
ATOM     17  S   UNL     1       1.832  -0.788  -1.038  0.00  0.00    -0.124 S 
BRANCH  17  19
ATOM     18  C   UNL     1       1.921   1.134   0.906  0.00  0.00    +0.015 C 
ATOM     19  C   UNL     1       1.431  -0.295   0.660  0.00  0.00    +0.071 C 
ENDBRANCH  17  19
ENDBRANCH  11  17
ENDBRANCH   1  16
BRANCH   7  20
ATOM     20  C   UNL     1       6.259  -1.180  -7.631  0.00  0.00    +0.072 A 
ATOM     21  C   UNL     1       7.626  -0.968  -7.517  0.00  0.00    +0.027 A 
ATOM     22  C   UNL     1       8.322  -0.379  -8.555  0.00  0.00    +0.002 A 
ATOM     23  C   UNL     1       7.661   0.000  -9.708  0.00  0.00    +0.004 A 
ATOM     24  C   UNL     1       6.299  -0.207  -9.829  0.00  0.00    +0.047 A 
ATOM     25  C   UNL     1       5.595  -0.802  -8.796  0.00  0.00    +0.138 A 
BRANCH  25  26
ATOM     26  O   UNL     1       4.256  -1.012  -8.915  0.00  0.00    -0.505 OA
ATOM     27  H   UNL     1       3.713  -0.275  -8.602  0.00  0.00    +0.292 HD
ENDBRANCH  25  26
ENDBRANCH   7  20
TORSDOF 5
