REMARK  Name = ZINC21234098
REMARK  8 active torsions:
REMARK  status: ('A' for Active; 'I' for Inactive)
REMARK    1  A    between atoms: C_1  and  N_2
REMARK    2  A    between atoms: N_2  and  C_3
REMARK    3  A    between atoms: N_2  and  C_4
REMARK    4  A    between atoms: C_7  and  C_10
REMARK    5  A    between atoms: C_15  and  C_25
REMARK    6  A    between atoms: C_27  and  O_33
REMARK    7  A    between atoms: C_28  and  O_32
REMARK    8  A    between atoms: O_33  and  C_34
REMARK                            x       y       z     vdW  Elec       q    Type
REMARK                         _______ _______ _______ _____ _____    ______ ____
ROOT
ATOM      1  C   UNL     1      -3.244   1.797   0.718  0.00  0.00    +0.032 C 
ATOM      2  C   UNL     1      -2.215   0.790   0.208  0.00  0.00    +0.059 C 
ATOM      3  C   UNL     1      -1.161   1.499  -0.633  0.00  0.00    +0.017 C 
ATOM      4  C   UNL     1      -1.482   2.587  -1.347  0.00  0.00    +0.036 C 
ATOM      5  C   UNL     1      -0.538   3.381  -2.220  0.00  0.00    +0.136 C 
ATOM      6  N   UNL     1       0.738   2.743  -2.457  0.00  0.00    -0.331 N 
ATOM      7  C   UNL     1       1.627   2.511  -1.411  0.00  0.00    +0.049 A 
ATOM      8  C   UNL     1       2.842   3.176  -1.336  0.00  0.00    +0.025 A 
ATOM      9  C   UNL     1       3.660   2.978  -0.238  0.00  0.00    +0.002 A 
ATOM     10  C   UNL     1       3.274   2.123   0.779  0.00  0.00    +0.002 A 
ATOM     11  C   UNL     1       2.073   1.439   0.696  0.00  0.00    +0.025 A 
ATOM     12  C   UNL     1       1.264   1.622  -0.411  0.00  0.00    +0.052 A 
ATOM     13  N   UNL     1       0.071   0.929  -0.586  0.00  0.00    -0.316 N 
ATOM     14  C   UNL     1      -2.804   3.091  -1.329  0.00  0.00    +0.163 C 
ATOM     15  O   UNL     1      -3.070   4.065  -2.006  0.00  0.00    -0.292 OA
ATOM     16  C   UNL     1      -3.888   2.464  -0.504  0.00  0.00    +0.088 C 
ATOM     17  H   UNL     1       1.017   2.433  -3.475  0.00  0.00    +0.147 HD
ATOM     18  H   UNL     1       0.176  -0.161  -0.690  0.00  0.00    +0.152 HD
ENDROOT
BRANCH   5  19
ATOM     19  C   UNL     1      -0.291   4.716  -1.565  0.00  0.00    -0.018 A 
ATOM     20  C   UNL     1      -0.696   5.879  -2.194  0.00  0.00    +0.055 A 
ATOM     21  C   UNL     1      -0.469   7.107  -1.594  0.00  0.00    +0.163 A 
ATOM     22  C   UNL     1       0.167   7.167  -0.358  0.00  0.00    +0.177 A 
ATOM     23  C   UNL     1       0.571   5.998   0.268  0.00  0.00    +0.086 A 
ATOM     24  C   UNL     1       0.336   4.774  -0.334  0.00  0.00    +0.029 A 
ATOM     25 CL   UNL     1       1.364   6.068   1.811  0.00  0.00    -0.080 Cl
BRANCH  22  26
ATOM     26  O   UNL     1       0.392   8.370   0.235  0.00  0.00    -0.502 OA
ATOM     27  H   UNL     1       0.895   8.416   1.212  0.00  0.00    +0.292 HD
ENDBRANCH  22  26
BRANCH  21  28
ATOM     28  O   UNL     1      -0.867   8.251  -2.212  0.00  0.00    -0.491 OA
ATOM     29  C   UNL     1      -1.512   8.113  -3.479  0.00  0.00    +0.277 C 
ENDBRANCH  21  28
ENDBRANCH   5  19
BRANCH   1  33
ATOM     30  C   UNL     1      -6.233  -0.221   3.010  0.00  0.00    +0.029 A 
ATOM     31  C   UNL     1      -5.484   0.798   3.586  0.00  0.00    +0.023 A 
ATOM     32  C   UNL     1      -4.519   1.448   2.842  0.00  0.00    +0.006 A 
ATOM     33  C   UNL     1      -4.298   1.086   1.526  0.00  0.00    -0.043 A 
ATOM     34  C   UNL     1      -5.045   0.076   0.948  0.00  0.00    +0.006 A 
ATOM     35  C   UNL     1      -6.008  -0.582   1.688  0.00  0.00    +0.023 A 
BRANCH  30  37
ATOM     36  C   UNL     1      -7.542  -0.410   5.107  0.00  0.00    +0.129 C 
ATOM     37  N   UNL     1      -7.210  -0.880   3.760  0.00  0.00    -0.336 N 
ATOM     38  C   UNL     1      -7.903  -2.043   3.199  0.00  0.00    +0.129 C 
ENDBRANCH  30  37
ENDBRANCH   1  33
TORSDOF 5
