REMARK  Name = ZINC16714153
REMARK  7 active torsions:
REMARK  status: ('A' for Active; 'I' for Inactive)
REMARK    1  A    between atoms: C_1  and  C_2
REMARK    2  A    between atoms: C_2  and  C_3
REMARK    3  A    between atoms: C_3  and  C_4
REMARK    4  A    between atoms: C_4  and  N_5
REMARK    5  A    between atoms: C_9  and  C_11
REMARK    6  A    between atoms: C_11  and  N_12
REMARK    7  A    between atoms: C_19  and  C_22
REMARK                            x       y       z     vdW  Elec       q    Type
REMARK                         _______ _______ _______ _____ _____    ______ ____
ROOT
ATOM      1  N   UNL     1      -1.143   4.683   2.803  0.00  0.00    -0.290 N 
ATOM      2  C   UNL     1      -2.382   5.213   2.638  0.00  0.00    +0.203 A 
ATOM      3  N   UNL     1      -3.187   4.772   1.709  0.00  0.00    -0.230 NA
ATOM      4  C   UNL     1      -2.819   3.787   0.893  0.00  0.00    +0.116 A 
ATOM      5  C   UNL     1      -1.557   3.178   0.988  0.00  0.00    +0.080 A 
ATOM      6  C   UNL     1      -0.699   3.685   2.016  0.00  0.00    +0.263 A 
ATOM      7  O   UNL     1       0.416   3.219   2.177  0.00  0.00    -0.267 OA
ATOM      8  C   UNL     1      -1.309   2.116   0.020  0.00  0.00    +0.004 A 
ATOM      9  C   UNL     1      -2.280   1.810  -0.874  0.00  0.00    +0.056 A 
ATOM     10  S   UNL     1      -3.598   2.934  -0.453  0.00  0.00    -0.076 S 
ENDROOT
BRANCH   8  11
ATOM     11  C   UNL     1      -0.017   1.390   0.010  0.00  0.00    -0.016 A 
ATOM     12  C   UNL     1       1.184   2.099   0.002  0.00  0.00    +0.010 A 
ATOM     13  C   UNL     1       2.384   1.418  -0.013  0.00  0.00    +0.020 A 
ATOM     14  C   UNL     1       2.397   0.033  -0.021  0.00  0.00    +0.041 A 
ATOM     15  C   UNL     1       1.208  -0.675  -0.013  0.00  0.00    +0.020 A 
ATOM     16  C   UNL     1       0.002  -0.004   0.002  0.00  0.00    +0.010 A 
ATOM     17 CL   UNL     1       3.910  -0.817  -0.039  0.00  0.00    -0.084 Cl
ENDBRANCH   8  11
BRANCH   1  18
ATOM     18  C   UNL     1      -0.272   5.207   3.857  0.00  0.00    +0.222 C 
BRANCH  18  23
ATOM     19  N   UNL     1       3.054   8.633   4.408  0.00  0.00    -0.299 N 
ATOM     20  C   UNL     1       2.175   7.994   3.612  0.00  0.00    +0.306 C 
ATOM     21  O   UNL     1       2.049   8.331   2.451  0.00  0.00    -0.252 OA
ATOM     22  N   UNL     1       1.435   6.980   4.104  0.00  0.00    -0.239 N 
ATOM     23  C   UNL     1       0.555   6.340   3.308  0.00  0.00    +0.240 C 
ATOM     24  O   UNL     1       0.430   6.677   2.150  0.00  0.00    -0.273 OA
ATOM     25  H   UNL     1       3.155   8.364   5.335  0.00  0.00    +0.150 HD
ATOM     26  H   UNL     1       1.535   6.711   5.030  0.00  0.00    +0.159 HD
BRANCH  19  27
ATOM     27  C   UNL     1       3.859   9.735   3.874  0.00  0.00    +0.106 C 
BRANCH  27  28
ATOM     28  C   UNL     1       4.769  10.283   4.976  0.00  0.00    +0.018 C 
BRANCH  28  30
ATOM     29  C   UNL     1       6.518  11.982   5.519  0.00  0.00    +0.004 C 
ATOM     30  C   UNL     1       5.609  11.434   4.418  0.00  0.00    -0.002 C 
ENDBRANCH  28  30
ENDBRANCH  27  28
ENDBRANCH  19  27
ENDBRANCH  18  23
ENDBRANCH   1  18
TORSDOF 6
