REMARK  Name = ZINC45541383
REMARK  11 active torsions:
REMARK  status: ('A' for Active; 'I' for Inactive)
REMARK    1  A    between atoms: C_1  and  C_2
REMARK    2  A    between atoms: C_6  and  O_8
REMARK    3  A    between atoms: O_8  and  C_9
REMARK    4  A    between atoms: C_9  and  C_10
REMARK    5  A    between atoms: N_12  and  N_13
REMARK    6  A    between atoms: N_16  and  C_17
REMARK    7  A    between atoms: C_17  and  C_18
REMARK    8  A    between atoms: C_18  and  C_20
REMARK    9  A    between atoms: C_18  and  N_25
REMARK   10  A    between atoms: N_25  and  C_26
REMARK   11  A    between atoms: N_25  and  C_27
REMARK                            x       y       z     vdW  Elec       q    Type
REMARK                         _______ _______ _______ _____ _____    ______ ____
ROOT
ATOM      1  N   UNL     1       0.068  -6.584   4.888  0.00  0.00    -0.218 N 
ATOM      2  C   UNL     1      -0.019  -7.910   5.112  0.00  0.00    +0.316 C 
ATOM      3  O   UNL     1      -0.186  -8.326   6.242  0.00  0.00    -0.251 OA
ATOM      4  N   UNL     1       0.080  -8.775   4.083  0.00  0.00    -0.299 N 
ATOM      5  H   UNL     1      -0.003  -5.961   5.629  0.00  0.00    +0.174 HD
ATOM      6  H   UNL     1       0.213  -8.443   3.182  0.00  0.00    +0.150 HD
ENDROOT
BRANCH   1   9
ATOM      7  C   UNL     1       0.349  -4.779   3.362  0.00  0.00    +0.267 C 
ATOM      8  O   UNL     1       0.260  -4.000   4.288  0.00  0.00    -0.271 OA
ATOM      9  N   UNL     1       0.262  -6.105   3.586  0.00  0.00    -0.230 N 
ATOM     10  H   UNL     1       0.333  -6.727   2.846  0.00  0.00    +0.173 HD
BRANCH   7  11
ATOM     11  C   UNL     1       0.556  -4.263   1.961  0.00  0.00    +0.326 C 
BRANCH  11  12
ATOM     12  O   UNL     1       0.616  -2.835   1.983  0.00  0.00    -0.483 OA
BRANCH  12  18
ATOM     13  C   UNL     1       1.128   1.318  -0.529  0.00  0.00    +0.044 C 
ATOM     14  C   UNL     1       1.055  -0.186  -0.472  0.00  0.00    -0.047 A 
ATOM     15  C   UNL     1       1.177  -0.929  -1.632  0.00  0.00    +0.003 A 
ATOM     16  C   UNL     1       1.111  -2.309  -1.583  0.00  0.00    +0.004 A 
ATOM     17  C   UNL     1       0.922  -2.950  -0.373  0.00  0.00    +0.045 A 
ATOM     18  C   UNL     1       0.800  -2.207   0.792  0.00  0.00    +0.121 A 
ATOM     19  C   UNL     1       0.873  -0.823   0.741  0.00  0.00    +0.049 A 
ENDBRANCH  12  18
ENDBRANCH  11  12
ENDBRANCH   7  11
ENDBRANCH   1   9
BRANCH   4  20
ATOM     20  C   UNL     1      -0.015 -10.217   4.327  0.00  0.00    +0.095 C 
BRANCH  20  21
ATOM     21  C   UNL     1       0.015 -10.963   2.991  0.00  0.00    -0.020 C 
BRANCH  21  22
ATOM     22  C   UNL     1       1.349 -10.744   2.324  0.00  0.00    -0.052 A 
ATOM     23  C   UNL     1       1.484  -9.806   1.318  0.00  0.00    +0.009 A 
ATOM     24  C   UNL     1       2.697  -9.634   0.738  0.00  0.00    +0.045 A 
ATOM     25  S   UNL     1       3.699 -10.819   1.621  0.00  0.00    -0.105 S 
ATOM     26  C   UNL     1       2.435 -11.460   2.706  0.00  0.00    +0.047 A 
ENDBRANCH  21  22
BRANCH  21  27
ATOM     27  N   UNL     1      -0.184 -12.399   3.228  0.00  0.00    +0.382 N 
ATOM     28  C   UNL     1      -1.479 -12.611   3.888  0.00  0.00    -0.096 C 
ATOM     29  C   UNL     1      -0.166 -13.113   1.945  0.00  0.00    -0.096 C 
ATOM     30  H   UNL     1       0.556 -12.748   3.818  0.00  0.00    -0.082 HD
ENDBRANCH  21  27
ENDBRANCH  20  21
ENDBRANCH   4  20
TORSDOF 8
