REMARK  Name = ZINC65423922
REMARK  7 active torsions:
REMARK  status: ('A' for Active; 'I' for Inactive)
REMARK    1  A    between atoms: C_1  and  C_2
REMARK    2  A    between atoms: N_4  and  C_10
REMARK    3  A    between atoms: C_6  and  C_8
REMARK    4  A    between atoms: C_6  and  C_9
REMARK    5  A    between atoms: C_10  and  C_11
REMARK    6  A    between atoms: C_10  and  C_12
REMARK    7  A    between atoms: N_14  and  C_15
REMARK                            x       y       z     vdW  Elec       q    Type
REMARK                         _______ _______ _______ _____ _____    ______ ____
ROOT
ATOM      1  C   UNL     1       0.706  -1.956  -3.666  0.00  0.00    +0.234 C 
ATOM      2  O   UNL     1      -0.224  -1.184  -3.556  0.00  0.00    -0.274 OA
ATOM      3  N   UNL     1       1.014  -2.471  -4.873  0.00  0.00    -0.284 N 
ATOM      4  H   UNL     1       1.803  -3.027  -4.975  0.00  0.00    +0.155 HD
ENDROOT
BRANCH   3   5
ATOM      5  C   UNL     1       0.197  -2.203  -5.979  0.00  0.00    +0.037 A 
ATOM      6  C   UNL     1       0.757  -2.095  -7.245  0.00  0.00    +0.027 A 
ATOM      7  C   UNL     1      -0.046  -1.831  -8.339  0.00  0.00    +0.051 A 
ATOM      8  C   UNL     1      -1.412  -1.676  -8.169  0.00  0.00    +0.162 A 
ATOM      9  C   UNL     1      -1.974  -1.784  -6.905  0.00  0.00    +0.164 A 
ATOM     10  C   UNL     1      -1.173  -2.053  -5.808  0.00  0.00    +0.072 A 
ATOM     11  O   UNL     1      -3.322  -1.630  -6.751  0.00  0.00    -0.488 OA
ATOM     12  C   UNL     1      -3.830  -0.314  -6.979  0.00  0.00    +0.232 C 
ATOM     13  C   UNL     1      -4.087  -0.084  -8.460  0.00  0.00    +0.082 C 
ATOM     14  C   UNL     1      -2.807  -0.117  -9.280  0.00  0.00    +0.232 C 
ATOM     15  O   UNL     1      -2.214  -1.416  -9.243  0.00  0.00    -0.488 OA
ENDBRANCH   3   5
BRANCH   1  16
ATOM     16  C   UNL     1       1.515  -2.339  -2.454  0.00  0.00    +0.140 C 
ATOM     17  C   UNL     1       2.975  -1.933  -2.666  0.00  0.00    +0.034 C 
BRANCH  16  21
ATOM     18  C   UNL     1       0.608   2.005  -0.324  0.00  0.00    +0.039 C 
ATOM     19  C   UNL     1       0.450   0.488  -0.204  0.00  0.00    +0.130 C 
ATOM     20  C   UNL     1       1.069  -0.190  -1.429  0.00  0.00    +0.116 C 
ATOM     21  N   UNL     1       0.982  -1.649  -1.272  0.00  0.00    -0.287 NA
ATOM     22  C   UNL     1       1.676  -2.083  -0.051  0.00  0.00    +0.119 C 
ATOM     23  C   UNL     1       1.051  -1.386   1.161  0.00  0.00    +0.077 C 
ATOM     24  O   UNL     1       1.116   0.030   0.976  0.00  0.00    -0.368 OA
ATOM     25  C   UNL     1      -0.410  -1.817   1.300  0.00  0.00    +0.042 C 
ATOM     26  C   UNL     1       1.821  -1.772   2.426  0.00  0.00    +0.042 C 
ENDBRANCH  16  21
ENDBRANCH   1  16
TORSDOF 3
