REMARK  Name = ZINC00716316
REMARK  5 active torsions:
REMARK  status: ('A' for Active; 'I' for Inactive)
REMARK    1  A    between atoms: C_1  and  C_2
REMARK    2  A    between atoms: C_3  and  C_18
REMARK    3  A    between atoms: C_4  and  C_10
REMARK    4  A    between atoms: C_18  and  O_20
REMARK    5  A    between atoms: O_20  and  C_21
REMARK                            x       y       z     vdW  Elec       q    Type
REMARK                         _______ _______ _______ _____ _____    ______ ____
ROOT
ATOM      1  C   UNL     1       1.716   1.683   2.431  0.00  0.00    +0.061 C 
ATOM      2  C   UNL     1       1.404   1.082   1.085  0.00  0.00    +0.021 C 
ATOM      3  C   UNL     1       2.264   1.268   0.059  0.00  0.00    +0.078 C 
ATOM      4  C   UNL     1       1.912   0.646  -1.277  0.00  0.00    +0.145 C 
ATOM      5  N   UNL     1       0.653  -0.116  -1.348  0.00  0.00    -0.288 N 
ATOM      6  C   UNL     1      -0.101  -0.213  -0.236  0.00  0.00    +0.304 C 
ATOM      7  O   UNL     1      -1.142  -0.839  -0.284  0.00  0.00    -0.252 OA
ATOM      8  N   UNL     1       0.258   0.358   0.921  0.00  0.00    -0.273 N 
ATOM      9  H   UNL     1       0.376  -0.540  -2.175  0.00  0.00    +0.151 HD
ATOM     10  H   UNL     1      -0.329   0.251   1.686  0.00  0.00    +0.156 HD
ENDROOT
BRANCH   4  11
ATOM     11  C   UNL     1       1.846   1.750  -2.300  0.00  0.00    -0.004 A 
ATOM     12  C   UNL     1       0.629   2.320  -2.624  0.00  0.00    +0.008 A 
ATOM     13  C   UNL     1       0.567   3.333  -3.562  0.00  0.00    +0.020 A 
ATOM     14  C   UNL     1       1.724   3.777  -4.178  0.00  0.00    +0.042 A 
ATOM     15  C   UNL     1       2.942   3.207  -3.854  0.00  0.00    +0.040 A 
ATOM     16  C   UNL     1       3.004   2.197  -2.911  0.00  0.00    +0.048 A 
ATOM     17 CL   UNL     1       4.533   1.486  -2.499  0.00  0.00    -0.083 Cl
ATOM     18 CL   UNL     1       1.646   5.049  -5.357  0.00  0.00    -0.083 Cl
ENDBRANCH   4  11
BRANCH   3  19
ATOM     19  C   UNL     1       3.451   2.018   0.227  0.00  0.00    +0.339 C 
ATOM     20  O   UNL     1       4.512   1.447   0.399  0.00  0.00    -0.245 OA
BRANCH  19  21
ATOM     21  O   UNL     1       3.407   3.366   0.197  0.00  0.00    -0.458 OA
BRANCH  21  22
ATOM     22  C   UNL     1       4.655   4.058   0.284  0.00  0.00    +0.177 C 
ATOM     23  C   UNL     1       5.023   4.260   1.756  0.00  0.00    +0.044 C 
ATOM     24  C   UNL     1       6.504   4.628   1.864  0.00  0.00    +0.004 C 
ATOM     25  C   UNL     1       7.324   3.723   0.944  0.00  0.00    +0.000 C 
ATOM     26  C   UNL     1       7.924   4.556  -0.190  0.00  0.00    +0.000 C 
ATOM     27  C   UNL     1       6.834   4.881  -1.214  0.00  0.00    +0.000 C 
ATOM     28  C   UNL     1       5.930   5.986  -0.664  0.00  0.00    +0.004 C 
ATOM     29  C   UNL     1       4.533   5.419  -0.403  0.00  0.00    +0.044 C 
ENDBRANCH  21  22
ENDBRANCH  19  21
ENDBRANCH   3  19
TORSDOF 4
