REMARK  Name = ZINC02132499
REMARK  9 active torsions:
REMARK  status: ('A' for Active; 'I' for Inactive)
REMARK    1  A    between atoms: C_1  and  C_2
REMARK    2  A    between atoms: C_2  and  O_3
REMARK    3  A    between atoms: O_3  and  C_4
REMARK    4  A    between atoms: C_7  and  C_10
REMARK    5  A    between atoms: C_10  and  C_11
REMARK    6  A    between atoms: C_11  and  C_22
REMARK    7  A    between atoms: N_14  and  C_21
REMARK    8  A    between atoms: N_17  and  C_20
REMARK    9  A    between atoms: C_22  and  N_68
REMARK                            x       y       z     vdW  Elec       q    Type
REMARK                         _______ _______ _______ _____ _____    ______ ____
ROOT
ATOM      1  C   UNL     1      -2.617   5.444   1.187  0.00  0.00    +0.113 C 
ATOM      2  C   UNL     1      -1.941   5.163   2.516  0.00  0.00    +0.236 C 
ATOM      3  O   UNL     1      -0.880   5.674   2.802  0.00  0.00    -0.274 OA
ATOM      4  N   UNL     1      -2.561   4.327   3.370  0.00  0.00    -0.228 N 
ATOM      5  C   UNL     1      -3.731   3.751   3.072  0.00  0.00    +0.317 C 
ATOM      6  O   UNL     1      -4.220   3.008   3.899  0.00  0.00    -0.252 OA
ATOM      7  N   UNL     1      -4.402   3.934   1.929  0.00  0.00    -0.228 N 
ATOM      8  C   UNL     1      -3.939   4.740   0.949  0.00  0.00    +0.236 C 
ATOM      9  O   UNL     1      -4.558   4.895  -0.082  0.00  0.00    -0.274 OA
ATOM     10  C   UNL     1      -5.676   3.238   1.734  0.00  0.00    +0.143 C 
ATOM     11  C   UNL     1      -1.935   4.036   4.662  0.00  0.00    +0.143 C 
ENDROOT
BRANCH   1  12
ATOM     12  C   UNL     1      -2.854   6.951   1.082  0.00  0.00    +0.058 C 
BRANCH  12  16
ATOM     13  C   UNL     1      -5.537   8.189   4.170  0.00  0.00    +0.121 A 
ATOM     14  C   UNL     1      -4.169   8.185   4.399  0.00  0.00    +0.046 A 
ATOM     15  C   UNL     1      -3.304   7.784   3.399  0.00  0.00    +0.007 A 
ATOM     16  C   UNL     1      -3.800   7.388   2.171  0.00  0.00    -0.046 A 
ATOM     17  C   UNL     1      -5.163   7.396   1.939  0.00  0.00    +0.007 A 
ATOM     18  C   UNL     1      -6.033   7.790   2.937  0.00  0.00    +0.046 A 
BRANCH  13  19
ATOM     19  O   UNL     1      -6.390   8.583   5.152  0.00  0.00    -0.492 OA
BRANCH  19  21
ATOM     20  C   UNL     1      -8.582   9.034   6.063  0.00  0.00    +0.048 C 
ATOM     21  C   UNL     1      -7.786   8.561   4.846  0.00  0.00    +0.225 C 
ENDBRANCH  19  21
ENDBRANCH  13  19
ENDBRANCH  12  16
ENDBRANCH   1  12
BRANCH   1  22
ATOM     22  C   UNL     1      -1.654   5.038   0.069  0.00  0.00    -0.053 C 
BRANCH  22  36
ATOM     23  C   UNL     1      -2.376   2.758  -0.296  0.00  0.00    -0.074 C 
ATOM     24  C   UNL     1      -2.042   1.288  -0.092  0.00  0.00    -0.007 C 
ATOM     25  C   UNL     1      -0.691   0.944  -0.726  0.00  0.00    +0.011 C 
ATOM     26  C   UNL     1       0.361   1.871  -0.106  0.00  0.00    +0.020 C 
ATOM     27  C   UNL     1      -0.024   3.321  -0.446  0.00  0.00    -0.069 C 
ATOM     28  C   UNL     1       0.321   1.732   1.399  0.00  0.00    +0.023 A 
ATOM     29  C   UNL     1       1.473   1.969   2.081  0.00  0.00    +0.022 A 
ATOM     30  C   UNL     1       1.494   1.922   3.479  0.00  0.00    +0.007 A 
ATOM     31  C   UNL     1       0.334   1.658   4.146  0.00  0.00    +0.070 A 
ATOM     32  C   UNL     1      -0.837   1.421   3.413  0.00  0.00    +0.251 A 
ATOM     33  O   UNL     1      -1.892   1.244   4.000  0.00  0.00    -0.268 OA
ATOM     34  N   UNL     1      -0.809   1.387   2.058  0.00  0.00    -0.312 N 
ATOM     35  C   UNL     1      -2.020   0.912   1.380  0.00  0.00    +0.126 C 
ATOM     36  N   UNL     1      -1.301   3.614   0.244  0.00  0.00    +0.381 N 
ATOM     37  H   UNL     1      -1.192   3.418   1.246  0.00  0.00    -0.082 HD
ENDBRANCH  22  36
ENDBRANCH   1  22
TORSDOF 6
