REMARK  Name = ZINC63137368
REMARK  13 active torsions:
REMARK  status: ('A' for Active; 'I' for Inactive)
REMARK    1  A    between atoms: C_1  and  C_2
REMARK    2  A    between atoms: C_2  and  C_3
REMARK    3  A    between atoms: C_3  and  C_4
REMARK    4  A    between atoms: C_4  and  O_5
REMARK    5  A    between atoms: O_5  and  C_6
REMARK    6  A    between atoms: C_6  and  C_7
REMARK    7  A    between atoms: C_7  and  C_8
REMARK    8  A    between atoms: C_8  and  N_9
REMARK    9  A    between atoms: C_29  and  C_31
REMARK   10  A    between atoms: C_34  and  O_39
REMARK   11  A    between atoms: C_36  and  O_37
REMARK   12  A    between atoms: O_37  and  C_38
REMARK   13  A    between atoms: O_39  and  C_40
REMARK                            x       y       z     vdW  Elec       q    Type
REMARK                         _______ _______ _______ _____ _____    ______ ____
ROOT
ATOM      1  N   UNL     1       2.959  -6.023  -5.158  0.00  0.00    -0.291 N 
ATOM      2  C   UNL     1       2.229  -6.220  -6.423  0.00  0.00    +0.203 C 
ATOM      3  C   UNL     1       3.004  -5.546  -7.536  0.00  0.00    +0.234 C 
ATOM      4  O   UNL     1       2.449  -4.872  -8.378  0.00  0.00    -0.274 OA
ATOM      5  N   UNL     1       4.365  -5.733  -7.547  0.00  0.00    -0.279 N 
ATOM      6  C   UNL     1       4.878  -6.625  -6.529  0.00  0.00    +0.167 C 
ATOM      7  C   UNL     1       4.308  -6.239  -5.187  0.00  0.00    +0.237 C 
ATOM      8  O   UNL     1       5.001  -6.130  -4.198  0.00  0.00    -0.274 OA
ATOM      9  C   UNL     1       6.364  -6.865  -6.471  0.00  0.00    +0.065 C 
ATOM     10  C   UNL     1       7.073  -5.910  -7.393  0.00  0.00    -0.034 C 
ATOM     11  C   UNL     1       8.195  -5.216  -7.264  0.00  0.00    -0.001 A 
ATOM     12  C   UNL     1       9.192  -5.157  -6.183  0.00  0.00    +0.010 A 
ATOM     13  C   UNL     1      10.240  -4.314  -6.378  0.00  0.00    +0.001 A 
ATOM     14  C   UNL     1      10.395  -3.533  -7.527  0.00  0.00    +0.002 A 
ATOM     15  C   UNL     1       9.530  -3.528  -8.573  0.00  0.00    +0.026 A 
ATOM     16  C   UNL     1       8.389  -4.378  -8.486  0.00  0.00    +0.043 A 
ATOM     17  N   UNL     1       7.422  -4.575  -9.330  0.00  0.00    -0.375 N 
ATOM     18  C   UNL     1       6.506  -5.578  -8.772  0.00  0.00    +0.131 C 
ATOM     19  C   UNL     1       5.127  -4.984  -8.535  0.00  0.00    +0.137 C 
ATOM     20  H   UNL     1       7.321  -4.132 -10.187  0.00  0.00    +0.160 HD
ENDROOT
BRANCH  19  21
ATOM     21  C   UNL     1       4.350  -4.944  -9.826  0.00  0.00    +0.017 A 
ATOM     22  C   UNL     1       4.192  -3.749 -10.501  0.00  0.00    +0.013 A 
ATOM     23  C   UNL     1       3.481  -3.710 -11.685  0.00  0.00    +0.046 A 
ATOM     24  C   UNL     1       2.923  -4.872 -12.199  0.00  0.00    +0.124 A 
ATOM     25  C   UNL     1       3.081  -6.073 -11.525  0.00  0.00    +0.091 A 
ATOM     26  C   UNL     1       3.800  -6.110 -10.340  0.00  0.00    +0.129 A 
BRANCH  26  27
ATOM     27  O   UNL     1       3.961  -7.287  -9.679  0.00  0.00    -0.495 OA
ATOM     28  C   UNL     1       3.368  -8.447 -10.266  0.00  0.00    +0.277 C 
ENDBRANCH  26  27
BRANCH  24  29
ATOM     29  O   UNL     1       2.224  -4.833 -13.364  0.00  0.00    -0.495 OA
ATOM     30  C   UNL     1       2.101  -3.562 -14.005  0.00  0.00    +0.277 C 
ENDBRANCH  24  29
ENDBRANCH  19  21
BRANCH   1  31
ATOM     31  C   UNL     1       2.273  -5.609  -3.931  0.00  0.00    +0.110 C 
BRANCH  31  32
ATOM     32  C   UNL     1       2.249  -4.082  -3.850  0.00  0.00    +0.047 C 
BRANCH  32  33
ATOM     33  C   UNL     1       1.533  -3.650  -2.569  0.00  0.00    +0.161 C 
BRANCH  33  34
ATOM     34  O   UNL     1       1.510  -2.223  -2.494  0.00  0.00    -0.380 OA
BRANCH  34  35
ATOM     35  C   UNL     1       0.860  -1.712  -1.328  0.00  0.00    +0.160 C 
BRANCH  35  36
ATOM     36  C   UNL     1       0.894  -0.183  -1.353  0.00  0.00    +0.028 C 
BRANCH  36  38
ATOM     37  C   UNL     1       0.233   1.893  -0.130  0.00  0.00    +0.004 C 
ATOM     38  C   UNL     1       0.199   0.363  -0.105  0.00  0.00    -0.001 C 
ENDBRANCH  36  38
ENDBRANCH  35  36
ENDBRANCH  34  35
ENDBRANCH  33  34
ENDBRANCH  32  33
ENDBRANCH  31  32
ENDBRANCH   1  31
TORSDOF 10
