REMARK  Name = ZINC12446512
REMARK  7 active torsions:
REMARK  status: ('A' for Active; 'I' for Inactive)
REMARK    1  A    between atoms: C_1  and  C_2
REMARK    2  A    between atoms: C_4  and  C_33
REMARK    3  A    between atoms: C_8  and  N_28
REMARK    4  A    between atoms: C_9  and  C_11
REMARK    5  A    between atoms: N_13  and  N_14
REMARK    6  A    between atoms: C_15  and  C_16
REMARK    7  A    between atoms: C_19  and  C_21
REMARK                            x       y       z     vdW  Elec       q    Type
REMARK                         _______ _______ _______ _____ _____    ______ ____
ROOT
ATOM      1  C   UNL     1       6.208   1.323   0.557  0.00  0.00    +0.272 C 
ATOM      2  O   UNL     1       6.591   2.478   0.605  0.00  0.00    -0.268 OA
ATOM      3  N   UNL     1       7.077   0.315   0.771  0.00  0.00    -0.202 N 
ATOM      4  H   UNL     1       6.771  -0.605   0.732  0.00  0.00    +0.178 HD
ENDROOT
BRANCH   1  13
ATOM      5  C   UNL     1       1.248   3.595  -0.565  0.00  0.00    +0.044 C 
ATOM      6  C   UNL     1       1.256   2.089  -0.520  0.00  0.00    -0.037 A 
ATOM      7  C   UNL     1       0.101   1.378  -0.746  0.00  0.00    +0.027 A 
ATOM      8  C   UNL     1       0.111  -0.009  -0.704  0.00  0.00    +0.040 A 
ATOM      9  N   UNL     1       1.227  -0.662  -0.448  0.00  0.00    -0.245 NA
ATOM     10  C   UNL     1       2.358  -0.027  -0.225  0.00  0.00    +0.111 A 
ATOM     11  C   UNL     1       2.454   1.384  -0.244  0.00  0.00    +0.035 A 
ATOM     12  C   UNL     1       3.780   1.916   0.023  0.00  0.00    +0.075 A 
ATOM     13  C   UNL     1       4.804   1.029   0.266  0.00  0.00    +0.102 A 
ATOM     14  S   UNL     1       4.011  -0.562   0.143  0.00  0.00    -0.062 S 
ATOM     15  C   UNL     1      -1.163  -0.774  -0.954  0.00  0.00    +0.065 C 
BRANCH  12  16
ATOM     16  N   UNL     1       4.009   3.292   0.032  0.00  0.00    -0.321 N 
ATOM     17  C   UNL     1       4.698   3.992  -0.918  0.00  0.00    +0.091 A 
ATOM     18  C   UNL     1       4.703   5.293  -0.563  0.00  0.00    +0.019 A 
ATOM     19  C   UNL     1       4.001   5.402   0.655  0.00  0.00    +0.019 A 
ATOM     20  C   UNL     1       3.588   4.164   0.996  0.00  0.00    +0.091 A 
ENDBRANCH  12  16
ENDBRANCH   1  13
BRANCH   3  21
ATOM     21  N   UNL     1       8.421   0.596   1.049  0.00  0.00    -0.184 NA
ATOM     22  C   UNL     1       9.260  -0.378   1.256  0.00  0.00    +0.176 C 
BRANCH  22  23
ATOM     23  C   UNL     1      10.665  -0.084   1.546  0.00  0.00    +0.148 A 
ATOM     24  C   UNL     1      11.653  -1.014   1.783  0.00  0.00    +0.051 A 
ATOM     25  C   UNL     1      12.835  -0.298   2.014  0.00  0.00    +0.050 A 
ATOM     26  C   UNL     1      12.528   1.026   1.910  0.00  0.00    +0.136 A 
ATOM     27  O   UNL     1      11.217   1.144   1.622  0.00  0.00    -0.454 OA
BRANCH  26  28
ATOM     28  C   UNL     1      13.475   2.146   2.079  0.00  0.00    +0.017 A 
ATOM     29  C   UNL     1      14.816   1.890   2.377  0.00  0.00    +0.014 A 
ATOM     30  C   UNL     1      15.697   2.940   2.530  0.00  0.00    +0.039 A 
ATOM     31  C   UNL     1      15.253   4.246   2.397  0.00  0.00    +0.123 A 
ATOM     32  C   UNL     1      13.923   4.506   2.106  0.00  0.00    +0.039 A 
ATOM     33  C   UNL     1      13.034   3.464   1.947  0.00  0.00    +0.014 A 
ATOM     34  F   UNL     1      16.120   5.270   2.553  0.00  0.00    -0.205 F 
ENDBRANCH  26  28
ENDBRANCH  22  23
ENDBRANCH   3  21
TORSDOF 5
