REMARK  Name = ZINC40356060
REMARK  7 active torsions:
REMARK  status: ('A' for Active; 'I' for Inactive)
REMARK    1  A    between atoms: C_1  and  C_2
REMARK    2  A    between atoms: N_8  and  C_9
REMARK    3  A    between atoms: C_9  and  C_10
REMARK    4  A    between atoms: C_10  and  C_11
REMARK    5  A    between atoms: C_11  and  N_12
REMARK    6  A    between atoms: C_13  and  C_15
REMARK    7  A    between atoms: C_21  and  C_23
REMARK                            x       y       z     vdW  Elec       q    Type
REMARK                         _______ _______ _______ _____ _____    ______ ____
ROOT
ATOM      1  C   UNL     1       6.773  -0.087   5.287  0.00  0.00    +0.135 A 
ATOM      2  C   UNL     1       8.048   0.331   5.549  0.00  0.00    +0.081 A 
ATOM      3  S   UNL     1       8.356  -0.357   7.053  0.00  0.00    -0.060 S 
ATOM      4  C   UNL     1       6.789  -1.176   7.288  0.00  0.00    +0.165 A 
ATOM      5  N   UNL     1       6.145  -0.850   6.186  0.00  0.00    -0.220 NA
ATOM      6  N   UNL     1       6.359  -1.950   8.357  0.00  0.00    -0.260 N 
ATOM      7  C   UNL     1       7.176  -2.165   9.406  0.00  0.00    +0.255 C 
ATOM      8  O   UNL     1       8.291  -1.679   9.418  0.00  0.00    -0.270 OA
ATOM      9  H   UNL     1       5.469  -2.338   8.348  0.00  0.00    +0.157 HD
ENDROOT
BRANCH   7  10
ATOM     10  C   UNL     1       6.718  -2.988  10.542  0.00  0.00    +0.107 A 
ATOM     11  C   UNL     1       6.941  -4.369  10.544  0.00  0.00    +0.138 A 
ATOM     12  C   UNL     1       6.510  -5.133  11.612  0.00  0.00    +0.039 A 
ATOM     13  C   UNL     1       5.859  -4.535  12.676  0.00  0.00    +0.006 A 
ATOM     14  C   UNL     1       5.634  -3.170  12.682  0.00  0.00    +0.039 A 
ATOM     15  C   UNL     1       6.064  -2.391  11.625  0.00  0.00    +0.138 A 
ATOM     16  F   UNL     1       5.848  -1.057  11.635  0.00  0.00    -0.205 F 
ATOM     17  F   UNL     1       7.577  -4.955   9.506  0.00  0.00    -0.205 F 
ENDBRANCH   7  10
BRANCH   1  19
ATOM     18  N   UNL     1       4.842  -0.112   3.791  0.00  0.00    -0.310 N 
ATOM     19  C   UNL     1       6.101   0.302   4.036  0.00  0.00    +0.263 C 
ATOM     20  O   UNL     1       6.682   0.997   3.224  0.00  0.00    -0.269 OA
ATOM     21  H   UNL     1       4.379  -0.666   4.439  0.00  0.00    +0.149 HD
BRANCH  18  22
ATOM     22  C   UNL     1       4.173   0.276   2.547  0.00  0.00    +0.103 C 
BRANCH  22  23
ATOM     23  C   UNL     1       2.764  -0.321   2.518  0.00  0.00    +0.000 C 
BRANCH  23  24
ATOM     24  C   UNL     1       2.066   0.083   1.218  0.00  0.00    -0.077 C 
BRANCH  24  31
ATOM     25  C   UNL     1      -0.019   1.526   0.010  0.00  0.00    -0.013 C 
ATOM     26  C   UNL     1       0.002  -0.004   0.002  0.00  0.00    -0.072 C 
ATOM     27  C   UNL     1      -1.434  -0.533   0.011  0.00  0.00    -0.016 C 
ATOM     28  C   UNL     1      -1.408  -2.064   0.003  0.00  0.00    -0.003 C 
ATOM     29  C   UNL     1      -0.600  -2.558   1.206  0.00  0.00    -0.019 C 
ATOM     30  C   UNL     1       0.805  -1.954   1.152  0.00  0.00    -0.078 C 
ATOM     31  N   UNL     1       0.713  -0.490   1.191  0.00  0.00    +0.381 N 
ATOM     32  H   UNL     1       0.213  -0.206   2.020  0.00  0.00    -0.081 HD
ENDBRANCH  24  31
ENDBRANCH  23  24
ENDBRANCH  22  23
ENDBRANCH  18  22
ENDBRANCH   1  19
TORSDOF 6
