REMARK  Name = ZINC09453365
REMARK  4 active torsions:
REMARK  status: ('A' for Active; 'I' for Inactive)
REMARK    1  A    between atoms: C_1  and  C_2
REMARK    2  A    between atoms: C_2  and  C_3
REMARK    3  A    between atoms: C_23  and  C_30
REMARK    4  A    between atoms: C_30  and  C_32
REMARK                            x       y       z     vdW  Elec       q    Type
REMARK                         _______ _______ _______ _____ _____    ______ ____
ROOT
ATOM      1  C   UNL     1      -3.851   6.623   1.248  0.00  0.00    -0.047 A 
ATOM      2  C   UNL     1      -3.894   6.887   2.606  0.00  0.00    +0.005 A 
ATOM      3  C   UNL     1      -3.600   5.895   3.518  0.00  0.00    +0.024 A 
ATOM      4  C   UNL     1      -3.256   4.619   3.078  0.00  0.00    +0.036 A 
ATOM      5  C   UNL     1      -3.216   4.365   1.711  0.00  0.00    -0.026 A 
ATOM      6  C   UNL     1      -3.510   5.358   0.804  0.00  0.00    +0.008 A 
ATOM      7  C   UNL     1      -2.820   2.920   1.568  0.00  0.00    +0.060 C 
ATOM      8  C   UNL     1      -2.651   2.427   2.983  0.00  0.00    +0.212 C 
ATOM      9  O   UNL     1      -2.333   1.307   3.325  0.00  0.00    -0.277 OA
ATOM     10  N   UNL     1      -2.921   3.467   3.793  0.00  0.00    -0.286 N 
ATOM     11  C   UNL     1      -3.886   2.121   0.827  0.00  0.00    +0.085 C 
ATOM     12  C   UNL     1      -4.481   1.042   1.688  0.00  0.00    -0.011 A 
ATOM     13  C   UNL     1      -3.950  -0.037   2.357  0.00  0.00    +0.006 A 
ATOM     14  C   UNL     1      -4.776  -0.874   3.087  0.00  0.00    +0.000 A 
ATOM     15  C   UNL     1      -6.135  -0.623   3.143  0.00  0.00    +0.002 A 
ATOM     16  C   UNL     1      -6.671   0.458   2.474  0.00  0.00    +0.023 A 
ATOM     17  C   UNL     1      -5.847   1.305   1.736  0.00  0.00    +0.038 A 
ATOM     18  N   UNL     1      -6.147   2.444   0.987  0.00  0.00    -0.285 N 
ATOM     19  C   UNL     1      -5.050   2.983   0.420  0.00  0.00    +0.228 C 
ATOM     20  O   UNL     1      -5.009   3.971  -0.281  0.00  0.00    -0.275 OA
ATOM     21  C   UNL     1      -3.183   1.526  -0.405  0.00  0.00    +0.066 C 
ATOM     22  C   UNL     1      -1.956   2.452  -0.585  0.00  0.00    -0.055 C 
ATOM     23  C   UNL     1      -0.813   1.601   1.296  0.00  0.00    -0.076 C 
ATOM     24  C   UNL     1      -0.021   1.097   0.074  0.00  0.00    -0.020 C 
ATOM     25  C   UNL     1      -0.784   1.634  -1.153  0.00  0.00    -0.016 C 
ATOM     26  H   UNL     1      -2.887   3.422   4.761  0.00  0.00    +0.155 HD
ATOM     27  H   UNL     1      -7.042   2.805   0.885  0.00  0.00    +0.155 HD
ATOM     28  N   UNL     1      -1.585   2.752   0.786  0.00  0.00    +0.395 N 
ATOM     29  H   UNL     1      -1.019   3.608   0.831  0.00  0.00    -0.079 HD
ENDROOT
BRANCH   1  31
ATOM     30  C   UNL     1      -2.892   8.463  -0.109  0.00  0.00    +0.009 C 
ATOM     31  C   UNL     1      -4.173   7.711   0.257  0.00  0.00    +0.032 C 
ENDBRANCH   1  31
BRANCH  21  32
ATOM     32  C   UNL     1      -2.747   0.108  -0.138  0.00  0.00    +0.167 C 
ATOM     33  O   UNL     1      -1.649  -0.111   0.328  0.00  0.00    -0.292 OA
BRANCH  32  34
ATOM     34  C   UNL     1      -3.653  -1.010  -0.443  0.00  0.00    +0.036 A 
ATOM     35  C   UNL     1      -4.876  -0.770  -1.078  0.00  0.00    +0.013 A 
ATOM     36  C   UNL     1      -5.720  -1.823  -1.360  0.00  0.00    +0.001 A 
ATOM     37  C   UNL     1      -5.360  -3.115  -1.017  0.00  0.00    +0.001 A 
ATOM     38  C   UNL     1      -4.153  -3.362  -0.389  0.00  0.00    +0.021 A 
ATOM     39  C   UNL     1      -3.294  -2.319  -0.104  0.00  0.00    +0.051 A 
ATOM     40 CL   UNL     1      -1.775  -2.631   0.678  0.00  0.00    -0.083 Cl
ENDBRANCH  32  34
ENDBRANCH  21  32
TORSDOF 3
