REMARK  Name = ZINC37788276
REMARK  8 active torsions:
REMARK  status: ('A' for Active; 'I' for Inactive)
REMARK    1  A    between atoms: C_1  and  C_2
REMARK    2  A    between atoms: C_2  and  O_3
REMARK    3  A    between atoms: O_3  and  C_4
REMARK    4  A    between atoms: C_4  and  C_6
REMARK    5  A    between atoms: C_9  and  N_12
REMARK    6  A    between atoms: N_12  and  C_13
REMARK    7  A    between atoms: C_13  and  C_15
REMARK    8  A    between atoms: C_13  and  C_16
REMARK                            x       y       z     vdW  Elec       q    Type
REMARK                         _______ _______ _______ _____ _____    ______ ____
ROOT
ATOM      1  N   UNL     1      -6.301  -4.669  -1.212  0.00  0.00    +0.385 N 
ATOM      2  H   UNL     1      -6.760  -4.437  -0.344  0.00  0.00    -0.085 HD
ATOM      3  H   UNL     1      -6.832  -4.296  -1.984  0.00  0.00    -0.085 HD
ENDROOT
BRANCH   1   7
ATOM      4  C   UNL     1      -2.881  -2.427   0.017  0.00  0.00    +0.098 C 
ATOM      5  C   UNL     1      -3.646  -1.958  -1.223  0.00  0.00    +0.013 C 
ATOM      6  C   UNL     1      -5.052  -2.562  -1.213  0.00  0.00    -0.015 C 
ATOM      7  C   UNL     1      -4.951  -4.089  -1.222  0.00  0.00    -0.071 C 
ATOM      8  C   UNL     1      -4.186  -4.557   0.018  0.00  0.00    -0.015 C 
ATOM      9  C   UNL     1      -2.780  -3.953   0.007  0.00  0.00    +0.013 C 
BRANCH   4  10
ATOM     10  C   UNL     1      -1.496  -1.832   0.006  0.00  0.00    +0.310 C 
ATOM     11  O   UNL     1      -0.528  -2.555  -0.007  0.00  0.00    -0.251 OA
BRANCH  10  12
ATOM     12  O   UNL     1      -1.339  -0.499   0.012  0.00  0.00    -0.465 OA
BRANCH  12  14
ATOM     13  C   UNL     1      -0.019   1.526   0.010  0.00  0.00    +0.048 C 
ATOM     14  C   UNL     1       0.002  -0.004   0.002  0.00  0.00    +0.229 C 
ENDBRANCH  12  14
ENDBRANCH  10  12
ENDBRANCH   4  10
ENDBRANCH   1   7
BRANCH   1  15
ATOM     15  C   UNL     1      -6.207  -6.129  -1.342  0.00  0.00    -0.044 C 
ATOM     16  C   UNL     1      -5.624  -6.484  -2.711  0.00  0.00    -0.009 C 
BRANCH  15  17
ATOM     17  C   UNL     1      -7.581  -6.734  -1.208  0.00  0.00    -0.062 A 
ATOM     18  C   UNL     1      -8.668  -6.117  -1.798  0.00  0.00    +0.003 A 
ATOM     19  C   UNL     1      -9.928  -6.672  -1.677  0.00  0.00    +0.014 A 
ATOM     20  C   UNL     1     -10.101  -7.845  -0.964  0.00  0.00    +0.013 A 
ATOM     21  C   UNL     1      -9.014  -8.462  -0.374  0.00  0.00    +0.014 A 
ATOM     22  C   UNL     1      -7.753  -7.910  -0.501  0.00  0.00    +0.003 A 
ATOM     23  I   UNL     1     -12.011  -8.685  -0.779  0.00  0.00    -0.044 I 
ENDBRANCH  15  17
ENDBRANCH   1  15
TORSDOF 6
