REMARK  Name = ZINC25351637
REMARK  6 active torsions:
REMARK  status: ('A' for Active; 'I' for Inactive)
REMARK    1  A    between atoms: C_1  and  C_2
REMARK    2  A    between atoms: C_11  and  N_26
REMARK    3  A    between atoms: C_13  and  S_15
REMARK    4  A    between atoms: S_15  and  C_16
REMARK    5  A    between atoms: C_16  and  C_17
REMARK    6  A    between atoms: C_23  and  C_25
REMARK                            x       y       z     vdW  Elec       q    Type
REMARK                         _______ _______ _______ _____ _____    ______ ____
ROOT
ATOM      1  C   UNL     1      14.374  -0.734  -1.107  0.00  0.00    +0.008 C 
ATOM      2  C   UNL     1      12.897  -0.350  -1.008  0.00  0.00    -0.009 C 
ATOM      3  C   UNL     1      12.216  -1.200   0.069  0.00  0.00    +0.008 C 
ATOM      4  C   UNL     1      10.813  -0.659   0.347  0.00  0.00    +0.037 C 
ATOM      5  C   UNL     1      10.059  -0.543  -0.975  0.00  0.00    -0.025 A 
ATOM      6  C   UNL     1      10.723  -0.527  -2.147  0.00  0.00    -0.004 A 
ATOM      7  S   UNL     1       9.465  -0.383  -3.389  0.00  0.00    -0.073 S 
ATOM      8  C   UNL     1       8.045  -0.343  -2.327  0.00  0.00    +0.115 A 
ATOM      9  C   UNL     1       8.599  -0.445  -1.036  0.00  0.00    +0.051 A 
ATOM     10  C   UNL     1       7.663  -0.438   0.036  0.00  0.00    +0.129 A 
ATOM     11  N   UNL     1       6.372  -0.334  -0.234  0.00  0.00    -0.207 NA
ATOM     12  C   UNL     1       5.916  -0.246  -1.478  0.00  0.00    +0.191 A 
ATOM     13  N   UNL     1       6.743  -0.248  -2.515  0.00  0.00    -0.215 NA
ATOM     14  C   UNL     1      12.204  -0.613  -2.353  0.00  0.00    +0.046 C 
ENDROOT
BRANCH  10  15
ATOM     15  N   UNL     1       8.098  -0.533   1.345  0.00  0.00    -0.343 N 
ATOM     16  H   UNL     1       7.369  -0.527   2.169  0.00  0.00    +0.144 HD
ATOM     17  H   UNL     1       9.173  -0.615   1.563  0.00  0.00    +0.144 HD
ENDBRANCH  10  15
BRANCH  12  18
ATOM     18  S   UNL     1       4.181  -0.118  -1.755  0.00  0.00    -0.080 S 
BRANCH  18  19
ATOM     19  C   UNL     1       3.585  -0.165  -0.047  0.00  0.00    +0.133 C 
BRANCH  19  20
ATOM     20  C   UNL     1       2.081  -0.066  -0.036  0.00  0.00    +0.061 A 
ATOM     21  C   UNL     1       1.466   1.140   0.028  0.00  0.00    +0.072 A 
ATOM     22  S   UNL     1      -0.249   0.639   0.008  0.00  0.00    -0.060 S 
ATOM     23  C   UNL     1       0.017  -1.075  -0.081  0.00  0.00    +0.165 A 
ATOM     24  N   UNL     1       1.334  -1.151  -0.089  0.00  0.00    -0.229 NA
ATOM     25  N   UNL     1      -0.918  -2.102  -0.130  0.00  0.00    -0.265 N 
ATOM     26  C   UNL     1      -2.235  -1.817  -0.111  0.00  0.00    +0.216 C 
ATOM     27  O   UNL     1      -2.604  -0.663  -0.051  0.00  0.00    -0.276 OA
ATOM     28  C   UNL     1      -3.248  -2.931  -0.163  0.00  0.00    +0.109 C 
ATOM     29  H   UNL     1      -0.582  -3.149  -0.184  0.00  0.00    +0.157 HD
ENDBRANCH  19  20
ENDBRANCH  18  19
ENDBRANCH  12  18
TORSDOF 4
