REMARK  Name = ZINC23968498
REMARK  5 active torsions:
REMARK  status: ('A' for Active; 'I' for Inactive)
REMARK    1  A    between atoms: C_4  and  C_7
REMARK    2  A    between atoms: C_15  and  C_17
REMARK    3  A    between atoms: C_17  and  N_18
REMARK    4  A    between atoms: N_21  and  S_24
REMARK    5  A    between atoms: S_24  and  C_27
REMARK                            x       y       z     vdW  Elec       q    Type
REMARK                         _______ _______ _______ _____ _____    ______ ____
ROOT
ATOM      1  C   UNL     1       0.910   7.449  -8.067  0.00  0.00    +0.004 A 
ATOM      2  C   UNL     1       0.940   8.496  -7.208  0.00  0.00    +0.056 A 
ATOM      3  S   UNL     1       0.264   7.815  -5.705  0.00  0.00    -0.078 S 
ATOM      4  C   UNL     1      -0.039   6.158  -6.261  0.00  0.00    +0.092 A 
ATOM      5  C   UNL     1       0.390   6.171  -7.598  0.00  0.00    +0.080 A 
ATOM      6  C   UNL     1       0.256   4.933  -8.304  0.00  0.00    +0.282 A 
ATOM      7  O   UNL     1       0.603   4.845  -9.470  0.00  0.00    -0.265 OA
ATOM      8  N   UNL     1      -0.252   3.866  -7.660  0.00  0.00    -0.197 NA
ATOM      9  C   UNL     1      -0.647   3.947  -6.364  0.00  0.00    +0.095 A 
ATOM     10  N   UNL     1      -0.538   5.062  -5.693  0.00  0.00    -0.339 N 
ATOM     11  H   UNL     1      -0.865   5.088  -4.643  0.00  0.00    +0.167 HD
ENDROOT
BRANCH   1  15
ATOM     12  C   UNL     1       2.307   7.886 -12.059  0.00  0.00    +0.000 A 
ATOM     13  C   UNL     1       1.406   8.798 -11.541  0.00  0.00    +0.001 A 
ATOM     14  C   UNL     1       0.949   8.661 -10.246  0.00  0.00    +0.008 A 
ATOM     15  C   UNL     1       1.397   7.601  -9.459  0.00  0.00    -0.017 A 
ATOM     16  C   UNL     1       2.310   6.688  -9.985  0.00  0.00    +0.008 A 
ATOM     17  C   UNL     1       2.756   6.831 -11.283  0.00  0.00    +0.001 A 
ENDBRANCH   1  15
BRANCH   9  18
ATOM     18  C   UNL     1      -1.216   2.728  -5.685  0.00  0.00    -0.003 C 
BRANCH  18  19
ATOM     19  N   UNL     1      -1.692   3.091  -4.343  0.00  0.00    +0.386 N 
ATOM     20  C   UNL     1      -2.841   4.002  -4.421  0.00  0.00    -0.061 C 
ATOM     21  C   UNL     1      -3.192   4.499  -3.014  0.00  0.00    +0.091 C 
ATOM     22  N   UNL     1      -3.382   3.331  -2.141  0.00  0.00    -0.180 NA
ATOM     23  C   UNL     1      -2.327   2.306  -2.110  0.00  0.00    +0.091 C 
ATOM     24  C   UNL     1      -2.014   1.893  -3.557  0.00  0.00    -0.061 C 
ATOM     25  H   UNL     1      -0.879   3.622  -3.827  0.00  0.00    -0.081 HD
BRANCH  22  26
ATOM     26  S   UNL     1      -4.744   3.177  -1.211  0.00  0.00    +0.067 S 
ATOM     27  O   UNL     1      -5.252   4.490  -1.016  0.00  0.00    -0.152 OA
ATOM     28  O   UNL     1      -4.402   2.324  -0.128  0.00  0.00    -0.152 OA
BRANCH  26  29
ATOM     29  C   UNL     1      -5.938   2.313  -2.176  0.00  0.00    +0.143 A 
ATOM     30  C   UNL     1      -6.154   0.978  -2.273  0.00  0.00    +0.036 A 
ATOM     31  C   UNL     1      -7.155   0.519  -3.107  0.00  0.00    +0.010 A 
ATOM     32  C   UNL     1      -7.893   1.418  -3.804  0.00  0.00    +0.047 A 
ATOM     33  S   UNL     1      -7.173   2.967  -3.287  0.00  0.00    -0.077 S 
ENDBRANCH  26  29
ENDBRANCH  22  26
ENDBRANCH  18  19
ENDBRANCH   9  18
TORSDOF 5
