REMARK  Name = ZINC36393832
REMARK  7 active torsions:
REMARK  status: ('A' for Active; 'I' for Inactive)
REMARK    1  A    between atoms: C_1  and  C_2
REMARK    2  A    between atoms: C_2  and  C_4
REMARK    3  A    between atoms: C_2  and  N_16
REMARK    4  A    between atoms: C_17  and  C_19
REMARK    5  A    between atoms: C_19  and  N_20
REMARK    6  A    between atoms: C_21  and  C_23
REMARK    7  A    between atoms: C_23  and  C_24
REMARK                            x       y       z     vdW  Elec       q    Type
REMARK                         _______ _______ _______ _____ _____    ______ ____
ROOT
ATOM      1  N   UNL     1      -1.372  -0.511   0.012  0.00  0.00    -0.307 N 
ATOM      2  C   UNL     1      -2.051  -0.643  -1.145  0.00  0.00    +0.231 C 
ATOM      3  O   UNL     1      -1.524  -0.341  -2.194  0.00  0.00    -0.274 OA
ATOM      4  H   UNL     1      -1.794  -0.752   0.852  0.00  0.00    +0.149 HD
ENDROOT
BRANCH   1   6
ATOM      5  C   UNL     1      -0.019   1.526   0.010  0.00  0.00    +0.033 C 
ATOM      6  C   UNL     1       0.002  -0.004   0.002  0.00  0.00    +0.100 C 
BRANCH   6   7
ATOM      7  C   UNL     1       0.731  -0.503   1.223  0.00  0.00    -0.025 A 
ATOM      8  C   UNL     1       0.077  -0.557   2.442  0.00  0.00    +0.007 A 
ATOM      9  C   UNL     1       0.737  -1.013   3.566  0.00  0.00    +0.028 A 
ATOM     10  C   UNL     1       2.059  -1.419   3.474  0.00  0.00    +0.067 A 
ATOM     11  C   UNL     1       2.719  -1.364   2.244  0.00  0.00    +0.067 A 
ATOM     12  C   UNL     1       2.047  -0.910   1.120  0.00  0.00    +0.033 A 
ATOM     13  N   UNL     1       4.014  -1.829   2.461  0.00  0.00    -0.306 N 
ATOM     14  H   UNL     1       4.709  -1.906   1.789  0.00  0.00    +0.170 HD
ATOM     15  C   UNL     1       4.137  -2.151   3.763  0.00  0.00    +0.325 A 
ATOM     16  O   UNL     1       5.145  -2.589   4.284  0.00  0.00    -0.247 OA
ATOM     17  N   UNL     1       2.974  -1.915   4.400  0.00  0.00    -0.306 N 
ATOM     18  H   UNL     1       2.803  -2.064   5.343  0.00  0.00    +0.170 HD
ENDBRANCH   6   7
ENDBRANCH   1   6
BRANCH   2  19
ATOM     19  C   UNL     1      -3.465  -1.164  -1.134  0.00  0.00    +0.200 C 
BRANCH  19  20
ATOM     20  N   UNL     1      -3.978  -1.213  -2.505  0.00  0.00    -0.306 N 
ATOM     21  C   UNL     1      -5.231  -1.650  -2.741  0.00  0.00    +0.218 C 
ATOM     22  O   UNL     1      -5.933  -2.003  -1.818  0.00  0.00    -0.275 OA
ATOM     23  H   UNL     1      -3.416  -0.931  -3.244  0.00  0.00    +0.149 HD
BRANCH  21  24
ATOM     24  C   UNL     1      -5.758  -1.700  -4.152  0.00  0.00    +0.131 C 
BRANCH  24  25
ATOM     25  C   UNL     1      -7.172  -2.222  -4.141  0.00  0.00    -0.031 A 
ATOM     26  C   UNL     1      -7.414  -3.546  -4.345  0.00  0.00    +0.005 A 
ATOM     27  C   UNL     1      -8.715  -4.046  -4.338  0.00  0.00    +0.001 A 
ATOM     28  C   UNL     1      -9.780  -3.226  -4.129  0.00  0.00    +0.008 A 
ATOM     29  C   UNL     1      -9.570  -1.853  -3.915  0.00  0.00    -0.018 A 
ATOM     30  C   UNL     1      -8.246  -1.345  -3.915  0.00  0.00    -0.014 A 
ATOM     31  C   UNL     1      -8.035   0.027  -3.695  0.00  0.00    +0.009 A 
ATOM     32  C   UNL     1      -9.101   0.846  -3.480  0.00  0.00    +0.001 A 
ATOM     33  C   UNL     1     -10.401   0.345  -3.473  0.00  0.00    +0.001 A 
ATOM     34  C   UNL     1     -10.645  -0.975  -3.696  0.00  0.00    +0.008 A 
ENDBRANCH  24  25
ENDBRANCH  21  24
ENDBRANCH  19  20
ENDBRANCH   2  19
TORSDOF 6
