REMARK  Name = ZINC30134859
REMARK  7 active torsions:
REMARK  status: ('A' for Active; 'I' for Inactive)
REMARK    1  A    between atoms: C_5  and  C_7
REMARK    2  A    between atoms: C_7  and  C_9
REMARK    3  A    between atoms: C_7  and  N_27
REMARK    4  A    between atoms: C_9  and  C_10
REMARK    5  A    between atoms: N_12  and  C_13
REMARK    6  A    between atoms: C_13  and  C_15
REMARK    7  A    between atoms: C_13  and  C_22
REMARK                            x       y       z     vdW  Elec       q    Type
REMARK                         _______ _______ _______ _____ _____    ______ ____
ROOT
ATOM      1  C   UNL     1       3.994   5.222   1.457  0.00  0.00    +0.216 C 
ATOM      2  O   UNL     1       4.578   5.467   0.423  0.00  0.00    -0.276 OA
ATOM      3  N   UNL     1       4.452   5.717   2.623  0.00  0.00    -0.304 N 
ATOM      4  H   UNL     1       3.922   5.495   3.562  0.00  0.00    +0.150 HD
ENDROOT
BRANCH   1   5
ATOM      5  C   UNL     1       2.755   4.364   1.437  0.00  0.00    +0.123 C 
BRANCH   5   6
ATOM      6  C   UNL     1       2.454   3.936  -0.000  0.00  0.00    +0.116 C 
BRANCH   6  11
ATOM      7  C   UNL     1      -0.614   2.032   1.104  0.00  0.00    +0.000 A 
ATOM      8  C   UNL     1      -1.241   1.792  -0.105  0.00  0.00    +0.003 A 
ATOM      9  C   UNL     1      -0.678   2.252  -1.280  0.00  0.00    +0.039 A 
ATOM     10  C   UNL     1       0.520   2.946  -1.247  0.00  0.00    +0.128 A 
ATOM     11  C   UNL     1       1.150   3.182  -0.037  0.00  0.00    +0.008 A 
ATOM     12  C   UNL     1       0.582   2.724   1.137  0.00  0.00    +0.008 A 
ATOM     13  F   UNL     1       1.073   3.393  -2.396  0.00  0.00    -0.205 F 
ENDBRANCH   6  11
BRANCH   6  14
ATOM     14  N   UNL     1       3.531   3.071  -0.488  0.00  0.00    -0.292 N 
ATOM     15  C   UNL     1       3.767   1.886   0.108  0.00  0.00    +0.298 C 
ATOM     16  O   UNL     1       3.030   1.492   0.991  0.00  0.00    -0.253 OA
ATOM     17  N   UNL     1       4.821   1.138  -0.273  0.00  0.00    -0.313 N 
ATOM     18  H   UNL     1       4.148   3.390  -1.342  0.00  0.00    +0.151 HD
ATOM     19  H   UNL     1       5.014   0.170   0.213  0.00  0.00    +0.146 HD
ATOM     20  H   UNL     1       5.489   1.494  -1.072  0.00  0.00    +0.146 HD
ENDBRANCH   6  14
ENDBRANCH   5   6
ENDBRANCH   1   5
BRANCH   3  21
ATOM     21  C   UNL     1       5.657   6.551   2.642  0.00  0.00    +0.140 C 
BRANCH  21  22
ATOM     22  C   UNL     1       6.302   6.470   4.002  0.00  0.00    -0.022 A 
ATOM     23  C   UNL     1       5.518   6.468   5.140  0.00  0.00    +0.008 A 
ATOM     24  C   UNL     1       6.109   6.387   6.387  0.00  0.00    +0.038 A 
ATOM     25  C   UNL     1       7.488   6.321   6.496  0.00  0.00    +0.123 A 
ATOM     26  C   UNL     1       8.273   6.329   5.355  0.00  0.00    +0.038 A 
ATOM     27  C   UNL     1       7.679   6.403   4.109  0.00  0.00    +0.008 A 
ATOM     28  F   UNL     1       8.067   6.249   7.714  0.00  0.00    -0.205 F 
ENDBRANCH  21  22
BRANCH  21  29
ATOM     29  C   UNL     1       5.282   7.981   2.349  0.00  0.00    +0.014 A 
ATOM     30  C   UNL     1       5.935   8.896   1.592  0.00  0.00    +0.013 A 
ATOM     31  C   UNL     1       5.397  10.163   1.459  0.00  0.00    +0.008 A 
ATOM     32  C   UNL     1       4.238  10.455   2.098  0.00  0.00    +0.045 A 
ATOM     33  S   UNL     1       3.867   8.911   2.914  0.00  0.00    -0.099 S 
ENDBRANCH  21  29
ENDBRANCH   3  21
TORSDOF 7
