REMARK  Name = ZINC36643282
REMARK  11 active torsions:
REMARK  status: ('A' for Active; 'I' for Inactive)
REMARK    1  A    between atoms: C_1  and  C_2
REMARK    2  A    between atoms: C_5  and  C_38
REMARK    3  A    between atoms: N_8  and  S_10
REMARK    4  A    between atoms: S_10  and  C_13
REMARK    5  A    between atoms: C_16  and  C_19
REMARK    6  A    between atoms: N_21  and  C_22
REMARK    7  A    between atoms: C_22  and  C_23
REMARK    8  A    between atoms: C_23  and  C_24
REMARK    9  A    between atoms: C_24  and  N_25
REMARK   10  A    between atoms: N_25  and  C_26
REMARK   11  A    between atoms: N_25  and  C_27
REMARK                            x       y       z     vdW  Elec       q    Type
REMARK                         _______ _______ _______ _____ _____    ______ ____
ROOT
ATOM      1  C   UNL     1       3.689  -3.974  -3.808  0.00  0.00    +0.252 C 
ATOM      2  O   UNL     1       3.274  -5.063  -4.152  0.00  0.00    -0.270 OA
ATOM      3  N   UNL     1       4.561  -3.307  -4.590  0.00  0.00    -0.246 N 
ATOM      4  C   UNL     1       4.889  -3.804  -5.840  0.00  0.00    +0.168 A 
ATOM      5  N   UNL     1       5.712  -3.306  -6.733  0.00  0.00    -0.224 NA
ATOM      6  C   UNL     1       5.940  -3.904  -7.924  0.00  0.00    +0.080 A 
ATOM      7  C   UNL     1       6.794  -3.476  -8.966  0.00  0.00    +0.032 A 
ATOM      8  C   UNL     1       6.911  -4.204 -10.120  0.00  0.00    +0.040 A 
ATOM      9  C   UNL     1       6.199  -5.382 -10.310  0.00  0.00    +0.125 A 
ATOM     10  C   UNL     1       5.353  -5.830  -9.310  0.00  0.00    +0.055 A 
ATOM     11  C   UNL     1       5.232  -5.106  -8.150  0.00  0.00    +0.043 A 
ATOM     12  S   UNL     1       4.306  -5.289  -6.644  0.00  0.00    -0.052 S 
ATOM     13  F   UNL     1       6.330  -6.082 -11.458  0.00  0.00    -0.205 F 
ENDROOT
BRANCH   1  17
ATOM     14  C   UNL     1       2.393  -2.269  -0.140  0.00  0.00    +0.106 A 
ATOM     15  C   UNL     1       1.470  -2.843  -0.997  0.00  0.00    +0.029 A 
ATOM     16  C   UNL     1       1.884  -3.398  -2.190  0.00  0.00    +0.015 A 
ATOM     17  C   UNL     1       3.238  -3.380  -2.532  0.00  0.00    +0.037 A 
ATOM     18  C   UNL     1       4.163  -2.800  -1.663  0.00  0.00    +0.015 A 
ATOM     19  C   UNL     1       3.735  -2.243  -0.475  0.00  0.00    +0.029 A 
BRANCH  14  20
ATOM     20  S   UNL     1       1.855  -1.562   1.382  0.00  0.00    +0.061 S 
ATOM     21  O   UNL     1       2.978  -1.570   2.253  0.00  0.00    -0.153 OA
ATOM     22  O   UNL     1       0.628  -2.197   1.714  0.00  0.00    -0.153 OA
BRANCH  20  28
ATOM     23  C   UNL     1       3.571   3.038   0.094  0.00  0.00    +0.009 C 
ATOM     24  C   UNL     1       2.599   1.870  -0.079  0.00  0.00    +0.002 C 
ATOM     25  C   UNL     1       1.206   2.409  -0.414  0.00  0.00    +0.009 C 
ATOM     26  C   UNL     1       0.240   1.240  -0.620  0.00  0.00    +0.002 C 
ATOM     27  C   UNL     1       0.145   0.428   0.676  0.00  0.00    +0.112 C 
ATOM     28  N   UNL     1       1.499   0.028   1.084  0.00  0.00    -0.176 NA
ATOM     29  C   UNL     1       2.531   1.064   1.223  0.00  0.00    +0.112 C 
ATOM     30  C   UNL     1       0.756   0.344  -1.748  0.00  0.00    +0.009 C 
ENDBRANCH  20  28
ENDBRANCH  14  20
ENDBRANCH   1  17
BRANCH   3  31
ATOM     31  C   UNL     1       5.160  -2.056  -4.118  0.00  0.00    +0.114 C 
BRANCH  31  32
ATOM     32  C   UNL     1       6.553  -2.341  -3.551  0.00  0.00    +0.001 C 
BRANCH  32  33
ATOM     33  C   UNL     1       7.124  -1.061  -2.936  0.00  0.00    -0.078 C 
BRANCH  33  34
ATOM     34  N   UNL     1       8.461  -1.334  -2.392  0.00  0.00    +0.376 N 
ATOM     35  C   UNL     1       9.058  -0.082  -1.909  0.00  0.00    -0.097 C 
ATOM     36  C   UNL     1       8.351  -2.285  -1.278  0.00  0.00    -0.097 C 
ATOM     37  H   UNL     1       9.044  -1.729  -3.114  0.00  0.00    -0.083 HD
ENDBRANCH  33  34
ENDBRANCH  32  33
ENDBRANCH  31  32
ENDBRANCH   3  31
TORSDOF 7
