REMARK  Name = ZINC40900677
REMARK  9 active torsions:
REMARK  status: ('A' for Active; 'I' for Inactive)
REMARK    1  A    between atoms: C_1  and  C_2
REMARK    2  A    between atoms: C_5  and  O_8
REMARK    3  A    between atoms: O_8  and  C_9
REMARK    4  A    between atoms: C_9  and  C_10
REMARK    5  A    between atoms: C_10  and  C_11
REMARK    6  A    between atoms: C_11  and  C_12
REMARK    7  A    between atoms: N_14  and  C_15
REMARK    8  A    between atoms: C_15  and  N_17
REMARK    9  A    between atoms: N_17  and  C_18
REMARK                            x       y       z     vdW  Elec       q    Type
REMARK                         _______ _______ _______ _____ _____    ______ ____
ROOT
ATOM      1  C   UNL     1      -0.354  -8.477   2.295  0.00  0.00    +0.219 C 
ATOM      2  O   UNL     1      -0.592  -8.923   1.193  0.00  0.00    -0.275 OA
ATOM      3  N   UNL     1      -0.091  -9.314   3.318  0.00  0.00    -0.268 N 
ATOM      4  H   UNL     1       0.100  -8.957   4.200  0.00  0.00    +0.156 HD
ENDROOT
BRANCH   3   5
ATOM      5  C   UNL     1      -0.091 -10.646   3.116  0.00  0.00    +0.141 C 
ATOM      6  S   UNL     1      -0.426 -11.276   1.559  0.00  0.00    -0.018 S 
BRANCH   5   7
ATOM      7  N   UNL     1       0.173 -11.483   4.138  0.00  0.00    -0.295 N 
ATOM      8  H   UNL     1       0.424 -11.127   5.005  0.00  0.00    +0.154 HD
BRANCH   7   9
ATOM      9  C   UNL     1       0.084 -12.868   3.951  0.00  0.00    +0.051 A 
ATOM     10  C   UNL     1       0.677 -13.459   2.843  0.00  0.00    +0.026 A 
ATOM     11  C   UNL     1       0.589 -14.825   2.660  0.00  0.00    +0.022 A 
ATOM     12  C   UNL     1      -0.091 -15.605   3.579  0.00  0.00    +0.042 A 
ATOM     13  C   UNL     1      -0.684 -15.020   4.684  0.00  0.00    +0.041 A 
ATOM     14  C   UNL     1      -0.593 -13.654   4.875  0.00  0.00    +0.063 A 
ATOM     15 CL   UNL     1      -1.330 -12.920   6.266  0.00  0.00    -0.082 Cl
ATOM     16 CL   UNL     1      -0.201 -17.322   3.345  0.00  0.00    -0.083 Cl
ENDBRANCH   7   9
ENDBRANCH   5   7
ENDBRANCH   3   5
BRANCH   1  17
ATOM     17  C   UNL     1      -0.354  -6.987   2.521  0.00  0.00    +0.099 C 
BRANCH  17  18
ATOM     18  C   UNL     1      -0.680  -6.272   1.209  0.00  0.00    +0.050 C 
BRANCH  18  19
ATOM     19  C   UNL     1      -0.680  -4.759   1.438  0.00  0.00    +0.229 C 
BRANCH  19  20
ATOM     20  O   UNL     1      -0.985  -4.091   0.212  0.00  0.00    -0.492 OA
BRANCH  20  25
ATOM     21  C   UNL     1      -1.152   1.537   0.341  0.00  0.00    +0.044 C 
ATOM     22  C   UNL     1      -1.107   0.031   0.306  0.00  0.00    -0.050 A 
ATOM     23  C   UNL     1      -1.355  -0.640  -0.877  0.00  0.00    +0.007 A 
ATOM     24  C   UNL     1      -1.314  -2.020  -0.911  0.00  0.00    +0.046 A 
ATOM     25  C   UNL     1      -1.024  -2.733   0.243  0.00  0.00    +0.121 A 
ATOM     26  C   UNL     1      -0.776  -2.057   1.429  0.00  0.00    +0.046 A 
ATOM     27  C   UNL     1      -0.812  -0.677   1.457  0.00  0.00    +0.007 A 
ENDBRANCH  20  25
ENDBRANCH  19  20
ENDBRANCH  18  19
ENDBRANCH  17  18
ENDBRANCH   1  17
TORSDOF 8
