REMARK  Name = ZINC03315209
REMARK  7 active torsions:
REMARK  status: ('A' for Active; 'I' for Inactive)
REMARK    1  A    between atoms: C_4  and  N_7
REMARK    2  A    between atoms: C_20  and  S_21
REMARK    3  A    between atoms: S_21  and  C_22
REMARK    4  A    between atoms: C_22  and  C_23
REMARK    5  A    between atoms: N_25  and  C_26
REMARK    6  A    between atoms: C_29  and  S_32
REMARK    7  A    between atoms: S_32  and  N_35
REMARK                            x       y       z     vdW  Elec       q    Type
REMARK                         _______ _______ _______ _____ _____    ______ ____
ROOT
ATOM      1  N   UNL     1       1.339   2.696   0.031  0.00  0.00    -0.245 N 
ATOM      2  C   UNL     1       2.621   3.112  -0.028  0.00  0.00    +0.268 A 
ATOM      3  O   UNL     1       2.884   4.299  -0.057  0.00  0.00    -0.267 OA
ATOM      4  C   UNL     1       3.697   2.106  -0.057  0.00  0.00    +0.064 A 
ATOM      5  C   UNL     1       5.038   2.483  -0.117  0.00  0.00    +0.015 A 
ATOM      6  C   UNL     1       6.018   1.513  -0.141  0.00  0.00    +0.001 A 
ATOM      7  C   UNL     1       5.676   0.171  -0.106  0.00  0.00    +0.002 A 
ATOM      8  C   UNL     1       4.352  -0.216  -0.047  0.00  0.00    +0.027 A 
ATOM      9  C   UNL     1       3.352   0.745  -0.021  0.00  0.00    +0.064 A 
ATOM     10  N   UNL     1       2.011   0.389   0.039  0.00  0.00    -0.255 N 
ATOM     11  C   UNL     1       1.029   1.345   0.064  0.00  0.00    +0.245 A 
ATOM     12  N   UNL     1      -0.118   0.711   0.122  0.00  0.00    -0.109 NA
ATOM     13  N   UNL     1       0.079  -0.559   0.134  0.00  0.00    -0.120 NA
ATOM     14  C   UNL     1       1.364  -0.817   0.085  0.00  0.00    +0.198 A 
ENDROOT
BRANCH   1  18
ATOM     15  C   UNL     1      -1.734   5.509   0.113  0.00  0.00    +0.000 A 
ATOM     16  C   UNL     1      -1.713   4.538  -0.871  0.00  0.00    +0.002 A 
ATOM     17  C   UNL     1      -0.696   3.604  -0.901  0.00  0.00    +0.026 A 
ATOM     18  C   UNL     1       0.307   3.641   0.058  0.00  0.00    +0.053 A 
ATOM     19  C   UNL     1       0.281   4.614   1.049  0.00  0.00    +0.026 A 
ATOM     20  C   UNL     1      -0.736   5.548   1.071  0.00  0.00    +0.002 A 
ENDBRANCH   1  18
BRANCH  14  21
ATOM     21  S   UNL     1       2.114  -2.411   0.079  0.00  0.00    -0.076 S 
BRANCH  21  22
ATOM     22  C   UNL     1       0.710  -3.557   0.155  0.00  0.00    +0.173 C 
BRANCH  22  23
ATOM     23  C   UNL     1       1.219  -4.976   0.156  0.00  0.00    +0.227 C 
ATOM     24  O   UNL     1       2.412  -5.192   0.109  0.00  0.00    -0.275 OA
ATOM     25  N   UNL     1       0.349  -6.004   0.208  0.00  0.00    -0.285 N 
ATOM     26  H   UNL     1      -0.600  -5.831   0.304  0.00  0.00    +0.155 HD
BRANCH  25  27
ATOM     27  C   UNL     1       0.816  -7.320   0.123  0.00  0.00    +0.034 A 
ATOM     28  C   UNL     1       0.059  -8.287  -0.526  0.00  0.00    +0.025 A 
ATOM     29  C   UNL     1       0.525  -9.584  -0.613  0.00  0.00    +0.030 A 
ATOM     30  C   UNL     1       1.740  -9.923  -0.045  0.00  0.00    +0.105 A 
ATOM     31  C   UNL     1       2.493  -8.964   0.607  0.00  0.00    +0.030 A 
ATOM     32  C   UNL     1       2.035  -7.664   0.693  0.00  0.00    +0.025 A 
BRANCH  30  33
ATOM     33  S   UNL     1       2.328 -11.580  -0.152  0.00  0.00    +0.056 S 
ATOM     34  O   UNL     1       1.696 -12.163  -1.283  0.00  0.00    -0.153 OA
ATOM     35  O   UNL     1       3.741 -11.520  -0.016  0.00  0.00    -0.153 OA
BRANCH  33  36
ATOM     36  N   UNL     1       1.758 -12.389   1.177  0.00  0.00    -0.204 NA
ATOM     37  H   UNL     1       1.578 -13.341   1.125  0.00  0.00    +0.144 HD
ATOM     38  H   UNL     1       1.605 -11.911   2.006  0.00  0.00    +0.144 HD
ENDBRANCH  33  36
ENDBRANCH  30  33
ENDBRANCH  25  27
ENDBRANCH  22  23
ENDBRANCH  21  22
ENDBRANCH  14  21
TORSDOF 7
