REMARK  Name = ZINC14461141
REMARK  6 active torsions:
REMARK  status: ('A' for Active; 'I' for Inactive)
REMARK    1  A    between atoms: C_1  and  C_2
REMARK    2  A    between atoms: C_2  and  C_3
REMARK    3  A    between atoms: C_2  and  O_4
REMARK    4  A    between atoms: O_4  and  C_5
REMARK    5  A    between atoms: C_18  and  C_21
REMARK    6  A    between atoms: C_26  and  O_27
REMARK                            x       y       z     vdW  Elec       q    Type
REMARK                         _______ _______ _______ _____ _____    ______ ____
ROOT
ATOM      1  C   UNL     1      -4.799   0.899  -1.606  0.00  0.00    +0.121 A 
ATOM      2  C   UNL     1      -4.029   1.039  -2.751  0.00  0.00    +0.047 A 
ATOM      3  C   UNL     1      -2.666   1.226  -2.638  0.00  0.00    +0.027 A 
ATOM      4  C   UNL     1      -2.071   1.275  -1.384  0.00  0.00    +0.032 A 
ATOM      5  C   UNL     1      -2.834   1.137  -0.236  0.00  0.00    -0.016 A 
ATOM      6  C   UNL     1      -4.204   0.948  -0.357  0.00  0.00    +0.051 A 
ATOM      7  C   UNL     1      -2.235   1.186   1.134  0.00  0.00    +0.049 C 
ATOM      8  C   UNL     1      -2.147  -0.190   1.748  0.00  0.00    -0.023 C 
ATOM      9  C   UNL     1      -1.050  -0.296   2.468  0.00  0.00    -0.030 C 
ATOM     10  C   UNL     1      -0.263   0.999   2.431  0.00  0.00    +0.033 C 
ATOM     11  C   UNL     1      -0.778   1.697   1.138  0.00  0.00    +0.029 C 
ATOM     12  C   UNL     1      -0.013   1.089  -0.042  0.00  0.00    +0.108 C 
ATOM     13  N   UNL     1      -0.685   1.465  -1.290  0.00  0.00    -0.336 N 
ATOM     14  H   UNL     1      -0.183   1.836  -2.032  0.00  0.00    +0.147 HD
ENDROOT
BRANCH  12  15
ATOM     15  C   UNL     1       1.399   1.613  -0.051  0.00  0.00    +0.015 A 
ATOM     16  C   UNL     1       2.445   0.791   0.323  0.00  0.00    +0.024 A 
ATOM     17  C   UNL     1       3.741   1.272   0.315  0.00  0.00    +0.018 A 
ATOM     18  C   UNL     1       3.995   2.577  -0.068  0.00  0.00    +0.019 A 
ATOM     19  C   UNL     1       2.953   3.402  -0.443  0.00  0.00    +0.047 A 
ATOM     20  C   UNL     1       1.652   2.921  -0.440  0.00  0.00    +0.122 A 
ATOM     21 BR   UNL     1       5.170   0.143   0.826  0.00  0.00    -0.050 Br
BRANCH  20  22
ATOM     22  O   UNL     1       0.626   3.730  -0.814  0.00  0.00    -0.506 OA
ATOM     23  H   UNL     1       0.235   4.231  -0.085  0.00  0.00    +0.292 HD
ENDBRANCH  20  22
ENDBRANCH  12  15
BRANCH   1  24
ATOM     24  O   UNL     1      -6.142   0.714  -1.710  0.00  0.00    -0.489 OA
BRANCH  24  26
ATOM     25  C   UNL     1      -7.987  -0.237  -2.949  0.00  0.00    +0.051 C 
ATOM     26  C   UNL     1      -6.674   0.545  -3.026  0.00  0.00    +0.167 C 
ATOM     27  C   UNL     1      -6.933   1.917  -3.652  0.00  0.00    +0.051 C 
ENDBRANCH  24  26
ENDBRANCH   1  24
TORSDOF 4
