REMARK  Name = ZINC06606041
REMARK  7 active torsions:
REMARK  status: ('A' for Active; 'I' for Inactive)
REMARK    1  A    between atoms: C_1  and  O_2
REMARK    2  A    between atoms: O_2  and  C_3
REMARK    3  A    between atoms: C_3  and  C_5
REMARK    4  A    between atoms: C_9  and  N_10
REMARK    5  A    between atoms: C_11  and  C_13
REMARK    6  A    between atoms: C_13  and  S_14
REMARK    7  A    between atoms: S_14  and  C_15
REMARK                            x       y       z     vdW  Elec       q    Type
REMARK                         _______ _______ _______ _____ _____    ______ ____
ROOT
ATOM      1  N   UNL     1       2.829  -2.275   0.084  0.00  0.00    -0.279 N 
ATOM      2  C   UNL     1       3.770  -3.118   0.552  0.00  0.00    +0.228 C 
ATOM      3  O   UNL     1       3.645  -4.314   0.395  0.00  0.00    -0.275 OA
ATOM      4  H   UNL     1       2.929  -1.318   0.210  0.00  0.00    +0.155 HD
ENDROOT
BRANCH   1   9
ATOM      5  C   UNL     1       0.659  -2.064  -1.123  0.00  0.00    +0.091 A 
ATOM      6  C   UNL     1      -0.388  -2.831  -1.776  0.00  0.00    -0.021 A 
ATOM      7  C   UNL     1      -0.188  -4.166  -1.759  0.00  0.00    -0.004 A 
ATOM      8  S   UNL     1       1.345  -4.379  -0.902  0.00  0.00    -0.077 S 
ATOM      9  C   UNL     1       1.718  -2.775  -0.578  0.00  0.00    +0.086 A 
ATOM     10  C   UNL     1      -1.080  -5.217  -2.343  0.00  0.00    +0.043 C 
ATOM     11  C   UNL     1      -2.447  -4.580  -2.636  0.00  0.00    +0.005 C 
ATOM     12  C   UNL     1      -2.230  -3.260  -3.380  0.00  0.00    +0.005 C 
ATOM     13  C   UNL     1      -1.619  -2.224  -2.434  0.00  0.00    +0.037 C 
BRANCH   5  14
ATOM     14  C   UNL     1       0.601  -0.603  -1.048  0.00  0.00    +0.342 C 
ATOM     15  O   UNL     1       1.094   0.071  -1.932  0.00  0.00    -0.245 OA
BRANCH  14  17
ATOM     16  C   UNL     1      -0.017   1.425   0.010  0.00  0.00    +0.280 C 
ATOM     17  O   UNL     1       0.002  -0.004   0.002  0.00  0.00    -0.464 OA
ENDBRANCH  14  17
ENDBRANCH   5  14
ENDBRANCH   1   9
BRANCH   2  18
ATOM     18  C   UNL     1       4.978  -2.575   1.272  0.00  0.00    +0.173 C 
BRANCH  18  19
ATOM     19  S   UNL     1       6.050  -3.949   1.776  0.00  0.00    -0.075 S 
BRANCH  19  20
ATOM     20  C   UNL     1       7.398  -3.160   2.592  0.00  0.00    +0.210 A 
ATOM     21  N   UNL     1       8.451  -3.783   3.133  0.00  0.00    -0.188 NA
ATOM     22  C   UNL     1       9.268  -2.896   3.659  0.00  0.00    +0.209 A 
ATOM     23  N   UNL     1       8.738  -1.671   3.458  0.00  0.00    -0.246 N 
ATOM     24  H   UNL     1       9.117  -0.822   3.735  0.00  0.00    +0.192 HD
ATOM     25  N   UNL     1       7.534  -1.867   2.762  0.00  0.00    -0.144 NA
ATOM     26  N   UNL     1      10.459  -3.170   4.306  0.00  0.00    -0.328 N 
ATOM     27  H   UNL     1      10.758  -4.088   4.403  0.00  0.00    +0.145 HD
ATOM     28  H   UNL     1      10.995  -2.445   4.663  0.00  0.00    +0.145 HD
ENDBRANCH  19  20
ENDBRANCH  18  19
ENDBRANCH   2  18
TORSDOF 6
