REMARK  Name = ZINC07925216
REMARK  8 active torsions:
REMARK  status: ('A' for Active; 'I' for Inactive)
REMARK    1  A    between atoms: C_1  and  C_2
REMARK    2  A    between atoms: C_5  and  C_8
REMARK    3  A    between atoms: C_8  and  C_10
REMARK    4  A    between atoms: C_8  and  N_48
REMARK    5  A    between atoms: C_15  and  C_16
REMARK    6  A    between atoms: C_15  and  N_48
REMARK    7  A    between atoms: N_18  and  C_19
REMARK    8  A    between atoms: C_20  and  C_27
REMARK                            x       y       z     vdW  Elec       q    Type
REMARK                         _______ _______ _______ _____ _____    ______ ____
ROOT
ATOM      1  N   UNL     1       3.426   1.750  -0.914  0.00  0.00    +0.392 N 
ATOM      2  H   UNL     1       3.889   2.506  -0.397  0.00  0.00    -0.084 HD
ATOM      3  H   UNL     1       2.905   2.145  -1.705  0.00  0.00    -0.084 HD
ENDROOT
BRANCH   1   4
ATOM      4  C   UNL     1       2.490   1.048  -0.016  0.00  0.00    -0.003 C 
BRANCH   4   9
ATOM      5  C   UNL     1      -2.553   3.869   0.047  0.00  0.00    +0.044 C 
ATOM      6  C   UNL     1      -1.238   3.133   0.030  0.00  0.00    -0.050 A 
ATOM      7  C   UNL     1      -1.219   1.751   0.017  0.00  0.00    +0.003 A 
ATOM      8  C   UNL     1      -0.013   1.076   0.008  0.00  0.00    +0.002 A 
ATOM      9  C   UNL     1       1.175   1.783   0.000  0.00  0.00    -0.057 A 
ATOM     10  C   UNL     1       1.156   3.165   0.008  0.00  0.00    +0.002 A 
ATOM     11  C   UNL     1      -0.050   3.840   0.022  0.00  0.00    +0.003 A 
ENDBRANCH   4   9
BRANCH   4  12
ATOM     12  C   UNL     1       3.062   1.010   1.377  0.00  0.00    -0.020 A 
ATOM     13  C   UNL     1       3.030   0.006   2.287  0.00  0.00    +0.010 A 
ATOM     14  C   UNL     1       3.631   0.195   3.517  0.00  0.00    +0.008 A 
ATOM     15  C   UNL     1       4.227   1.384   3.781  0.00  0.00    +0.045 A 
ATOM     16  S   UNL     1       3.953   2.280   2.262  0.00  0.00    -0.103 S 
ENDBRANCH   4  12
ENDBRANCH   1   4
BRANCH   1  17
ATOM     17  C   UNL     1       4.447   0.814  -1.423  0.00  0.00    +0.016 C 
BRANCH  17  18
ATOM     18  C   UNL     1       5.387   1.558  -2.336  0.00  0.00    +0.201 C 
ATOM     19  O   UNL     1       5.224   2.742  -2.540  0.00  0.00    -0.278 OA
ATOM     20  N   UNL     1       6.410   0.907  -2.925  0.00  0.00    -0.281 N 
ATOM     21  H   UNL     1       6.540  -0.040  -2.762  0.00  0.00    +0.155 HD
BRANCH  20  22
ATOM     22  C   UNL     1       7.276   1.592  -3.766  0.00  0.00    +0.090 A 
ATOM     23  C   UNL     1       8.375   1.104  -4.450  0.00  0.00    +0.084 A 
ATOM     24  C   UNL     1       9.127   2.042  -5.282  0.00  0.00    -0.018 A 
ATOM     25  C   UNL     1       8.662   3.305  -5.281  0.00  0.00    -0.004 A 
ATOM     26  S   UNL     1       7.248   3.265  -4.207  0.00  0.00    -0.077 S 
ATOM     27  C   UNL     1       9.487   4.210  -6.155  0.00  0.00    +0.043 C 
ATOM     28  C   UNL     1      10.293   3.251  -7.058  0.00  0.00    +0.010 C 
ATOM     29  C   UNL     1      10.357   1.980  -6.188  0.00  0.00    +0.037 C 
BRANCH  23  30
ATOM     30  C   UNL     1       8.759  -0.272  -4.351  0.00  0.00    +0.102 C 
ATOM     31  N   UNL     1       9.065  -1.363  -4.273  0.00  0.00    -0.191 NA
ENDBRANCH  23  30
ENDBRANCH  20  22
ENDBRANCH  17  18
ENDBRANCH   1  17
TORSDOF 7
