REMARK  Name = ZINC22473001
REMARK  7 active torsions:
REMARK  status: ('A' for Active; 'I' for Inactive)
REMARK    1  A    between atoms: C_1  and  N_2
REMARK    2  A    between atoms: N_2  and  C_3
REMARK    3  A    between atoms: C_3  and  C_4
REMARK    4  A    between atoms: C_4  and  C_5
REMARK    5  A    between atoms: C_5  and  N_6
REMARK    6  A    between atoms: C_9  and  O_10
REMARK    7  A    between atoms: C_18  and  C_20
REMARK                            x       y       z     vdW  Elec       q    Type
REMARK                         _______ _______ _______ _____ _____    ______ ____
ROOT
ATOM      1  C   UNL     1      -3.864   2.320  -0.240  0.00  0.00    +0.040 C 
ENDROOT
BRANCH   1   2
ATOM      2  C   UNL     1      -5.044   1.414   0.117  0.00  0.00    +0.109 C 
BRANCH   2   4
ATOM      3  C   UNL     1      -7.065   2.321  -1.121  0.00  0.00    +0.132 C 
ATOM      4  N   UNL     1      -6.281   2.198   0.111  0.00  0.00    -0.301 N 
ATOM      5  C   UNL     1      -6.699   2.807   1.239  0.00  0.00    +0.247 C 
ATOM      6  O   UNL     1      -6.002   2.786   2.235  0.00  0.00    -0.270 OA
BRANCH   5   7
ATOM      7  C   UNL     1      -8.001   3.498   1.265  0.00  0.00    +0.045 A 
ATOM      8  C   UNL     1      -9.128   2.892   0.728  0.00  0.00    +0.014 A 
ATOM      9  C   UNL     1     -10.357   3.538   0.750  0.00  0.00    +0.001 A 
ATOM     10  C   UNL     1     -10.493   4.779   1.296  0.00  0.00    +0.008 A 
ATOM     11  C   UNL     1      -9.379   5.431   1.851  0.00  0.00    -0.017 A 
ATOM     12  C   UNL     1      -8.118   4.786   1.844  0.00  0.00    -0.006 A 
ATOM     13  C   UNL     1      -7.006   5.440   2.393  0.00  0.00    +0.009 A 
ATOM     14  C   UNL     1      -7.153   6.681   2.936  0.00  0.00    +0.001 A 
ATOM     15  C   UNL     1      -8.394   7.314   2.949  0.00  0.00    +0.001 A 
ATOM     16  C   UNL     1      -9.493   6.711   2.420  0.00  0.00    +0.008 A 
ENDBRANCH   5   7
ENDBRANCH   2   4
ENDBRANCH   1   2
BRANCH   1  17
ATOM     17  C   UNL     1      -2.572   1.500  -0.233  0.00  0.00    +0.114 C 
BRANCH  17  18
ATOM     18  N   UNL     1      -1.442   2.368  -0.575  0.00  0.00    -0.384 N 
ATOM     19  C   UNL     1      -0.168   1.849  -0.632  0.00  0.00    +0.053 A 
ATOM     20  C   UNL     1       0.067   0.523  -0.373  0.00  0.00    +0.113 A 
ATOM     21  C   UNL     1       1.374   0.023  -0.445  0.00  0.00    +0.286 A 
ATOM     22  O   UNL     1       2.417   0.807  -0.761  0.00  0.00    -0.425 OA
ATOM     23  C   UNL     1       2.262   2.121  -1.029  0.00  0.00    +0.141 A 
ATOM     24  C   UNL     1       0.984   2.699  -0.979  0.00  0.00    +0.041 A 
ATOM     25  C   UNL     1       0.819   4.057  -1.255  0.00  0.00    +0.013 A 
ATOM     26  C   UNL     1       1.917   4.824  -1.577  0.00  0.00    +0.001 A 
ATOM     27  C   UNL     1       3.179   4.253  -1.627  0.00  0.00    +0.004 A 
ATOM     28  C   UNL     1       3.356   2.912  -1.355  0.00  0.00    +0.047 A 
ATOM     29  H   UNL     1      -1.611   3.434  -0.786  0.00  0.00    +0.160 HD
BRANCH  21  30
ATOM     30  O   UNL     1       1.569  -1.158  -0.212  0.00  0.00    -0.480 OA
ATOM     31  H   UNL     1       2.589  -1.567  -0.264  0.00  0.00    +0.295 HD
ENDBRANCH  21  30
ENDBRANCH  17  18
ENDBRANCH   1  17
TORSDOF 6
