REMARK  Name = ZINC34953486
REMARK  7 active torsions:
REMARK  status: ('A' for Active; 'I' for Inactive)
REMARK    1  A    between atoms: C_1  and  C_2
REMARK    2  A    between atoms: C_2  and  N_3
REMARK    3  A    between atoms: C_6  and  C_7
REMARK    4  A    between atoms: C_16  and  C_24
REMARK    5  A    between atoms: C_18  and  C_22
REMARK    6  A    between atoms: C_19  and  N_21
REMARK    7  A    between atoms: C_29  and  C_30
REMARK                            x       y       z     vdW  Elec       q    Type
REMARK                         _______ _______ _______ _____ _____    ______ ____
ROOT
ATOM      1  N   UNL     1      -1.385  -1.158   0.478  0.00  0.00    -0.294 NA
ATOM      2  C   UNL     1      -2.047  -0.367   1.531  0.00  0.00    +0.123 C 
ATOM      3  C   UNL     1      -3.515  -0.741   1.506  0.00  0.00    +0.010 C 
ATOM      4  C   UNL     1      -4.474   0.190   1.652  0.00  0.00    +0.016 C 
ATOM      5  C   UNL     1      -3.853  -2.167   1.316  0.00  0.00    +0.136 C 
ATOM      6  C   UNL     1      -2.898  -3.031   0.969  0.00  0.00    -0.001 C 
ATOM      7  C   UNL     1      -1.471  -2.589   0.773  0.00  0.00    +0.120 C 
ATOM      8  C   UNL     1      -3.229  -4.490   0.761  0.00  0.00    +0.096 C 
ATOM      9  C   UNL     1      -4.541  -4.827   1.411  0.00  0.00    +0.098 C 
ATOM     10  C   UNL     1      -5.420  -3.849   1.745  0.00  0.00    +0.199 C 
ATOM     11  O   UNL     1      -5.138  -2.557   1.502  0.00  0.00    -0.441 OA
ENDROOT
BRANCH   4  12
ATOM     12  C   UNL     1      -5.882  -0.156   1.389  0.00  0.00    -0.025 A 
ATOM     13  C   UNL     1      -6.886   0.278   2.259  0.00  0.00    +0.008 A 
ATOM     14  C   UNL     1      -8.202  -0.049   2.006  0.00  0.00    +0.001 A 
ATOM     15  C   UNL     1      -8.528  -0.806   0.894  0.00  0.00    +0.000 A 
ATOM     16  C   UNL     1      -7.540  -1.239   0.028  0.00  0.00    +0.001 A 
ATOM     17  C   UNL     1      -6.220  -0.914   0.265  0.00  0.00    +0.008 A 
ENDBRANCH   4  12
BRANCH   8  18
ATOM     18  C   UNL     1      -3.321  -4.775  -0.716  0.00  0.00    -0.023 A 
ATOM     19  C   UNL     1      -4.245  -4.101  -1.494  0.00  0.00    +0.005 A 
ATOM     20  C   UNL     1      -4.330  -4.362  -2.848  0.00  0.00    +0.000 A 
ATOM     21  C   UNL     1      -3.490  -5.296  -3.426  0.00  0.00    +0.001 A 
ATOM     22  C   UNL     1      -2.566  -5.969  -2.649  0.00  0.00    +0.012 A 
ATOM     23  C   UNL     1      -2.478  -5.705  -1.295  0.00  0.00    +0.059 A 
BRANCH  23  24
ATOM     24  C   UNL     1      -1.467  -6.434  -0.448  0.00  0.00    +0.418 C 
ATOM     25  F   UNL     1      -0.736  -7.316  -1.252  0.00  0.00    -0.166 F 
ATOM     26  F   UNL     1      -0.597  -5.510   0.140  0.00  0.00    -0.166 F 
ATOM     27  F   UNL     1      -2.129  -7.154   0.552  0.00  0.00    -0.166 F 
ENDBRANCH  23  24
ENDBRANCH   8  18
BRANCH  10  28
ATOM     28  N   UNL     1      -6.612  -4.183   2.338  0.00  0.00    -0.328 N 
ATOM     29  H   UNL     1      -6.786  -5.103   2.593  0.00  0.00    +0.145 HD
ATOM     30  H   UNL     1      -7.280  -3.499   2.503  0.00  0.00    +0.145 HD
ENDBRANCH  10  28
BRANCH   1  32
ATOM     31  C   UNL     1       0.053   0.689  -0.243  0.00  0.00    +0.020 C 
ATOM     32  C   UNL     1       0.012  -0.739   0.305  0.00  0.00    +0.082 C 
ENDBRANCH   1  32
BRANCH   9  33
ATOM     33  C   UNL     1      -4.867  -6.196   1.679  0.00  0.00    +0.101 C 
ATOM     34  N   UNL     1      -5.127  -7.281   1.893  0.00  0.00    -0.191 NA
ENDBRANCH   9  33
TORSDOF 6
