REMARK  Name = ZINC00692147
REMARK  4 active torsions:
REMARK  status: ('A' for Active; 'I' for Inactive)
REMARK    1  A    between atoms: C_1  and  C_2
REMARK    2  A    between atoms: C_5  and  C_9
REMARK    3  A    between atoms: C_6  and  C_8
REMARK    4  A    between atoms: N_17  and  C_18
REMARK                            x       y       z     vdW  Elec       q    Type
REMARK                         _______ _______ _______ _____ _____    ______ ____
ROOT
ATOM      1  C   UNL     1      -2.866   1.542  -0.061  0.00  0.00    +0.166 C 
ATOM      2  N   UNL     1      -4.221   2.114   0.051  0.00  0.00    -0.269 N 
ATOM      3  C   UNL     1      -5.321   1.148   0.088  0.00  0.00    +0.121 C 
ATOM      4  C   UNL     1      -4.974  -0.119  -0.748  0.00  0.00    +0.090 C 
ATOM      5  S   UNL     1      -3.185  -0.257  -0.299  0.00  0.00    -0.132 S 
ATOM      6  C   UNL     1      -4.432   3.444   0.116  0.00  0.00    +0.308 C 
ATOM      7  O   UNL     1      -3.489   4.211   0.083  0.00  0.00    -0.252 OA
ATOM      8  N   UNL     1      -5.687   3.924   0.218  0.00  0.00    -0.268 N 
ATOM      9  H   UNL     1      -6.443   3.317   0.179  0.00  0.00    +0.156 HD
ENDROOT
BRANCH   1  14
ATOM     10  C   UNL     1       0.146   2.471   4.782  0.00  0.00    +0.044 C 
ATOM     11  C   UNL     1      -0.640   2.225   3.520  0.00  0.00    -0.050 A 
ATOM     12  C   UNL     1      -2.006   2.438   3.504  0.00  0.00    +0.004 A 
ATOM     13  C   UNL     1      -2.727   2.213   2.346  0.00  0.00    +0.007 A 
ATOM     14  C   UNL     1      -2.081   1.781   1.203  0.00  0.00    -0.014 A 
ATOM     15  C   UNL     1      -0.716   1.563   1.220  0.00  0.00    -0.044 A 
ATOM     16  C   UNL     1       0.005   1.788   2.378  0.00  0.00    +0.007 A 
ATOM     17  C   UNL     1      -0.013   1.087  -0.025  0.00  0.00    +0.044 C 
ENDBRANCH   1  14
BRANCH   8  18
ATOM     18  C   UNL     1      -5.900   5.298   0.380  0.00  0.00    +0.053 A 
ATOM     19  C   UNL     1      -5.057   6.211  -0.240  0.00  0.00    +0.026 A 
ATOM     20  C   UNL     1      -5.273   7.566  -0.083  0.00  0.00    +0.022 A 
ATOM     21  C   UNL     1      -6.322   8.015   0.699  0.00  0.00    +0.042 A 
ATOM     22  C   UNL     1      -7.161   7.109   1.322  0.00  0.00    +0.041 A 
ATOM     23  C   UNL     1      -6.953   5.752   1.165  0.00  0.00    +0.064 A 
ATOM     24 CL   UNL     1      -8.006   4.614   1.948  0.00  0.00    -0.082 Cl
ATOM     25 CL   UNL     1      -6.585   9.720   0.899  0.00  0.00    -0.083 Cl
ENDBRANCH   8  18
TORSDOF 2
