REMARK  Name = ZINC33697995
REMARK  10 active torsions:
REMARK  status: ('A' for Active; 'I' for Inactive)
REMARK    1  A    between atoms: C_1  and  O_2
REMARK    2  A    between atoms: O_2  and  C_3
REMARK    3  A    between atoms: C_6  and  C_11
REMARK    4  A    between atoms: C_7  and  O_9
REMARK    5  A    between atoms: O_9  and  C_10
REMARK    6  A    between atoms: C_16  and  O_34
REMARK    7  A    between atoms: C_23  and  C_25
REMARK    8  A    between atoms: C_28  and  O_33
REMARK    9  A    between atoms: C_29  and  O_31
REMARK   10  A    between atoms: O_31  and  C_32
REMARK                            x       y       z     vdW  Elec       q    Type
REMARK                         _______ _______ _______ _____ _____    ______ ____
ROOT
ATOM      1  C   UNL     1      -2.795   1.850   1.966  0.00  0.00    +0.251 C 
ATOM      2  O   UNL     1      -2.728   3.052   2.142  0.00  0.00    -0.270 OA
ATOM      3  N   UNL     1      -2.048   1.267   1.008  0.00  0.00    -0.290 N 
ATOM      4  C   UNL     1      -2.205  -0.163   0.695  0.00  0.00    +0.111 C 
ATOM      5  C   UNL     1      -2.466  -0.315  -0.806  0.00  0.00    +0.054 C 
ATOM      6  C   UNL     1      -1.346   0.375  -1.589  0.00  0.00    +0.072 C 
ATOM      7  C   UNL     1      -1.601   0.204  -3.089  0.00  0.00    +0.035 C 
ATOM      8  C   UNL     1      -2.955   0.819  -3.447  0.00  0.00    +0.003 C 
ATOM      9  C   UNL     1      -2.949   2.309  -3.098  0.00  0.00    +0.001 C 
ATOM     10  C   UNL     1      -2.686   2.483  -1.601  0.00  0.00    +0.008 C 
ATOM     11  C   UNL     1      -1.331   1.867  -1.248  0.00  0.00    +0.046 C 
ATOM     12  C   UNL     1      -1.061   2.046   0.249  0.00  0.00    +0.112 C 
ENDROOT
BRANCH   1  16
ATOM     13  C   UNL     1      -5.381  -0.509   4.373  0.00  0.00    +0.124 A 
ATOM     14  C   UNL     1      -4.060  -0.901   4.177  0.00  0.00    +0.046 A 
ATOM     15  C   UNL     1      -3.221  -0.143   3.394  0.00  0.00    +0.020 A 
ATOM     16  C   UNL     1      -3.692   1.033   2.801  0.00  0.00    +0.079 A 
ATOM     17  C   UNL     1      -5.023   1.427   3.000  0.00  0.00    +0.136 A 
ATOM     18  C   UNL     1      -5.859   0.653   3.786  0.00  0.00    +0.092 A 
BRANCH  13  20
ATOM     19  C   UNL     1      -5.647  -2.449   5.719  0.00  0.00    +0.277 C 
ATOM     20  O   UNL     1      -6.204  -1.265   5.143  0.00  0.00    -0.495 OA
ENDBRANCH  13  20
BRANCH  17  21
ATOM     21  O   UNL     1      -5.490   2.564   2.424  0.00  0.00    -0.494 OA
ATOM     22  C   UNL     1      -6.856   2.902   2.671  0.00  0.00    +0.277 C 
ENDBRANCH  17  21
ENDBRANCH   1  16
BRANCH  12  23
ATOM     23  C   UNL     1       0.327   1.556   0.574  0.00  0.00    -0.023 A 
ATOM     24  C   UNL     1       1.394   1.931  -0.221  0.00  0.00    +0.009 A 
ATOM     25  C   UNL     1       2.670   1.489   0.076  0.00  0.00    +0.049 A 
ATOM     26  C   UNL     1       2.881   0.669   1.173  0.00  0.00    +0.158 A 
ATOM     27  C   UNL     1       1.806   0.292   1.973  0.00  0.00    +0.162 A 
ATOM     28  C   UNL     1       0.530   0.739   1.669  0.00  0.00    +0.055 A 
BRANCH  27  29
ATOM     29  O   UNL     1       2.009  -0.512   3.051  0.00  0.00    -0.491 OA
ATOM     30  C   UNL     1       0.860  -0.859   3.826  0.00  0.00    +0.277 C 
ENDBRANCH  27  29
BRANCH  26  31
ATOM     31  O   UNL     1       4.135   0.234   1.467  0.00  0.00    -0.503 OA
ATOM     32  H   UNL     1       4.301  -0.417   2.338  0.00  0.00    +0.292 HD
ENDBRANCH  26  31
ENDBRANCH  12  23
BRANCH   6  33
ATOM     33  O   UNL     1      -0.089  -0.209  -1.240  0.00  0.00    -0.388 OA
ATOM     34  H   UNL     1       0.836   0.161  -1.706  0.00  0.00    +0.210 HD
ENDBRANCH   6  33
TORSDOF 7
