REMARK  Name = ZINC25326148
REMARK  9 active torsions:
REMARK  status: ('A' for Active; 'I' for Inactive)
REMARK    1  A    between atoms: C_1  and  C_2
REMARK    2  A    between atoms: C_2  and  C_26
REMARK    3  A    between atoms: N_3  and  O_4
REMARK    4  A    between atoms: O_4  and  C_5
REMARK    5  A    between atoms: C_5  and  C_6
REMARK    6  A    between atoms: C_18  and  C_24
REMARK    7  A    between atoms: C_18  and  C_25
REMARK    8  A    between atoms: C_20  and  C_22
REMARK    9  A    between atoms: C_20  and  C_23
REMARK                            x       y       z     vdW  Elec       q    Type
REMARK                         _______ _______ _______ _____ _____    ______ ____
ROOT
ATOM      1  C   UNL     1       1.566   7.002   2.391  0.00  0.00    +0.192 A 
ATOM      2  N   UNL     1       0.860   5.904   2.139  0.00  0.00    -0.207 NA
ATOM      3  C   UNL     1      -0.114   5.795   3.022  0.00  0.00    +0.168 A 
ATOM      4  C   UNL     1      -1.185   4.803   3.233  0.00  0.00    +0.055 A 
ATOM      5  C   UNL     1      -1.484   3.594   2.481  0.00  0.00    -0.021 A 
ATOM      6  C   UNL     1      -2.539   2.851   2.888  0.00  0.00    +0.015 A 
ATOM      7  S   UNL     1      -3.184   3.717   4.292  0.00  0.00    -0.071 S 
ATOM      8  C   UNL     1      -2.036   5.071   4.320  0.00  0.00    +0.114 A 
ATOM      9  N   UNL     1      -1.877   6.140   5.091  0.00  0.00    -0.228 NA
ATOM     10  C   UNL     1      -0.923   7.006   4.889  0.00  0.00    +0.226 A 
ATOM     11  N   UNL     1      -0.033   6.861   3.871  0.00  0.00    -0.201 N 
ATOM     12  N   UNL     1       1.063   7.618   3.433  0.00  0.00    -0.145 NA
ATOM     13  C   UNL     1      -3.028   1.584   2.265  0.00  0.00    +0.046 C 
ATOM     14  N   UNL     1      -2.096   1.078   1.264  0.00  0.00    -0.301 NA
ATOM     15  C   UNL     1      -0.734   1.582   1.275  0.00  0.00    +0.018 C 
ATOM     16  C   UNL     1      -0.686   3.114   1.273  0.00  0.00    +0.058 C 
ATOM     17  C   UNL     1      -0.013   1.086   0.008  0.00  0.00    +0.028 C 
ATOM     18  C   UNL     1       0.035   1.056   2.491  0.00  0.00    +0.028 C 
ATOM     19  C   UNL     1      -3.253   0.533   3.361  0.00  0.00    +0.033 C 
ATOM     20  C   UNL     1      -4.384   1.865   1.591  0.00  0.00    +0.033 C 
ATOM     21  H   UNL     1      -1.996  -0.012   1.374  0.00  0.00    +0.123 HD
ENDROOT
BRANCH   1  22
ATOM     22  C   UNL     1       2.760   7.468   1.598  0.00  0.00    +0.340 C 
BRANCH  22  23
ATOM     23  O   UNL     1       2.325   8.322   0.539  0.00  0.00    -0.386 OA
BRANCH  23  26
ATOM     24  C   UNL     1       1.687   9.992  -1.564  0.00  0.00    +0.070 C 
ATOM     25  C   UNL     1       3.112   9.604  -1.268  0.00  0.00    +0.091 C 
ATOM     26  N   UNL     1       3.377   8.817  -0.271  0.00  0.00    -0.088 NA
BRANCH  25  27
ATOM     27  C   UNL     1       4.202  10.116  -2.106  0.00  0.00    +0.036 A 
ATOM     28  C   UNL     1       5.562   9.885  -2.006  0.00  0.00    +0.017 A 
ATOM     29  C   UNL     1       6.396  10.483  -2.921  0.00  0.00    +0.008 A 
ATOM     30  C   UNL     1       5.863  11.278  -3.887  0.00  0.00    +0.046 A 
ATOM     31  S   UNL     1       4.117  11.195  -3.526  0.00  0.00    -0.095 S 
ENDBRANCH  25  27
ENDBRANCH  23  26
ENDBRANCH  22  23
ENDBRANCH   1  22
TORSDOF 4
