REMARK  Name = ZINC62239789
REMARK  9 active torsions:
REMARK  status: ('A' for Active; 'I' for Inactive)
REMARK    1  A    between atoms: C_1  and  C_2
REMARK    2  A    between atoms: C_2  and  C_3
REMARK    3  A    between atoms: C_2  and  N_11
REMARK    4  A    between atoms: N_11  and  C_12
REMARK    5  A    between atoms: C_12  and  C_13
REMARK    6  A    between atoms: C_12  and  C_14
REMARK    7  A    between atoms: N_16  and  C_17
REMARK    8  A    between atoms: C_20  and  S_23
REMARK    9  A    between atoms: S_23  and  N_26
REMARK                            x       y       z     vdW  Elec       q    Type
REMARK                         _______ _______ _______ _____ _____    ______ ____
ROOT
ATOM      1  C   UNL     1       0.131  -1.325  -3.436  0.00  0.00    +0.234 C 
ATOM      2  O   UNL     1       1.112  -2.017  -3.260  0.00  0.00    -0.274 OA
ATOM      3  N   UNL     1      -0.588  -1.452  -4.569  0.00  0.00    -0.284 N 
ATOM      4  H   UNL     1      -1.325  -0.846  -4.746  0.00  0.00    +0.155 HD
ENDROOT
BRANCH   3   5
ATOM      5  C   UNL     1      -0.271  -2.457  -5.490  0.00  0.00    +0.034 A 
ATOM      6  C   UNL     1      -0.418  -2.224  -6.851  0.00  0.00    +0.025 A 
ATOM      7  C   UNL     1      -0.105  -3.218  -7.757  0.00  0.00    +0.030 A 
ATOM      8  C   UNL     1       0.354  -4.444  -7.311  0.00  0.00    +0.105 A 
ATOM      9  C   UNL     1       0.501  -4.678  -5.956  0.00  0.00    +0.030 A 
ATOM     10  C   UNL     1       0.195  -3.687  -5.045  0.00  0.00    +0.025 A 
BRANCH   8  11
ATOM     11  S   UNL     1       0.753  -5.709  -8.470  0.00  0.00    +0.056 S 
ATOM     12  O   UNL     1       0.641  -6.945  -7.777  0.00  0.00    -0.153 OA
ATOM     13  O   UNL     1       0.011  -5.428  -9.649  0.00  0.00    -0.153 OA
BRANCH  11  14
ATOM     14  N   UNL     1       2.352  -5.529  -8.862  0.00  0.00    -0.204 NA
ATOM     15  H   UNL     1       2.872  -4.816  -8.459  0.00  0.00    +0.144 HD
ATOM     16  H   UNL     1       2.768  -6.136  -9.494  0.00  0.00    +0.144 HD
ENDBRANCH  11  14
ENDBRANCH   8  11
ENDBRANCH   3   5
BRANCH   1  17
ATOM     17  C   UNL     1      -0.284  -0.325  -2.388  0.00  0.00    +0.138 C 
ATOM     18  C   UNL     1      -0.272   1.081  -2.992  0.00  0.00    +0.034 C 
BRANCH  17  19
ATOM     19  N   UNL     1       0.655  -0.381  -1.259  0.00  0.00    -0.299 NA
ATOM     20  H   UNL     1       1.456   0.209  -1.425  0.00  0.00    +0.123 HD
BRANCH  19  22
ATOM     21  C   UNL     1       1.001   0.624   0.948  0.00  0.00    +0.029 C 
ATOM     22  C   UNL     1      -0.013  -0.019  -0.001  0.00  0.00    +0.081 C 
BRANCH  22  23
ATOM     23  C   UNL     1      -0.584  -1.259   0.638  0.00  0.00    -0.029 A 
ATOM     24  C   UNL     1       0.136  -2.439   0.622  0.00  0.00    +0.008 A 
ATOM     25  C   UNL     1      -0.386  -3.576   1.209  0.00  0.00    +0.040 A 
ATOM     26  C   UNL     1      -1.631  -3.534   1.813  0.00  0.00    +0.142 A 
ATOM     27  C   UNL     1      -2.352  -2.351   1.829  0.00  0.00    +0.076 A 
ATOM     28  C   UNL     1      -1.825  -1.213   1.246  0.00  0.00    +0.028 A 
ATOM     29 CL   UNL     1      -3.913  -2.296   2.586  0.00  0.00    -0.081 Cl
ATOM     30  F   UNL     1      -2.142  -4.646   2.386  0.00  0.00    -0.204 F 
ENDBRANCH  22  23
ENDBRANCH  19  22
ENDBRANCH  17  19
ENDBRANCH   1  17
TORSDOF 7
