REMARK  Name = ZINC06795650
REMARK  10 active torsions:
REMARK  status: ('A' for Active; 'I' for Inactive)
REMARK    1  A    between atoms: C_1  and  C_2
REMARK    2  A    between atoms: C_5  and  C_8
REMARK    3  A    between atoms: C_8  and  N_9
REMARK    4  A    between atoms: C_12  and  C_31
REMARK    5  A    between atoms: C_16  and  C_21
REMARK    6  A    between atoms: C_17  and  C_18
REMARK    7  A    between atoms: C_21  and  N_22
REMARK    8  A    between atoms: N_22  and  C_23
REMARK    9  A    between atoms: C_23  and  C_24
REMARK   10  A    between atoms: C_24  and  C_25
REMARK                            x       y       z     vdW  Elec       q    Type
REMARK                         _______ _______ _______ _____ _____    ______ ____
ROOT
ATOM      1  N   UNL     1       1.447  -4.746  -0.032  0.00  0.00    -0.330 N 
ATOM      2  C   UNL     1       2.200  -4.991  -1.154  0.00  0.00    +0.050 A 
ATOM      3  C   UNL     1       1.938  -4.891  -2.518  0.00  0.00    +0.029 A 
ATOM      4  C   UNL     1       2.917  -5.215  -3.430  0.00  0.00    -0.048 A 
ATOM      5  C   UNL     1       4.168  -5.643  -3.003  0.00  0.00    +0.004 A 
ATOM      6  C   UNL     1       4.450  -5.750  -1.673  0.00  0.00    +0.010 A 
ATOM      7  C   UNL     1       3.470  -5.425  -0.724  0.00  0.00    +0.002 A 
ATOM      8  C   UNL     1       3.448  -5.430   0.690  0.00  0.00    -0.025 A 
ATOM      9  C   UNL     1       2.216  -5.010   1.087  0.00  0.00    +0.134 A 
ATOM     10  C   UNL     1       2.629  -5.105  -4.905  0.00  0.00    +0.044 C 
ENDROOT
BRANCH   9  11
ATOM     11  C   UNL     1       1.774  -4.864   2.477  0.00  0.00    +0.403 C 
ATOM     12  O   UNL     1       0.637  -4.480   2.721  0.00  0.00    -0.239 OA
ATOM     13  O   UNL     1       2.541  -5.127   3.394  0.00  0.00    -0.239 OA
ENDBRANCH   9  11
BRANCH   1  14
ATOM     14  C   UNL     1       0.059  -4.275  -0.021  0.00  0.00    +0.157 C 
BRANCH  14  19
ATOM     15  C   UNL     1      -0.018   1.503   0.010  0.00  0.00    +0.044 C 
ATOM     16  C   UNL     1       0.002  -0.004   0.002  0.00  0.00    -0.050 A 
ATOM     17  C   UNL     1       0.006  -0.689  -1.199  0.00  0.00    +0.004 A 
ATOM     18  C   UNL     1       0.025  -2.071  -1.206  0.00  0.00    +0.005 A 
ATOM     19  C   UNL     1       0.040  -2.768  -0.013  0.00  0.00    -0.028 A 
ATOM     20  C   UNL     1       0.037  -2.084   1.188  0.00  0.00    +0.005 A 
ATOM     21  C   UNL     1       0.023  -0.702   1.195  0.00  0.00    +0.004 A 
ENDBRANCH  14  19
ENDBRANCH   1  14
BRANCH   8  22
ATOM     22  C   UNL     1       4.587  -5.824   1.595  0.00  0.00    -0.044 C 
BRANCH  22  23
ATOM     23  N   UNL     1       5.402  -4.640   1.901  0.00  0.00    +0.382 N 
ATOM     24  H   UNL     1       5.770  -4.255   1.044  0.00  0.00    -0.085 HD
ATOM     25  H   UNL     1       4.830  -3.948   2.361  0.00  0.00    -0.085 HD
BRANCH  23  26
ATOM     26  C   UNL     1       6.512  -5.023   2.783  0.00  0.00    -0.078 C 
BRANCH  26  27
ATOM     27  C   UNL     1       7.360  -3.790   3.101  0.00  0.00    +0.011 C 
BRANCH  27  28
ATOM     28  C   UNL     1       8.499  -4.184   4.006  0.00  0.00    -0.075 C 
ATOM     29  C   UNL     1       9.641  -4.455   3.461  0.00  0.00    -0.028 C 
ATOM     30  C   UNL     1      10.861  -4.871   4.229  0.00  0.00    +0.027 C 
ATOM     31  C   UNL     1      10.697  -4.521   5.709  0.00  0.00    +0.004 C 
ATOM     32  C   UNL     1       9.335  -5.042   6.183  0.00  0.00    +0.005 C 
ATOM     33  C   UNL     1       8.240  -4.231   5.483  0.00  0.00    +0.030 C 
ENDBRANCH  27  28
ENDBRANCH  26  27
ENDBRANCH  23  26
ENDBRANCH  22  23
ENDBRANCH   8  22
TORSDOF 8
