REMARK  Name = ZINC01054850
REMARK  8 active torsions:
REMARK  status: ('A' for Active; 'I' for Inactive)
REMARK    1  A    between atoms: C_2  and  C_3
REMARK    2  A    between atoms: C_3  and  C_4
REMARK    3  A    between atoms: C_8  and  C_11
REMARK    4  A    between atoms: C_9  and  O_10
REMARK    5  A    between atoms: N_12  and  N_13
REMARK    6  A    between atoms: C_14  and  C_16
REMARK    7  A    between atoms: C_16  and  N_17
REMARK    8  A    between atoms: N_17  and  C_18
REMARK                            x       y       z     vdW  Elec       q    Type
REMARK                         _______ _______ _______ _____ _____    ______ ____
ROOT
ATOM      1  N   UNL     1      -0.833  -6.851   0.746  0.00  0.00    -0.206 N 
ATOM      2  C   UNL     1      -1.418  -7.229  -0.408  0.00  0.00    +0.249 C 
ATOM      3  O   UNL     1      -1.464  -6.460  -1.345  0.00  0.00    -0.272 OA
ATOM      4  H   UNL     1      -0.796  -7.466   1.496  0.00  0.00    +0.177 HD
ENDROOT
BRANCH   1   6
ATOM      5  C   UNL     1       0.285  -5.206   1.975  0.00  0.00    +0.142 C 
ATOM      6  N   UNL     1      -0.279  -5.570   0.863  0.00  0.00    -0.188 NA
BRANCH   5  11
ATOM      7  C   UNL     1       1.369  -1.702   1.144  0.00  0.00    -0.002 A 
ATOM      8  C   UNL     1       1.967  -1.322   2.331  0.00  0.00    +0.007 A 
ATOM      9  C   UNL     1       2.019  -2.200   3.400  0.00  0.00    +0.001 A 
ATOM     10  C   UNL     1       1.475  -3.462   3.292  0.00  0.00    +0.013 A 
ATOM     11  C   UNL     1       0.868  -3.858   2.098  0.00  0.00    +0.036 A 
ATOM     12  C   UNL     1       0.812  -2.965   1.019  0.00  0.00    +0.129 A 
BRANCH  12  13
ATOM     13  O   UNL     1       0.220  -3.337  -0.145  0.00  0.00    -0.506 OA
ATOM     14  H   UNL     1       0.821  -3.756  -0.776  0.00  0.00    +0.292 HD
ENDBRANCH  12  13
BRANCH   7  15
ATOM     15  C   UNL     1       1.317  -0.740  -0.015  0.00  0.00    +0.065 C 
BRANCH  15  17
ATOM     16  C   UNL     1      -0.016   1.306   0.009  0.00  0.00    +0.004 C 
ATOM     17  C   UNL     1       0.002  -0.004   0.002  0.00  0.00    -0.030 C 
ENDBRANCH  15  17
ENDBRANCH   7  15
ENDBRANCH   5  11
ENDBRANCH   1   6
BRANCH   2  18
ATOM     18  C   UNL     1      -2.015  -8.607  -0.534  0.00  0.00    +0.199 C 
BRANCH  18  19
ATOM     19  N   UNL     1      -2.585  -8.772  -1.873  0.00  0.00    -0.335 N 
ATOM     20  H   UNL     1      -2.536  -8.045  -2.514  0.00  0.00    +0.147 HD
BRANCH  19  21
ATOM     21  C   UNL     1      -3.196  -9.973  -2.227  0.00  0.00    +0.035 A 
ATOM     22  C   UNL     1      -3.274 -11.008  -1.320  0.00  0.00    +0.023 A 
ATOM     23  C   UNL     1      -3.884 -12.211  -1.663  0.00  0.00    +0.002 A 
ATOM     24  C   UNL     1      -4.418 -12.400  -2.901  0.00  0.00    +0.008 A 
ATOM     25  C   UNL     1      -4.360 -11.370  -3.856  0.00  0.00    -0.016 A 
ATOM     26  C   UNL     1      -3.748 -10.138  -3.516  0.00  0.00    +0.003 A 
ATOM     27  C   UNL     1      -3.695  -9.109  -4.469  0.00  0.00    +0.010 A 
ATOM     28  C   UNL     1      -4.236  -9.304  -5.703  0.00  0.00    +0.001 A 
ATOM     29  C   UNL     1      -4.845 -10.513  -6.036  0.00  0.00    +0.001 A 
ATOM     30  C   UNL     1      -4.904 -11.537  -5.141  0.00  0.00    +0.008 A 
ENDBRANCH  19  21
ENDBRANCH  18  19
ENDBRANCH   2  18
TORSDOF 8
