REMARK  Name = ZINC12659899
REMARK  12 active torsions:
REMARK  status: ('A' for Active; 'I' for Inactive)
REMARK    1  A    between atoms: C_1  and  C_2
REMARK    2  A    between atoms: C_6  and  C_8
REMARK    3  A    between atoms: C_8  and  C_10
REMARK    4  A    between atoms: C_8  and  C_11
REMARK    5  A    between atoms: C_13  and  O_40
REMARK    6  A    between atoms: C_18  and  C_39
REMARK    7  A    between atoms: C_28  and  C_38
REMARK    8  A    between atoms: C_31  and  O_34
REMARK    9  A    between atoms: O_34  and  C_35
REMARK   10  A    between atoms: C_35  and  C_37
REMARK   11  A    between atoms: O_40  and  C_41
REMARK   12  A    between atoms: C_41  and  C_43
REMARK                            x       y       z     vdW  Elec       q    Type
REMARK                         _______ _______ _______ _____ _____    ______ ____
ROOT
ATOM      1  C   UNL     1       0.781  -1.370  -2.507  0.00  0.00    +0.044 C 
ATOM      2  C   UNL     1       2.212  -0.904  -2.175  0.00  0.00    +0.181 C 
ATOM      3  C   UNL     1       2.290   0.568  -2.622  0.00  0.00    +0.049 C 
ATOM      4  C   UNL     1       0.841   1.105  -2.476  0.00  0.00    +0.003 C 
ATOM      5  C   UNL     1      -0.048  -0.111  -2.750  0.00  0.00    -0.022 C 
ATOM      6  C   UNL     1      -1.400  -0.085  -2.088  0.00  0.00    +0.007 C 
ATOM      7  C   UNL     1      -1.397   0.464  -0.666  0.00  0.00    +0.005 C 
ATOM      8  C   UNL     1      -0.769   1.860  -0.697  0.00  0.00    +0.003 C 
ATOM      9  C   UNL     1       0.697   1.711  -1.088  0.00  0.00    +0.000 C 
ATOM     10  C   UNL     1       1.429   0.889  -0.031  0.00  0.00    +0.031 C 
ATOM     11  C   UNL     1       1.202   1.502   1.323  0.00  0.00    -0.027 C 
ATOM     12  C   UNL     1       0.164   2.228   1.613  0.00  0.00    -0.064 C 
ATOM     13  C   UNL     1      -0.926   2.563   0.639  0.00  0.00    -0.008 C 
ATOM     14  C   UNL     1      -2.286   2.239   1.259  0.00  0.00    +0.015 C 
ATOM     15  C   UNL     1      -2.421   2.882   2.639  0.00  0.00    +0.046 C 
ATOM     16  C   UNL     1      -1.333   2.354   3.574  0.00  0.00    +0.180 C 
ATOM     17  C   UNL     1       0.043   2.758   3.033  0.00  0.00    +0.075 C 
ATOM     18  C   UNL     1      -0.875   4.073   0.366  0.00  0.00    +0.016 C 
ATOM     19  C   UNL     1      -0.338  -0.087  -4.279  0.00  0.00    +0.012 C 
ENDROOT
BRANCH   1  20
ATOM     20  C   UNL     1       0.233  -2.258  -1.397  0.00  0.00    +0.035 C 
ATOM     21  C   UNL     1      -0.932  -3.089  -1.937  0.00  0.00    +0.014 C 
BRANCH  20  26
ATOM     22  C   UNL     1       4.431  -5.816   0.285  0.00  0.00    +0.009 C 
ATOM     23  C   UNL     1       3.181  -5.140  -0.283  0.00  0.00    +0.005 C 
ATOM     24  C   UNL     1       2.317  -4.603   0.866  0.00  0.00    +0.011 C 
ATOM     25  C   UNL     1       1.016  -4.059   0.269  0.00  0.00    +0.049 C 
ATOM     26  C   UNL     1       1.322  -3.178  -0.907  0.00  0.00    -0.008 C 
ATOM     27  C   UNL     1       3.589  -3.964  -1.171  0.00  0.00    +0.115 C 
ATOM     28  N   UNL     1       2.431  -3.093  -1.598  0.00  0.00    -0.390 N 
ATOM     29  H   UNL     1       2.510  -2.458  -2.401  0.00  0.00    +0.159 HD
ENDBRANCH  20  26
ENDBRANCH   1  20
BRANCH  16  30
ATOM     30  O   UNL     1      -1.517   2.915   4.900  0.00  0.00    -0.461 OA
BRANCH  30  31
ATOM     31  C   UNL     1      -1.116   2.167   5.939  0.00  0.00    +0.304 C 
ATOM     32  O   UNL     1      -0.627   1.079   5.747  0.00  0.00    -0.251 OA
ATOM     33  C   UNL     1      -1.275   2.683   7.346  0.00  0.00    +0.136 C 
ENDBRANCH  30  31
ENDBRANCH  16  30
BRANCH   2  34
ATOM     34  O   UNL     1       3.175  -1.701  -2.916  0.00  0.00    -0.461 OA
BRANCH  34  35
ATOM     35  C   UNL     1       4.377  -1.889  -2.348  0.00  0.00    +0.304 C 
ATOM     36  O   UNL     1       4.616  -1.405  -1.267  0.00  0.00    -0.251 OA
ATOM     37  C   UNL     1       5.427  -2.705  -3.057  0.00  0.00    +0.136 C 
ENDBRANCH  34  35
ENDBRANCH   2  34
TORSDOF 6
