REMARK  Name = ZINC10059226
REMARK  12 active torsions:
REMARK  status: ('A' for Active; 'I' for Inactive)
REMARK    1  A    between atoms: C_1  and  C_2
REMARK    2  A    between atoms: C_4  and  C_30
REMARK    3  A    between atoms: C_6  and  C_29
REMARK    4  A    between atoms: C_7  and  C_8
REMARK    5  A    between atoms: C_8  and  C_10
REMARK    6  A    between atoms: C_10  and  C_11
REMARK    7  A    between atoms: C_11  and  O_28
REMARK    8  A    between atoms: N_18  and  C_21
REMARK    9  A    between atoms: C_21  and  C_22
REMARK   10  A    between atoms: C_30  and  C_31
REMARK   11  A    between atoms: C_30  and  C_32
REMARK   12  A    between atoms: C_30  and  C_33
REMARK                            x       y       z     vdW  Elec       q    Type
REMARK                         _______ _______ _______ _____ _____    ______ ____
ROOT
ATOM      1  C   UNL     1       3.901   2.075   0.035  0.00  0.00    +0.175 C 
ATOM      2  C   UNL     1       4.102   1.831   1.513  0.00  0.00    +0.015 A 
ATOM      3  C   UNL     1       5.094   2.195   2.396  0.00  0.00    +0.009 A 
ATOM      4  C   UNL     1       5.000   1.832   3.728  0.00  0.00    +0.000 A 
ATOM      5  C   UNL     1       3.914   1.094   4.165  0.00  0.00    +0.002 A 
ATOM      6  C   UNL     1       2.921   0.724   3.281  0.00  0.00    +0.024 A 
ATOM      7  C   UNL     1       3.005   1.093   1.940  0.00  0.00    +0.043 A 
ATOM      8  N   UNL     1       2.145   0.846   0.870  0.00  0.00    -0.264 N 
ATOM      9  C   UNL     1       2.590   1.386  -0.277  0.00  0.00    +0.257 C 
ATOM     10  O   UNL     1       2.044   1.332  -1.358  0.00  0.00    -0.272 OA
ENDROOT
BRANCH   1  11
ATOM     11  O   UNL     1       3.808   3.475  -0.235  0.00  0.00    -0.374 OA
ATOM     12  H   UNL     1       3.620   3.685  -1.161  0.00  0.00    +0.211 HD
ENDBRANCH   1  11
BRANCH   1  13
ATOM     13  C   UNL     1       5.041   1.450  -0.771  0.00  0.00    +0.129 C 
BRANCH  13  14
ATOM     14  C   UNL     1       4.769   1.623  -2.243  0.00  0.00    +0.167 C 
ATOM     15  O   UNL     1       3.823   2.287  -2.611  0.00  0.00    -0.292 OA
BRANCH  14  22
ATOM     16  C   UNL     1       4.158  -1.040  -3.198  0.00  0.00    +0.044 C 
ATOM     17  C   UNL     1       5.369  -0.299  -3.705  0.00  0.00    -0.039 A 
ATOM     18  C   UNL     1       6.198  -0.886  -4.637  0.00  0.00    +0.008 A 
ATOM     19  C   UNL     1       7.313  -0.209  -5.100  0.00  0.00    -0.041 A 
ATOM     20  C   UNL     1       7.603   1.062  -4.635  0.00  0.00    +0.008 A 
ATOM     21  C   UNL     1       6.780   1.664  -3.707  0.00  0.00    -0.039 A 
ATOM     22  C   UNL     1       5.652   0.988  -3.235  0.00  0.00    +0.023 A 
ATOM     23  C   UNL     1       7.098   3.048  -3.202  0.00  0.00    +0.044 C 
BRANCH  19  24
ATOM     24  C   UNL     1       8.217  -0.861  -6.115  0.00  0.00    -0.013 C 
ATOM     25  C   UNL     1       9.627  -0.989  -5.534  0.00  0.00    +0.015 C 
ATOM     26  C   UNL     1       7.679  -2.251  -6.459  0.00  0.00    +0.015 C 
ATOM     27  C   UNL     1       8.263  -0.004  -7.381  0.00  0.00    +0.015 C 
ENDBRANCH  19  24
ENDBRANCH  14  22
ENDBRANCH  13  14
ENDBRANCH   1  13
BRANCH   8  28
ATOM     28  C   UNL     1       0.895   0.089   0.985  0.00  0.00    +0.148 C 
BRANCH  28  29
ATOM     29  C   UNL     1       1.168  -1.372   0.731  0.00  0.00    -0.030 A 
ATOM     30  C   UNL     1       1.080  -1.878  -0.552  0.00  0.00    +0.005 A 
ATOM     31  C   UNL     1       1.334  -3.217  -0.785  0.00  0.00    +0.000 A 
ATOM     32  C   UNL     1       1.667  -4.051   0.266  0.00  0.00    +0.000 A 
ATOM     33  C   UNL     1       1.750  -3.545   1.550  0.00  0.00    +0.000 A 
ATOM     34  C   UNL     1       1.500  -2.206   1.783  0.00  0.00    +0.005 A 
ENDBRANCH  28  29
ENDBRANCH   8  28
TORSDOF 7
