REMARK  Name = ZINC63514107
REMARK  6 active torsions:
REMARK  status: ('A' for Active; 'I' for Inactive)
REMARK    1  A    between atoms: C_1  and  C_2
REMARK    2  A    between atoms: C_4  and  C_12
REMARK    3  A    between atoms: C_12  and  C_13
REMARK    4  A    between atoms: C_13  and  N_14
REMARK    5  A    between atoms: C_15  and  C_17
REMARK    6  A    between atoms: C_22  and  N_23
REMARK                            x       y       z     vdW  Elec       q    Type
REMARK                         _______ _______ _______ _____ _____    ______ ____
ROOT
ATOM      1  C   UNL     1      -7.100  -1.155  -2.375  0.00  0.00    +0.068 A 
ATOM      2  C   UNL     1      -6.841  -0.375  -3.502  0.00  0.00    +0.016 A 
ATOM      3  C   UNL     1      -7.830  -0.162  -4.444  0.00  0.00    +0.013 A 
ATOM      4  C   UNL     1      -9.092  -0.725  -4.271  0.00  0.00    +0.035 A 
ATOM      5  C   UNL     1      -9.360  -1.512  -3.137  0.00  0.00    +0.064 A 
ATOM      6  C   UNL     1      -8.360  -1.729  -2.194  0.00  0.00    +0.150 A 
ATOM      7  C   UNL     1     -10.698  -2.110  -2.950  0.00  0.00    +0.197 C 
ATOM      8  O   UNL     1     -10.929  -2.790  -1.970  0.00  0.00    -0.287 OA
ATOM      9  C   UNL     1     -11.755  -1.881  -3.957  0.00  0.00    +0.033 A 
ATOM     10  C   UNL     1     -13.019  -2.441  -3.788  0.00  0.00    +0.012 A 
ATOM     11  C   UNL     1     -14.003  -2.220  -4.735  0.00  0.00    +0.001 A 
ATOM     12  C   UNL     1     -13.741  -1.447  -5.851  0.00  0.00    +0.001 A 
ATOM     13  C   UNL     1     -12.491  -0.883  -6.035  0.00  0.00    +0.012 A 
ATOM     14  C   UNL     1     -11.489  -1.094  -5.092  0.00  0.00    +0.033 A 
ATOM     15  C   UNL     1     -10.151  -0.495  -5.279  0.00  0.00    +0.195 C 
ATOM     16  O   UNL     1      -9.921   0.185  -6.259  0.00  0.00    -0.287 OA
ENDROOT
BRANCH   1  18
ATOM     17  N   UNL     1      -4.819  -0.827  -1.544  0.00  0.00    -0.311 N 
ATOM     18  C   UNL     1      -6.036  -1.380  -1.371  0.00  0.00    +0.246 C 
ATOM     19  O   UNL     1      -6.259  -2.063  -0.391  0.00  0.00    -0.270 OA
ATOM     20  H   UNL     1      -4.641  -0.281  -2.327  0.00  0.00    +0.149 HD
BRANCH  17  21
ATOM     21  C   UNL     1      -3.765  -1.049  -0.551  0.00  0.00    +0.109 C 
BRANCH  21  22
ATOM     22  C   UNL     1      -2.494  -0.316  -0.984  0.00  0.00    +0.052 C 
BRANCH  22  25
ATOM     23  C   UNL     1      -0.019   1.526   0.010  0.00  0.00    +0.035 C 
ATOM     24  C   UNL     1       0.002  -0.004   0.002  0.00  0.00    +0.103 C 
ATOM     25  C   UNL     1      -1.410  -0.545   0.038  0.00  0.00    -0.037 C 
ATOM     26  C   UNL     1      -1.503  -1.275   1.173  0.00  0.00    -0.001 A 
ATOM     27  C   UNL     1      -2.599  -2.045   1.772  0.00  0.00    +0.010 A 
ATOM     28  C   UNL     1      -2.386  -2.686   2.944  0.00  0.00    +0.001 A 
ATOM     29  C   UNL     1      -1.148  -2.632   3.599  0.00  0.00    +0.002 A 
ATOM     30  C   UNL     1      -0.094  -1.946   3.110  0.00  0.00    +0.026 A 
ATOM     31  C   UNL     1      -0.205  -1.235   1.884  0.00  0.00    +0.043 A 
ATOM     32  N   UNL     1       0.658  -0.508   1.214  0.00  0.00    -0.378 N 
ATOM     33  H   UNL     1       1.576  -0.332   1.476  0.00  0.00    +0.160 HD
ENDBRANCH  22  25
ENDBRANCH  21  22
ENDBRANCH  17  21
ENDBRANCH   1  18
BRANCH   6  34
ATOM     34  N   UNL     1      -8.633  -2.561  -1.001  0.00  0.00    +0.058 N 
ATOM     35  O   UNL     1      -9.057  -2.049   0.009  0.00  0.00    -0.126 OA
ATOM     36  O   UNL     1      -8.431  -3.752  -1.036  0.00  0.00    -0.126 OA
ENDBRANCH   6  34
TORSDOF 5
