REMARK  Name = ZINC12918140
REMARK  7 active torsions:
REMARK  status: ('A' for Active; 'I' for Inactive)
REMARK    1  A    between atoms: C_1  and  N_2
REMARK    2  A    between atoms: C_3  and  C_29
REMARK    3  A    between atoms: C_6  and  S_7
REMARK    4  A    between atoms: S_7  and  C_8
REMARK    5  A    between atoms: C_10  and  C_23
REMARK    6  A    between atoms: C_15  and  C_17
REMARK    7  A    between atoms: C_17  and  N_58
REMARK                            x       y       z     vdW  Elec       q    Type
REMARK                         _______ _______ _______ _____ _____    ______ ____
ROOT
ATOM      1  C   UNL     1       6.094   1.487   2.016  0.00  0.00    +0.117 A 
ATOM      2  C   UNL     1       7.004   0.573   1.420  0.00  0.00    +0.048 A 
ATOM      3  C   UNL     1       8.450   0.675   1.253  0.00  0.00    +0.001 A 
ATOM      4  C   UNL     1       9.108  -0.340   0.644  0.00  0.00    +0.056 A 
ATOM      5  S   UNL     1       7.814  -1.502   0.256  0.00  0.00    -0.076 S 
ATOM      6  C   UNL     1       6.429  -0.610   0.913  0.00  0.00    +0.113 A 
ATOM      7  N   UNL     1       5.133  -0.837   1.001  0.00  0.00    -0.227 NA
ATOM      8  C   UNL     1       4.336   0.052   1.562  0.00  0.00    +0.115 A 
ATOM      9  N   UNL     1       4.806   1.182   2.058  0.00  0.00    -0.227 NA
ENDROOT
BRANCH   3  10
ATOM     10  C   UNL     1       9.184   1.867   1.739  0.00  0.00    -0.017 A 
ATOM     11  C   UNL     1       9.938   2.635   0.853  0.00  0.00    +0.008 A 
ATOM     12  C   UNL     1      10.615   3.747   1.310  0.00  0.00    +0.001 A 
ATOM     13  C   UNL     1      10.556   4.093   2.648  0.00  0.00    +0.000 A 
ATOM     14  C   UNL     1       9.814   3.332   3.534  0.00  0.00    +0.001 A 
ATOM     15  C   UNL     1       9.128   2.222   3.087  0.00  0.00    +0.008 A 
ENDBRANCH   3  10
BRANCH   1  16
ATOM     16  S   UNL     1       6.672   3.008   2.691  0.00  0.00    -0.029 S 
BRANCH  16  22
ATOM     17  C   UNL     1       6.025   5.867   4.222  0.00  0.00    +0.153 C 
ATOM     18  N   UNL     1       4.984   4.891   3.890  0.00  0.00    -0.302 N 
ATOM     19  C   UNL     1       3.635   4.994   4.145  0.00  0.00    +0.200 A 
ATOM     20  N   UNL     1       3.071   3.899   3.681  0.00  0.00    -0.125 NA
ATOM     21  N   UNL     1       3.963   3.135   3.157  0.00  0.00    -0.122 NA
ATOM     22  C   UNL     1       5.150   3.688   3.262  0.00  0.00    +0.198 A 
BRANCH  19  23
ATOM     23  C   UNL     1       2.953   6.114   4.810  0.00  0.00    +0.172 A 
ATOM     24  C   UNL     1       1.611   6.353   4.803  0.00  0.00    +0.053 A 
ATOM     25  C   UNL     1       1.403   7.520   5.562  0.00  0.00    +0.042 A 
ATOM     26  C   UNL     1       2.613   7.939   5.984  0.00  0.00    +0.196 A 
ATOM     27  O   UNL     1       3.547   7.088   5.528  0.00  0.00    -0.460 OA
ENDBRANCH  19  23
ENDBRANCH  16  22
ENDBRANCH   1  16
BRANCH   8  28
ATOM     28  C   UNL     1       2.858  -0.230   1.644  0.00  0.00    -0.001 C 
BRANCH  28  34
ATOM     29  C   UNL     1       0.799  -0.166   0.372  0.00  0.00    -0.078 C 
ATOM     30  C   UNL     1       0.183   0.276  -0.957  0.00  0.00    -0.019 C 
ATOM     31  C   UNL     1       0.242   1.803  -1.059  0.00  0.00    -0.004 C 
ATOM     32  C   UNL     1       1.698   2.259  -0.933  0.00  0.00    -0.019 C 
ATOM     33  C   UNL     1       2.271   1.759   0.395  0.00  0.00    -0.078 C 
ATOM     34  N   UNL     1       2.207   0.282   0.420  0.00  0.00    +0.384 N 
ATOM     35  H   UNL     1       2.702  -0.086  -0.400  0.00  0.00    -0.081 HD
ENDBRANCH  28  34
ENDBRANCH   8  28
TORSDOF 6
