REMARK  Name = ZINC00628582
REMARK  10 active torsions:
REMARK  status: ('A' for Active; 'I' for Inactive)
REMARK    1  A    between atoms: C_1  and  C_2
REMARK    2  A    between atoms: C_2  and  O_3
REMARK    3  A    between atoms: O_3  and  C_4
REMARK    4  A    between atoms: C_6  and  C_20
REMARK    5  A    between atoms: C_11  and  C_15
REMARK    6  A    between atoms: C_11  and  C_16
REMARK    7  A    between atoms: C_18  and  C_19
REMARK    8  A    between atoms: C_23  and  O_27
REMARK    9  A    between atoms: C_24  and  O_26
REMARK   10  A    between atoms: O_27  and  C_28
REMARK                            x       y       z     vdW  Elec       q    Type
REMARK                         _______ _______ _______ _____ _____    ______ ____
ROOT
ATOM      1  C   UNL     1       0.804  -1.796  -1.320  0.00  0.00    +0.338 C 
ATOM      2  C   UNL     1       1.424  -2.309  -2.440  0.00  0.00    +0.069 C 
ATOM      3  C   UNL     1       1.628  -3.791  -2.553  0.00  0.00    +0.093 C 
ATOM      4  C   UNL     1       2.322  -4.147  -3.842  0.00  0.00    +0.028 C 
ATOM      5  C   UNL     1       2.682  -3.178  -4.749  0.00  0.00    +0.049 C 
ATOM      6  C   UNL     1       3.369  -3.554  -6.041  0.00  0.00    +0.062 C 
ATOM      7  C   UNL     1       4.210  -4.814  -5.828  0.00  0.00    -0.023 C 
ATOM      8  C   UNL     1       3.288  -5.938  -5.346  0.00  0.00    +0.086 C 
ATOM      9  C   UNL     1       2.592  -5.496  -4.088  0.00  0.00    +0.162 C 
ATOM     10  O   UNL     1       2.256  -6.330  -3.268  0.00  0.00    -0.292 OA
ATOM     11  C   UNL     1       5.284  -4.542  -4.772  0.00  0.00    +0.011 C 
ATOM     12  C   UNL     1       4.871  -5.220  -7.146  0.00  0.00    +0.011 C 
ATOM     13  N   UNL     1       2.440  -1.888  -4.525  0.00  0.00    -0.256 NA
ATOM     14  C   UNL     1       1.841  -1.448  -3.441  0.00  0.00    +0.049 C 
ATOM     15  C   UNL     1       1.608   0.032  -3.280  0.00  0.00    +0.066 C 
ATOM     16  O   UNL     1       0.284  -2.627  -0.397  0.00  0.00    -0.245 OA
ENDROOT
BRANCH   3  17
ATOM     17  C   UNL     1       0.288  -4.479  -2.508  0.00  0.00    -0.032 A 
ATOM     18  C   UNL     1      -0.665  -4.198  -3.470  0.00  0.00    +0.008 A 
ATOM     19  C   UNL     1      -1.895  -4.826  -3.433  0.00  0.00    +0.050 A 
ATOM     20  C   UNL     1      -2.176  -5.741  -2.431  0.00  0.00    +0.161 A 
ATOM     21  C   UNL     1      -1.218  -6.024  -1.463  0.00  0.00    +0.159 A 
ATOM     22  C   UNL     1       0.015  -5.394  -1.508  0.00  0.00    +0.053 A 
BRANCH  21  23
ATOM     23  O   UNL     1      -1.489  -6.921  -0.477  0.00  0.00    -0.503 OA
ATOM     24  H   UNL     1      -1.250  -7.832  -0.698  0.00  0.00    +0.292 HD
ENDBRANCH  21  23
BRANCH  20  25
ATOM     25  O   UNL     1      -3.387  -6.360  -2.393  0.00  0.00    -0.491 OA
ATOM     26  C   UNL     1      -4.322  -6.019  -3.419  0.00  0.00    +0.277 C 
ENDBRANCH  20  25
ENDBRANCH   3  17
BRANCH   1  27
ATOM     27  O   UNL     1       0.719  -0.462  -1.150  0.00  0.00    -0.462 OA
BRANCH  27  29
ATOM     28  C   UNL     1       0.064   1.530   0.051  0.00  0.00    +0.048 C 
ATOM     29  C   UNL     1       0.064   0.001   0.033  0.00  0.00    +0.229 C 
ENDBRANCH  27  29
ENDBRANCH   1  27
TORSDOF 5
