REMARK  Name = ZINC62270308
REMARK  6 active torsions:
REMARK  status: ('A' for Active; 'I' for Inactive)
REMARK    1  A    between atoms: C_1  and  C_2
REMARK    2  A    between atoms: C_2  and  C_30
REMARK    3  A    between atoms: C_12  and  C_14
REMARK    4  A    between atoms: C_14  and  C_15
REMARK    5  A    between atoms: C_15  and  C_16
REMARK    6  A    between atoms: C_16  and  C_17
REMARK                            x       y       z     vdW  Elec       q    Type
REMARK                         _______ _______ _______ _____ _____    ______ ____
ROOT
ATOM      1  C   UNL     1      -0.019   1.526   0.010  0.00  0.00    +0.017 C 
ATOM      2  C   UNL     1       0.002  -0.004   0.002  0.00  0.00    +0.006 C 
ATOM      3  C   UNL     1       0.682  -0.489  -1.278  0.00  0.00    +0.119 C 
ATOM      4  N   UNL     1       2.132  -0.233  -1.139  0.00  0.00    -0.291 N 
ATOM      5  C   UNL     1       2.825  -0.966  -0.096  0.00  0.00    +0.124 C 
ATOM      6  C   UNL     1       4.259  -0.536   0.138  0.00  0.00    +0.135 C 
ATOM      7  N   UNL     1       4.484   0.828  -0.355  0.00  0.00    -0.291 N 
ATOM      8  C   UNL     1       4.134   1.098  -1.761  0.00  0.00    +0.203 C 
ATOM      9  C   UNL     1       2.707   0.652  -1.965  0.00  0.00    +0.234 C 
ATOM     10  O   UNL     1       2.061   1.121  -2.878  0.00  0.00    -0.274 OA
ATOM     11  C   UNL     1       4.986   1.791   0.443  0.00  0.00    +0.216 C 
ATOM     12  O   UNL     1       5.263   1.539   1.597  0.00  0.00    -0.276 OA
ATOM     13  C   UNL     1       2.039  -0.932   1.187  0.00  0.00    -0.022 A 
ATOM     14  C   UNL     1       0.732  -0.495   1.224  0.00  0.00    -0.035 A 
ATOM     15  C   UNL     1       0.045  -0.498   2.432  0.00  0.00    +0.004 A 
ATOM     16  C   UNL     1       0.662  -0.928   3.588  0.00  0.00    +0.000 A 
ATOM     17  C   UNL     1       1.975  -1.358   3.550  0.00  0.00    +0.000 A 
ATOM     18  C   UNL     1       2.659  -1.360   2.351  0.00  0.00    +0.006 A 
ATOM     19  C   UNL     1      -1.436  -0.525   0.033  0.00  0.00    +0.017 C 
ENDROOT
BRANCH  11  20
ATOM     20  C   UNL     1       5.203   3.181  -0.098  0.00  0.00    +0.096 C 
BRANCH  20  21
ATOM     21  C   UNL     1       5.777   4.073   1.004  0.00  0.00    +0.014 C 
BRANCH  21  22
ATOM     22  C   UNL     1       5.998   5.484   0.455  0.00  0.00    +0.038 C 
BRANCH  22  23
ATOM     23  C   UNL     1       6.564   6.363   1.540  0.00  0.00    -0.012 A 
ATOM     24  C   UNL     1       5.720   7.144   2.307  0.00  0.00    +0.006 A 
ATOM     25  C   UNL     1       6.239   7.951   3.303  0.00  0.00    +0.000 A 
ATOM     26  C   UNL     1       7.602   7.977   3.533  0.00  0.00    +0.003 A 
ATOM     27  C   UNL     1       8.447   7.196   2.768  0.00  0.00    +0.038 A 
ATOM     28  C   UNL     1       7.928   6.384   1.773  0.00  0.00    +0.127 A 
ATOM     29  F   UNL     1       8.753   5.617   1.028  0.00  0.00    -0.205 F 
ENDBRANCH  22  23
ENDBRANCH  21  22
ENDBRANCH  20  21
ENDBRANCH  11  20
TORSDOF 4
