REMARK  Name = ZINC10227146
REMARK  10 active torsions:
REMARK  status: ('A' for Active; 'I' for Inactive)
REMARK    1  A    between atoms: C_1  and  C_2
REMARK    2  A    between atoms: C_2  and  N_3
REMARK    3  A    between atoms: N_3  and  C_4
REMARK    4  A    between atoms: C_4  and  C_5
REMARK    5  A    between atoms: C_18  and  C_20
REMARK    6  A    between atoms: C_22  and  O_32
REMARK    7  A    between atoms: C_23  and  O_27
REMARK    8  A    between atoms: O_27  and  C_28
REMARK    9  A    between atoms: C_28  and  C_29
REMARK   10  A    between atoms: O_32  and  C_33
REMARK                            x       y       z     vdW  Elec       q    Type
REMARK                         _______ _______ _______ _____ _____    ______ ____
ROOT
ATOM      1  N   UNL     1       1.031  -0.876   6.457  0.00  0.00    -0.290 N 
ATOM      2  C   UNL     1       1.196   0.193   5.654  0.00  0.00    +0.247 C 
ATOM      3  O   UNL     1       2.088   0.989   5.876  0.00  0.00    -0.270 OA
ENDROOT
BRANCH   2   4
ATOM      4  C   UNL     1       0.294   0.399   4.504  0.00  0.00    +0.042 A 
ATOM      5  C   UNL     1      -0.254   1.662   4.261  0.00  0.00    +0.062 A 
ATOM      6  C   UNL     1      -1.098   1.850   3.183  0.00  0.00    +0.164 A 
ATOM      7  C   UNL     1      -1.401   0.782   2.341  0.00  0.00    +0.181 A 
ATOM      8  C   UNL     1      -0.862  -0.474   2.585  0.00  0.00    +0.087 A 
ATOM      9  C   UNL     1      -0.014  -0.667   3.656  0.00  0.00    +0.037 A 
ATOM     10 CL   UNL     1      -1.249  -1.802   1.536  0.00  0.00    -0.080 Cl
BRANCH   6  11
ATOM     11  O   UNL     1      -1.632   3.078   2.945  0.00  0.00    -0.491 OA
ATOM     12  C   UNL     1      -1.278   4.126   3.849  0.00  0.00    +0.277 C 
ENDBRANCH   6  11
BRANCH   7  13
ATOM     13  O   UNL     1      -2.231   0.969   1.282  0.00  0.00    -0.478 OA
BRANCH  13  14
ATOM     14  C   UNL     1      -1.627   1.352   0.044  0.00  0.00    +0.324 C 
BRANCH  14  15
ATOM     15  C   UNL     1      -2.694   1.512  -1.008  0.00  0.00    +0.248 C 
ATOM     16  O   UNL     1      -3.857   1.318  -0.725  0.00  0.00    -0.272 OA
ATOM     17  N   UNL     1      -2.356   1.871  -2.262  0.00  0.00    -0.327 N 
ATOM     18  H   UNL     1      -1.425   2.026  -2.488  0.00  0.00    +0.145 HD
ATOM     19  H   UNL     1      -3.043   1.974  -2.939  0.00  0.00    +0.145 HD
ENDBRANCH  14  15
ENDBRANCH  13  14
ENDBRANCH   7  13
ENDBRANCH   2   4
BRANCH   1  21
ATOM     20  C   UNL     1       0.734  -3.067   5.410  0.00  0.00    +0.024 C 
ATOM     21  C   UNL     1       0.040  -1.901   6.118  0.00  0.00    +0.105 C 
ENDBRANCH   1  21
BRANCH   1  22
ATOM     22  C   UNL     1       1.843  -1.015   7.668  0.00  0.00    +0.182 C 
BRANCH  22  23
ATOM     23  C   UNL     1       1.136  -0.355   8.824  0.00  0.00    +0.128 A 
ATOM     24  N   UNL     1       1.735  -0.377  10.044  0.00  0.00    -0.309 N 
ATOM     25  H   UNL     1       2.596  -0.812  10.148  0.00  0.00    +0.170 HD
ATOM     26  C   UNL     1       1.142   0.202  11.114  0.00  0.00    +0.259 A 
ATOM     27  O   UNL     1       1.668   0.189  12.212  0.00  0.00    -0.267 OA
ATOM     28  C   UNL     1      -0.161   0.847  10.899  0.00  0.00    +0.065 A 
ATOM     29  C   UNL     1      -0.854   1.472  11.933  0.00  0.00    +0.017 A 
ATOM     30  C   UNL     1      -2.064   2.057  11.680  0.00  0.00    +0.021 A 
ATOM     31  C   UNL     1      -2.608   2.037  10.402  0.00  0.00    +0.043 A 
ATOM     32  C   UNL     1      -1.943   1.426   9.361  0.00  0.00    +0.048 A 
ATOM     33  C   UNL     1      -0.707   0.821   9.595  0.00  0.00    +0.080 A 
ATOM     34  N   UNL     1      -0.011   0.211   8.603  0.00  0.00    -0.232 NA
ATOM     35 CL   UNL     1      -4.146   2.790  10.112  0.00  0.00    -0.083 Cl
ENDBRANCH  22  23
ENDBRANCH   1  22
TORSDOF 8
