REMARK  Name = ZINC08199857
REMARK  6 active torsions:
REMARK  status: ('A' for Active; 'I' for Inactive)
REMARK    1  A    between atoms: C_1  and  C_2
REMARK    2  A    between atoms: C_2  and  C_3
REMARK    3  A    between atoms: C_6  and  O_10
REMARK    4  A    between atoms: O_10  and  C_11
REMARK    5  A    between atoms: C_11  and  C_12
REMARK    6  A    between atoms: N_14  and  N_15
REMARK                            x       y       z     vdW  Elec       q    Type
REMARK                         _______ _______ _______ _____ _____    ______ ____
ROOT
ATOM      1  C   UNL     1      -3.042   4.483   6.404  0.00  0.00    +0.270 C 
ATOM      2  O   UNL     1      -3.894   3.709   6.786  0.00  0.00    -0.270 OA
ATOM      3  N   UNL     1      -2.821   5.629   7.078  0.00  0.00    -0.204 N 
ATOM      4  H   UNL     1      -2.139   6.248   6.771  0.00  0.00    +0.177 HD
ENDROOT
BRANCH   3   5
ATOM      5  N   UNL     1      -3.575   5.926   8.220  0.00  0.00    -0.184 NA
ATOM      6  C   UNL     1      -3.362   7.029   8.869  0.00  0.00    +0.067 C 
ATOM      7  C   UNL     1      -2.300   8.012   8.419  0.00  0.00    +0.058 C 
ATOM      8  C   UNL     1      -1.563   8.500   9.668  0.00  0.00    +0.011 C 
ATOM      9  C   UNL     1      -2.533   9.261  10.568  0.00  0.00    +0.036 C 
ATOM     10  C   UNL     1      -3.744   8.430  10.893  0.00  0.00    -0.038 A 
ATOM     11  C   UNL     1      -4.142   7.370  10.079  0.00  0.00    +0.001 A 
ATOM     12  C   UNL     1      -5.278   6.625  10.402  0.00  0.00    +0.010 A 
ATOM     13  C   UNL     1      -6.005   6.939  11.531  0.00  0.00    +0.001 A 
ATOM     14  C   UNL     1      -5.606   7.988  12.340  0.00  0.00    +0.000 A 
ATOM     15  C   UNL     1      -4.482   8.729  12.023  0.00  0.00    +0.004 A 
ENDBRANCH   3   5
BRANCH   1  16
ATOM     16  C   UNL     1      -2.231   4.163   5.175  0.00  0.00    +0.326 C 
BRANCH  16  17
ATOM     17  O   UNL     1      -2.649   2.904   4.642  0.00  0.00    -0.482 OA
BRANCH  17  21
ATOM     18  C   UNL     1      -0.718   1.572   1.248  0.00  0.00    -0.046 A 
ATOM     19  C   UNL     1      -0.359   2.779   1.818  0.00  0.00    +0.007 A 
ATOM     20  C   UNL     1      -1.008   3.230   2.951  0.00  0.00    +0.047 A 
ATOM     21  C   UNL     1      -2.013   2.465   3.524  0.00  0.00    +0.135 A 
ATOM     22  C   UNL     1      -2.368   1.251   2.954  0.00  0.00    +0.060 A 
ATOM     23  C   UNL     1      -1.719   0.807   1.817  0.00  0.00    +0.022 A 
ATOM     24 BR   UNL     1      -3.737   0.204   3.732  0.00  0.00    -0.047 Br
BRANCH  18  26
ATOM     25  C   UNL     1      -0.753   1.593  -1.232  0.00  0.00    +0.009 C 
ATOM     26  C   UNL     1      -0.013   1.086   0.008  0.00  0.00    +0.032 C 
ENDBRANCH  18  26
ENDBRANCH  17  21
ENDBRANCH  16  17
ENDBRANCH   1  16
TORSDOF 5
