REMARK  Name = ZINC13942925
REMARK  8 active torsions:
REMARK  status: ('A' for Active; 'I' for Inactive)
REMARK    1  A    between atoms: C_1  and  C_2
REMARK    2  A    between atoms: C_4  and  C_29
REMARK    3  A    between atoms: C_6  and  O_8
REMARK    4  A    between atoms: O_8  and  C_9
REMARK    5  A    between atoms: C_9  and  C_10
REMARK    6  A    between atoms: C_13  and  C_24
REMARK    7  A    between atoms: C_13  and  O_28
REMARK    8  A    between atoms: C_15  and  C_17
REMARK                            x       y       z     vdW  Elec       q    Type
REMARK                         _______ _______ _______ _____ _____    ______ ____
ROOT
ATOM      1  C   UNL     1      -4.783   0.891   0.029  0.00  0.00    +0.275 C 
ATOM      2  O   UNL     1      -4.610  -0.309   0.022  0.00  0.00    -0.270 OA
ATOM      3  N   UNL     1      -6.035   1.391   0.038  0.00  0.00    -0.149 N 
ATOM      4  C   UNL     1      -7.274   0.597   0.040  0.00  0.00    +0.257 C 
ATOM      5  C   UNL     1      -8.387   1.664   0.051  0.00  0.00    +0.124 C 
ATOM      6  C   UNL     1      -7.634   2.975   0.054  0.00  0.00    +0.071 C 
ATOM      7  N   UNL     1      -6.367   2.744   0.053  0.00  0.00    -0.178 NA
ENDROOT
BRANCH   6   8
ATOM      8  C   UNL     1      -8.255   4.313   0.064  0.00  0.00    -0.002 A 
ATOM      9  C   UNL     1      -9.646   4.440   0.064  0.00  0.00    +0.011 A 
ATOM     10  C   UNL     1     -10.221   5.694   0.078  0.00  0.00    +0.016 A 
ATOM     11  C   UNL     1      -9.422   6.825   0.081  0.00  0.00    +0.018 A 
ATOM     12  C   UNL     1      -8.043   6.706   0.075  0.00  0.00    +0.016 A 
ATOM     13  C   UNL     1      -7.455   5.458   0.066  0.00  0.00    +0.011 A 
ATOM     14 BR   UNL     1     -10.219   8.540   0.093  0.00  0.00    -0.050 Br
ENDBRANCH   6   8
BRANCH   4  15
ATOM     15  C   UNL     1      -7.351  -0.279   1.292  0.00  0.00    +0.438 C 
ATOM     16  F   UNL     1      -7.298   0.531   2.431  0.00  0.00    -0.166 F 
ATOM     17  F   UNL     1      -8.551  -0.997   1.286  0.00  0.00    -0.166 F 
ATOM     18  F   UNL     1      -6.273  -1.171   1.304  0.00  0.00    -0.166 F 
ENDBRANCH   4  15
BRANCH   4  19
ATOM     19  O   UNL     1      -7.358  -0.205  -1.140  0.00  0.00    -0.363 OA
ATOM     20  H   UNL     1      -6.641  -0.848  -1.230  0.00  0.00    +0.212 HD
ENDBRANCH   4  19
BRANCH   1  21
ATOM     21  C   UNL     1      -3.599   1.824   0.029  0.00  0.00    +0.326 C 
BRANCH  21  22
ATOM     22  O   UNL     1      -2.392   1.060   0.019  0.00  0.00    -0.483 OA
BRANCH  22  28
ATOM     23  C   UNL     1      -0.065   5.351   0.030  0.00  0.00    +0.044 C 
ATOM     24  C   UNL     1      -0.049   3.844   0.022  0.00  0.00    -0.047 A 
ATOM     25  C   UNL     1       1.156   3.166   0.007  0.00  0.00    +0.007 A 
ATOM     26  C   UNL     1       1.174   1.783   0.000  0.00  0.00    -0.047 A 
ATOM     27  C   UNL     1      -0.013   1.076   0.008  0.00  0.00    +0.049 A 
ATOM     28  C   UNL     1      -1.223   1.754   0.017  0.00  0.00    +0.122 A 
ATOM     29  C   UNL     1      -1.238   3.141   0.030  0.00  0.00    +0.049 A 
ATOM     30  C   UNL     1       2.489   1.048  -0.015  0.00  0.00    +0.044 C 
ENDBRANCH  22  28
ENDBRANCH  21  22
ENDBRANCH   1  21
TORSDOF 6
