REMARK  Name = ZINC09590230
REMARK  9 active torsions:
REMARK  status: ('A' for Active; 'I' for Inactive)
REMARK    1  A    between atoms: C_1  and  C_2
REMARK    2  A    between atoms: N_4  and  C_5
REMARK    3  A    between atoms: C_8  and  N_11
REMARK    4  A    between atoms: C_12  and  C_14
REMARK    5  A    between atoms: C_14  and  S_15
REMARK    6  A    between atoms: S_15  and  C_16
REMARK    7  A    between atoms: C_16  and  C_17
REMARK    8  A    between atoms: C_23  and  C_25
REMARK    9  A    between atoms: C_30  and  N_31
REMARK                            x       y       z     vdW  Elec       q    Type
REMARK                         _______ _______ _______ _____ _____    ______ ____
ROOT
ATOM      1  C   UNL     1       1.737  11.807   0.008  0.00  0.00    +0.125 C 
ENDROOT
BRANCH   1   2
ATOM      2  C   UNL     1       2.965  12.679  -0.054  0.00  0.00    +0.060 A 
ATOM      3  C   UNL     1       3.381  13.208  -1.230  0.00  0.00    +0.072 A 
ATOM      4  S   UNL     1       4.826  14.113  -0.695  0.00  0.00    -0.060 S 
ATOM      5  C   UNL     1       4.734  13.708   0.992  0.00  0.00    +0.165 A 
ATOM      6  N   UNL     1       3.655  12.950   1.036  0.00  0.00    -0.229 NA
ATOM      7  N   UNL     1       5.576  14.089   2.028  0.00  0.00    -0.261 N 
ATOM      8  C   UNL     1       6.637  14.882   1.777  0.00  0.00    +0.252 C 
ATOM      9  O   UNL     1       6.856  15.264   0.644  0.00  0.00    -0.270 OA
ATOM     10  H   UNL     1       5.401  13.784   2.932  0.00  0.00    +0.157 HD
BRANCH   8  11
ATOM     11  C   UNL     1       7.533  15.287   2.880  0.00  0.00    +0.067 A 
ATOM     12  C   UNL     1       8.127  14.320   3.693  0.00  0.00    +0.015 A 
ATOM     13  C   UNL     1       8.966  14.705   4.718  0.00  0.00    +0.001 A 
ATOM     14  C   UNL     1       9.212  16.047   4.947  0.00  0.00    +0.002 A 
ATOM     15  C   UNL     1       8.623  17.011   4.149  0.00  0.00    +0.033 A 
ATOM     16  C   UNL     1       7.785  16.639   3.117  0.00  0.00    +0.138 A 
BRANCH  16  17
ATOM     17  N   UNL     1       7.155  17.672   2.265  0.00  0.00    +0.057 N 
ATOM     18  O   UNL     1       7.469  18.842   2.392  0.00  0.00    -0.126 OA
ATOM     19  O   UNL     1       6.323  17.352   1.435  0.00  0.00    -0.126 OA
ENDBRANCH  16  17
ENDBRANCH   8  11
ENDBRANCH   1   2
BRANCH   1  20
ATOM     20  S   UNL     1       2.212  10.075  -0.247  0.00  0.00    -0.145 S 
BRANCH  20  21
ATOM     21  C   UNL     1       0.643   9.170  -0.145  0.00  0.00    +0.165 C 
BRANCH  21  23
ATOM     22  N   UNL     1      -0.128   6.826  -0.307  0.00  0.00    -0.285 N 
ATOM     23  C   UNL     1       0.899   7.698  -0.342  0.00  0.00    +0.227 C 
ATOM     24  O   UNL     1       2.028   7.299  -0.533  0.00  0.00    -0.275 OA
ATOM     25  H   UNL     1      -1.021   7.136  -0.091  0.00  0.00    +0.155 HD
BRANCH  22  29
ATOM     26  C   UNL     1       0.537   2.791  -1.125  0.00  0.00    +0.033 A 
ATOM     27  C   UNL     1       1.497   3.529  -0.444  0.00  0.00    +0.025 A 
ATOM     28  C   UNL     1       1.278   4.866  -0.176  0.00  0.00    +0.025 A 
ATOM     29  C   UNL     1       0.095   5.470  -0.581  0.00  0.00    +0.034 A 
ATOM     30  C   UNL     1      -0.866   4.731  -1.258  0.00  0.00    +0.025 A 
ATOM     31  C   UNL     1      -0.646   3.396  -1.529  0.00  0.00    +0.025 A 
BRANCH  26  35
ATOM     32  C   UNL     1       2.267  -0.474  -1.847  0.00  0.00    +0.109 C 
ATOM     33  C   UNL     1       2.007   0.999  -1.667  0.00  0.00    +0.214 C 
ATOM     34  O   UNL     1       2.919   1.792  -1.769  0.00  0.00    -0.276 OA
ATOM     35  N   UNL     1       0.760   1.436  -1.399  0.00  0.00    -0.286 N 
ATOM     36  H   UNL     1       0.018   0.812  -1.396  0.00  0.00    +0.155 HD
ENDBRANCH  26  35
ENDBRANCH  22  29
ENDBRANCH  21  23
ENDBRANCH  20  21
ENDBRANCH   1  20
TORSDOF 8
