REMARK  Name = ZINC63339371
REMARK  5 active torsions:
REMARK  status: ('A' for Active; 'I' for Inactive)
REMARK    1  A    between atoms: C_1  and  O_2
REMARK    2  A    between atoms: O_2  and  C_3
REMARK    3  A    between atoms: C_3  and  C_5
REMARK    4  A    between atoms: C_18  and  C_21
REMARK    5  A    between atoms: C_26  and  O_27
REMARK                            x       y       z     vdW  Elec       q    Type
REMARK                         _______ _______ _______ _____ _____    ______ ____
ROOT
ATOM      1  C   UNL     1       0.679  -2.115   1.088  0.00  0.00    +0.168 C 
ATOM      2  C   UNL     1      -0.664  -2.660   1.611  0.00  0.00    +0.063 C 
ATOM      3  C   UNL     1      -0.448  -4.130   1.871  0.00  0.00    -0.035 C 
ATOM      4  C   UNL     1      -1.133  -5.208   1.519  0.00  0.00    -0.001 A 
ATOM      5  C   UNL     1      -2.438  -5.370   0.858  0.00  0.00    +0.010 A 
ATOM      6  C   UNL     1      -2.836  -6.648   0.620  0.00  0.00    +0.001 A 
ATOM      7  C   UNL     1      -2.076  -7.768   0.971  0.00  0.00    +0.002 A 
ATOM      8  C   UNL     1      -0.871  -7.713   1.592  0.00  0.00    +0.026 A 
ATOM      9  C   UNL     1      -0.351  -6.423   1.903  0.00  0.00    +0.043 A 
ATOM     10  N   UNL     1       0.748  -6.083   2.512  0.00  0.00    -0.376 N 
ATOM     11  C   UNL     1       0.762  -4.629   2.655  0.00  0.00    +0.128 C 
ATOM     12  C   UNL     1       1.986  -3.978   2.008  0.00  0.00    +0.115 C 
ATOM     13  N   UNL     1       1.769  -2.522   1.979  0.00  0.00    -0.295 NA
ATOM     14  H   UNL     1       2.623  -2.036   1.752  0.00  0.00    +0.123 HD
ATOM     15  H   UNL     1       1.439  -6.691   2.818  0.00  0.00    +0.160 HD
ENDROOT
BRANCH  12  16
ATOM     16  C   UNL     1       3.217  -4.294   2.817  0.00  0.00    +0.014 A 
ATOM     17  C   UNL     1       3.659  -3.405   3.778  0.00  0.00    +0.024 A 
ATOM     18  C   UNL     1       4.790  -3.694   4.521  0.00  0.00    +0.018 A 
ATOM     19  C   UNL     1       5.479  -4.874   4.304  0.00  0.00    +0.019 A 
ATOM     20  C   UNL     1       5.040  -5.766   3.345  0.00  0.00    +0.047 A 
ATOM     21  C   UNL     1       3.904  -5.480   2.602  0.00  0.00    +0.122 A 
ATOM     22 BR   UNL     1       5.393  -2.475   5.835  0.00  0.00    -0.050 Br
BRANCH  21  23
ATOM     23  O   UNL     1       3.467  -6.358   1.661  0.00  0.00    -0.506 OA
ATOM     24  H   UNL     1       3.842  -6.212   0.782  0.00  0.00    +0.292 HD
ENDBRANCH  21  23
ENDBRANCH  12  16
BRANCH   1  25
ATOM     25  C   UNL     1       0.618  -0.611   1.029  0.00  0.00    +0.324 C 
ATOM     26  O   UNL     1       1.124   0.049   1.905  0.00  0.00    -0.249 OA
BRANCH  25  28
ATOM     27  C   UNL     1      -0.017   1.425   0.010  0.00  0.00    +0.280 C 
ATOM     28  O   UNL     1       0.002  -0.004   0.002  0.00  0.00    -0.467 OA
ENDBRANCH  25  28
ENDBRANCH   1  25
TORSDOF 4
