REMARK  Name = ZINC64491146
REMARK  7 active torsions:
REMARK  status: ('A' for Active; 'I' for Inactive)
REMARK    1  A    between atoms: C_1  and  C_2
REMARK    2  A    between atoms: N_4  and  C_5
REMARK    3  A    between atoms: C_11  and  C_15
REMARK    4  A    between atoms: C_15  and  C_16
REMARK    5  A    between atoms: N_18  and  C_19
REMARK    6  A    between atoms: C_19  and  C_20
REMARK    7  A    between atoms: C_20  and  C_21
REMARK                            x       y       z     vdW  Elec       q    Type
REMARK                         _______ _______ _______ _____ _____    ______ ____
ROOT
ATOM      1  C   UNL     1      -4.225  -7.323   3.772  0.00  0.00    +0.217 C 
ATOM      2  O   UNL     1      -3.557  -7.640   2.811  0.00  0.00    -0.275 OA
ATOM      3  N   UNL     1      -4.607  -8.258   4.665  0.00  0.00    -0.315 N 
ATOM      4  H   UNL     1      -5.141  -8.005   5.434  0.00  0.00    +0.149 HD
ENDROOT
BRANCH   1   5
ATOM      5  C   UNL     1      -4.628  -5.884   3.969  0.00  0.00    +0.131 C 
BRANCH   5  11
ATOM      6  C   UNL     1      -1.136  -2.159   0.001  0.00  0.00    +0.224 C 
ATOM      7  N   UNL     1      -2.474  -2.704  -0.265  0.00  0.00    -0.316 N 
ATOM      8  C   UNL     1      -3.058  -3.490   0.727  0.00  0.00    +0.043 A 
ATOM      9  C   UNL     1      -4.326  -4.094   0.652  0.00  0.00    +0.024 A 
ATOM     10  C   UNL     1      -4.816  -4.854   1.689  0.00  0.00    +0.006 A 
ATOM     11  C   UNL     1      -4.078  -5.050   2.841  0.00  0.00    -0.037 A 
ATOM     12  C   UNL     1      -2.825  -4.467   2.943  0.00  0.00    +0.020 A 
ATOM     13  C   UNL     1      -2.336  -3.707   1.905  0.00  0.00    +0.032 A 
ATOM     14  S   UNL     1      -0.807  -2.825   1.682  0.00  0.00    -0.082 S 
ATOM     15  H   UNL     1      -2.934  -2.523  -1.099  0.00  0.00    +0.149 HD
BRANCH   6  19
ATOM     16  C   UNL     1      -0.018   1.503   0.010  0.00  0.00    +0.109 C 
ATOM     17  C   UNL     1       0.002  -0.004   0.002  0.00  0.00    +0.212 C 
ATOM     18  O   UNL     1       1.060  -0.596  -0.011  0.00  0.00    -0.276 OA
ATOM     19  N   UNL     1      -1.156  -0.694   0.009  0.00  0.00    -0.288 N 
ATOM     20  H   UNL     1      -2.002  -0.220   0.020  0.00  0.00    +0.151 HD
ENDBRANCH   6  19
ENDBRANCH   5  11
ENDBRANCH   1   5
BRANCH   3  21
ATOM     21  C   UNL     1      -4.215  -9.657   4.474  0.00  0.00    +0.108 C 
BRANCH  21  22
ATOM     22  C   UNL     1      -4.774 -10.504   5.619  0.00  0.00    +0.052 C 
BRANCH  22  23
ATOM     23  C   UNL     1      -4.371 -11.943   5.422  0.00  0.00    -0.040 C 
ATOM     24  C   UNL     1      -3.303 -12.570   5.966  0.00  0.00    +0.000 A 
ATOM     25  C   UNL     1      -2.238 -12.117   6.869  0.00  0.00    +0.030 A 
ATOM     26  C   UNL     1      -1.282 -12.997   7.248  0.00  0.00    +0.042 A 
ATOM     27  C   UNL     1      -1.284 -14.327   6.802  0.00  0.00    +0.022 A 
ATOM     28  C   UNL     1      -2.230 -14.815   5.971  0.00  0.00    +0.027 A 
ATOM     29  C   UNL     1      -3.283 -13.978   5.509  0.00  0.00    +0.043 A 
ATOM     30  N   UNL     1      -4.298 -14.212   4.714  0.00  0.00    -0.380 N 
ATOM     31  C   UNL     1      -5.082 -12.979   4.581  0.00  0.00    +0.144 C 
ATOM     32 CL   UNL     1      -0.020 -12.466   8.316  0.00  0.00    -0.084 Cl
ATOM     33  H   UNL     1      -4.500 -15.060   4.288  0.00  0.00    +0.160 HD
ENDBRANCH  22  23
ENDBRANCH  21  22
ENDBRANCH   3  21
TORSDOF 6
