REMARK  Name = ZINC66739268
REMARK  6 active torsions:
REMARK  status: ('A' for Active; 'I' for Inactive)
REMARK    1  A    between atoms: C_1  and  C_2
REMARK    2  A    between atoms: C_2  and  N_3
REMARK    3  A    between atoms: C_4  and  C_15
REMARK    4  A    between atoms: C_17  and  O_23
REMARK    5  A    between atoms: C_18  and  O_22
REMARK    6  A    between atoms: O_23  and  C_24
REMARK                            x       y       z     vdW  Elec       q    Type
REMARK                         _______ _______ _______ _____ _____    ______ ____
ROOT
ATOM      1  N   UNL     1       0.832  -0.356   1.067  0.00  0.00    -0.280 N 
ATOM      2  C   UNL     1       2.271  -0.646   1.107  0.00  0.00    +0.177 C 
ATOM      3  N   UNL     1       2.470  -1.595   2.227  0.00  0.00    -0.281 NA
ATOM      4  C   UNL     1       1.339  -1.289   3.130  0.00  0.00    +0.098 C 
ATOM      5  C   UNL     1       0.267  -0.708   2.240  0.00  0.00    +0.237 C 
ATOM      6  O   UNL     1      -0.904  -0.581   2.531  0.00  0.00    -0.274 OA
ATOM      7  C   UNL     1       0.846  -2.566   3.801  0.00  0.00    +0.031 C 
ATOM      8  C   UNL     1      -0.332  -2.239   4.723  0.00  0.00    +0.002 C 
ATOM      9  C   UNL     1       0.116  -1.229   5.781  0.00  0.00    +0.000 C 
ATOM     10  C   UNL     1       0.588   0.055   5.095  0.00  0.00    +0.002 C 
ATOM     11  C   UNL     1       1.769  -0.264   4.175  0.00  0.00    +0.031 C 
ATOM     12  H   UNL     1       2.426  -2.550   1.904  0.00  0.00    +0.125 HD
ENDROOT
BRANCH   2  13
ATOM     13  C   UNL     1       2.710  -1.274  -0.190  0.00  0.00    +0.005 A 
ATOM     14  C   UNL     1       1.801  -1.977  -0.959  0.00  0.00    +0.057 A 
ATOM     15  C   UNL     1       2.203  -2.554  -2.152  0.00  0.00    +0.162 A 
ATOM     16  C   UNL     1       3.522  -2.426  -2.575  0.00  0.00    +0.160 A 
ATOM     17  C   UNL     1       4.429  -1.722  -1.800  0.00  0.00    +0.064 A 
ATOM     18  C   UNL     1       4.021  -1.142  -0.612  0.00  0.00    +0.028 A 
ATOM     19 BR   UNL     1       5.258  -0.174   0.440  0.00  0.00    -0.050 Br
BRANCH  16  20
ATOM     20  O   UNL     1       3.921  -2.992  -3.745  0.00  0.00    -0.503 OA
ATOM     21  H   UNL     1       3.827  -2.414  -4.514  0.00  0.00    +0.292 HD
ENDBRANCH  16  20
BRANCH  15  22
ATOM     22  O   UNL     1       1.309  -3.246  -2.909  0.00  0.00    -0.491 OA
ATOM     23  C   UNL     1      -0.028  -3.337  -2.413  0.00  0.00    +0.277 C 
ENDBRANCH  15  22
ENDBRANCH   2  13
BRANCH   1  25
ATOM     24  C   UNL     1       0.010   1.744   0.122  0.00  0.00    +0.024 C 
ATOM     25  C   UNL     1       0.121   0.231  -0.071  0.00  0.00    +0.106 C 
ENDBRANCH   1  25
TORSDOF 4
