REMARK  Name = ZINC28296660
REMARK  10 active torsions:
REMARK  status: ('A' for Active; 'I' for Inactive)
REMARK    1  A    between atoms: C_1  and  C_2
REMARK    2  A    between atoms: C_4  and  C_35
REMARK    3  A    between atoms: C_8  and  C_29
REMARK    4  A    between atoms: C_9  and  C_23
REMARK    5  A    between atoms: N_10  and  C_11
REMARK    6  A    between atoms: C_11  and  C_12
REMARK    7  A    between atoms: C_12  and  C_14
REMARK    8  A    between atoms: C_12  and  O_22
REMARK    9  A    between atoms: C_14  and  N_15
REMARK   10  A    between atoms: N_15  and  C_16
REMARK                            x       y       z     vdW  Elec       q    Type
REMARK                         _______ _______ _______ _____ _____    ______ ____
ROOT
ATOM      1  C   UNL     1      -3.451  -0.130  -4.686  0.00  0.00    +0.044 C 
ATOM      2  C   UNL     1      -2.147   0.316  -4.076  0.00  0.00    -0.049 A 
ATOM      3  C   UNL     1      -1.545  -0.460  -3.095  0.00  0.00    +0.008 A 
ATOM      4  C   UNL     1      -0.353  -0.070  -2.525  0.00  0.00    -0.026 A 
ATOM      5  C   UNL     1       0.260   1.109  -2.938  0.00  0.00    +0.053 A 
ATOM      6  C   UNL     1      -0.358   1.893  -3.928  0.00  0.00    +0.009 A 
ATOM      7  C   UNL     1      -1.566   1.480  -4.493  0.00  0.00    +0.014 A 
ATOM      8  C   UNL     1       0.515   3.058  -4.138  0.00  0.00    +0.015 A 
ATOM      9  C   UNL     1       1.579   2.909  -3.274  0.00  0.00    +0.058 A 
ATOM     10  N   UNL     1       1.421   1.747  -2.558  0.00  0.00    -0.337 N 
ATOM     11  C   UNL     1       0.290  -0.922  -1.460  0.00  0.00    +0.046 C 
ENDROOT
BRANCH   9  12
ATOM     12  C   UNL     1       2.710   3.849  -3.140  0.00  0.00    -0.001 A 
ATOM     13  C   UNL     1       3.037   4.379  -1.890  0.00  0.00    +0.010 A 
ATOM     14  C   UNL     1       4.098   5.252  -1.771  0.00  0.00    +0.001 A 
ATOM     15  C   UNL     1       4.830   5.613  -2.889  0.00  0.00    +0.000 A 
ATOM     16  C   UNL     1       4.508   5.097  -4.131  0.00  0.00    +0.001 A 
ATOM     17  C   UNL     1       3.453   4.218  -4.264  0.00  0.00    +0.010 A 
ENDBRANCH   9  12
BRANCH   8  18
ATOM     18  C   UNL     1       0.294   4.170  -5.088  0.00  0.00    -0.015 A 
ATOM     19  C   UNL     1       0.070   5.463  -4.613  0.00  0.00    +0.008 A 
ATOM     20  C   UNL     1      -0.130   6.497  -5.505  0.00  0.00    +0.001 A 
ATOM     21  C   UNL     1      -0.120   6.252  -6.866  0.00  0.00    +0.000 A 
ATOM     22  C   UNL     1       0.096   4.972  -7.343  0.00  0.00    +0.001 A 
ATOM     23  C   UNL     1       0.303   3.930  -6.463  0.00  0.00    +0.008 A 
ENDBRANCH   8  18
BRANCH  10  24
ATOM     24  C   UNL     1       2.355   1.254  -1.542  0.00  0.00    +0.155 C 
BRANCH  24  25
ATOM     25  C   UNL     1       3.303   0.233  -2.174  0.00  0.00    +0.151 C 
BRANCH  25  26
ATOM     26  O   UNL     1       4.100   0.876  -3.171  0.00  0.00    -0.388 OA
ATOM     27  H   UNL     1       4.845   0.298  -3.737  0.00  0.00    +0.210 HD
ENDBRANCH  25  26
BRANCH  25  28
ATOM     28  C   UNL     1       4.214  -0.353  -1.093  0.00  0.00    +0.134 C 
BRANCH  28  29
ATOM     29  N   UNL     1       5.122  -1.331  -1.698  0.00  0.00    -0.341 N 
ATOM     30  H   UNL     1       5.070  -1.535  -2.778  0.00  0.00    +0.146 HD
BRANCH  29  31
ATOM     31  C   UNL     1       6.054  -2.003  -0.904  0.00  0.00    +0.027 A 
ATOM     32  C   UNL     1       6.125  -1.742   0.459  0.00  0.00    +0.023 A 
ATOM     33  C   UNL     1       7.044  -2.412   1.242  0.00  0.00    +0.002 A 
ATOM     34  C   UNL     1       7.900  -3.334   0.670  0.00  0.00    +0.000 A 
ATOM     35  C   UNL     1       7.836  -3.593  -0.687  0.00  0.00    +0.002 A 
ATOM     36  C   UNL     1       6.916  -2.930  -1.475  0.00  0.00    +0.023 A 
ENDBRANCH  29  31
ENDBRANCH  28  29
ENDBRANCH  25  28
ENDBRANCH  24  25
ENDBRANCH  10  24
TORSDOF 8
