REMARK  Name = ZINC41076963
REMARK  7 active torsions:
REMARK  status: ('A' for Active; 'I' for Inactive)
REMARK    1  A    between atoms: C_1  and  C_2
REMARK    2  A    between atoms: C_2  and  C_3
REMARK    3  A    between atoms: C_2  and  C_4
REMARK    4  A    between atoms: C_4  and  N_5
REMARK    5  A    between atoms: N_5  and  C_6
REMARK    6  A    between atoms: C_6  and  C_7
REMARK    7  A    between atoms: N_21  and  C_22
REMARK                            x       y       z     vdW  Elec       q    Type
REMARK                         _______ _______ _______ _____ _____    ______ ____
ROOT
ATOM      1  N   UNL     1       2.282  -0.017  -1.339  0.00  0.00    -0.281 N 
ATOM      2  C   UNL     1       2.744   1.149  -1.832  0.00  0.00    +0.307 C 
ATOM      3  O   UNL     1       3.939   1.370  -1.853  0.00  0.00    -0.252 OA
ATOM      4  N   UNL     1       1.879   2.071  -2.302  0.00  0.00    -0.269 N 
ATOM      5  H   UNL     1       0.933   1.866  -2.354  0.00  0.00    +0.156 HD
ENDROOT
BRANCH   4   6
ATOM      6  C   UNL     1       2.349   3.323  -2.716  0.00  0.00    +0.035 A 
ATOM      7  C   UNL     1       1.725   3.988  -3.764  0.00  0.00    +0.025 A 
ATOM      8  C   UNL     1       2.190   5.223  -4.170  0.00  0.00    +0.022 A 
ATOM      9  C   UNL     1       3.276   5.799  -3.533  0.00  0.00    +0.041 A 
ATOM     10  C   UNL     1       3.899   5.138  -2.489  0.00  0.00    +0.022 A 
ATOM     11  C   UNL     1       3.434   3.905  -2.075  0.00  0.00    +0.025 A 
ATOM     12 CL   UNL     1       3.857   7.352  -4.046  0.00  0.00    -0.084 Cl
ENDBRANCH   4   6
BRANCH   1  13
ATOM     13  C   UNL     1       0.842  -0.284  -1.314  0.00  0.00    +0.112 C 
BRANCH  13  15
ATOM     14  C   UNL     1       0.417   1.587   0.287  0.00  0.00    +0.009 C 
ATOM     15  C   UNL     1       0.280   0.080   0.062  0.00  0.00    +0.000 C 
ATOM     16  C   UNL     1      -1.197  -0.314   0.130  0.00  0.00    +0.009 C 
ENDBRANCH  13  15
ENDBRANCH   1  13
BRANCH   1  17
ATOM     17  C   UNL     1       3.221  -1.019  -0.828  0.00  0.00    +0.145 C 
BRANCH  17  18
ATOM     18  C   UNL     1       3.723  -1.866  -1.969  0.00  0.00    -0.016 A 
ATOM     19  C   UNL     1       4.879  -1.555  -2.607  0.00  0.00    +0.076 A 
ATOM     20  C   UNL     1       5.339  -2.355  -3.674  0.00  0.00    +0.249 A 
ATOM     21  O   UNL     1       6.380  -2.058  -4.233  0.00  0.00    -0.268 OA
ATOM     22  N   UNL     1       4.657  -3.437  -4.090  0.00  0.00    -0.322 N 
ATOM     23  H   UNL     1       5.002  -3.965  -4.827  0.00  0.00    +0.169 HD
ATOM     24  C   UNL     1       3.476  -3.807  -3.484  0.00  0.00    +0.049 A 
ATOM     25  C   UNL     1       2.976  -3.045  -2.410  0.00  0.00    +0.003 A 
ATOM     26  C   UNL     1       1.781  -3.419  -1.788  0.00  0.00    +0.010 A 
ATOM     27  C   UNL     1       1.108  -4.526  -2.223  0.00  0.00    +0.001 A 
ATOM     28  C   UNL     1       1.600  -5.282  -3.278  0.00  0.00    +0.002 A 
ATOM     29  C   UNL     1       2.770  -4.926  -3.913  0.00  0.00    +0.026 A 
ENDBRANCH  17  18
ENDBRANCH   1  17
TORSDOF 5
