REMARK  Name = ZINC14678214
REMARK  11 active torsions:
REMARK  status: ('A' for Active; 'I' for Inactive)
REMARK    1  A    between atoms: C_1  and  C_2
REMARK    2  A    between atoms: C_2  and  C_3
REMARK    3  A    between atoms: C_2  and  C_4
REMARK    4  A    between atoms: C_7  and  C_10
REMARK    5  A    between atoms: C_10  and  S_11
REMARK    6  A    between atoms: S_11  and  C_12
REMARK    7  A    between atoms: C_15  and  S_17
REMARK    8  A    between atoms: S_17  and  C_18
REMARK    9  A    between atoms: C_18  and  C_19
REMARK   10  A    between atoms: N_29  and  C_30
REMARK   11  A    between atoms: C_30  and  C_31
REMARK                            x       y       z     vdW  Elec       q    Type
REMARK                         _______ _______ _______ _____ _____    ______ ____
ROOT
ATOM      1  C   UNL     1      -2.324   1.046   2.477  0.00  0.00    +0.150 C 
ENDROOT
BRANCH   1   2
ATOM      2  C   UNL     1      -2.930   0.527   1.199  0.00  0.00    +0.124 A 
ATOM      3  N   UNL     1      -3.903  -0.329   1.282  0.00  0.00    -0.233 NA
ATOM      4  C   UNL     1      -4.497  -0.840   0.175  0.00  0.00    +0.078 A 
ATOM      5  C   UNL     1      -5.544  -1.760   0.263  0.00  0.00    +0.028 A 
ATOM      6  C   UNL     1      -6.118  -2.252  -0.887  0.00  0.00    +0.002 A 
ATOM      7  C   UNL     1      -5.669  -1.846  -2.137  0.00  0.00    +0.001 A 
ATOM      8  C   UNL     1      -4.638  -0.939  -2.250  0.00  0.00    +0.015 A 
ATOM      9  C   UNL     1      -4.043  -0.429  -1.098  0.00  0.00    +0.065 A 
ATOM     10  C   UNL     1      -2.943   0.545  -1.157  0.00  0.00    +0.262 A 
ATOM     11  O   UNL     1      -2.508   0.945  -2.221  0.00  0.00    -0.267 OA
ATOM     12  N   UNL     1      -2.430   0.977   0.019  0.00  0.00    -0.287 N 
BRANCH  12  13
ATOM     13  C   UNL     1      -1.330   1.944   0.019  0.00  0.00    +0.222 C 
BRANCH  13  14
ATOM     14  C   UNL     1      -0.014   1.209   0.009  0.00  0.00    +0.230 C 
ATOM     15  O   UNL     1       0.002  -0.004   0.002  0.00  0.00    -0.274 OA
ATOM     16  N   UNL     1       1.143   1.898   0.001  0.00  0.00    -0.328 N 
ATOM     17  H   UNL     1       1.990   1.425  -0.009  0.00  0.00    +0.145 HD
ATOM     18  H   UNL     1       1.130   2.868   0.007  0.00  0.00    +0.145 HD
ENDBRANCH  13  14
ENDBRANCH  12  13
ENDBRANCH   1   2
BRANCH   1  19
ATOM     19  S   UNL     1      -3.167   0.293   3.896  0.00  0.00    -0.089 S 
BRANCH  19  23
ATOM     20  C   UNL     1      -1.396   1.811   7.669  0.00  0.00    +0.160 A 
ATOM     21  N   UNL     1      -0.873   2.281   6.553  0.00  0.00    -0.134 NA
ATOM     22  N   UNL     1      -1.361   1.858   5.338  0.00  0.00    -0.134 NA
ATOM     23  C   UNL     1      -2.355   0.992   5.295  0.00  0.00    +0.160 A 
ATOM     24  S   UNL     1      -2.654   0.713   7.034  0.00  0.00    -0.033 S 
BRANCH  20  25
ATOM     25  S   UNL     1      -0.968   2.170   9.340  0.00  0.00    -0.092 S 
BRANCH  25  26
ATOM     26  C   UNL     1       0.390   3.365   9.198  0.00  0.00    +0.111 C 
BRANCH  26  30
ATOM     27  C   UNL     1       1.713   4.487  13.102  0.00  0.00    -0.045 A 
ATOM     28  C   UNL     1       2.289   3.405  12.461  0.00  0.00    +0.004 A 
ATOM     29  C   UNL     1       1.861   3.042  11.198  0.00  0.00    +0.005 A 
ATOM     30  C   UNL     1       0.857   3.760  10.575  0.00  0.00    -0.037 A 
ATOM     31  C   UNL     1       0.285   4.845  11.214  0.00  0.00    +0.005 A 
ATOM     32  C   UNL     1       0.710   5.205  12.479  0.00  0.00    +0.004 A 
BRANCH  27  34
ATOM     33  C   UNL     1       2.717   6.314  14.444  0.00  0.00    +0.012 C 
ATOM     34  C   UNL     1       2.179   4.882  14.479  0.00  0.00    +0.013 C 
ATOM     35  C   UNL     1       1.005   4.802  15.457  0.00  0.00    +0.012 C 
ENDBRANCH  27  34
ENDBRANCH  26  30
ENDBRANCH  25  26
ENDBRANCH  20  25
ENDBRANCH  19  23
ENDBRANCH   1  19
TORSDOF 9
