REMARK  Name = ZINC63506923
REMARK  11 active torsions:
REMARK  status: ('A' for Active; 'I' for Inactive)
REMARK    1  A    between atoms: C_1  and  C_2
REMARK    2  A    between atoms: C_6  and  C_37
REMARK    3  A    between atoms: C_7  and  N_8
REMARK    4  A    between atoms: C_9  and  C_11
REMARK    5  A    between atoms: C_11  and  C_13
REMARK    6  A    between atoms: C_11  and  N_20
REMARK    7  A    between atoms: N_20  and  C_21
REMARK    8  A    between atoms: C_21  and  C_22
REMARK    9  A    between atoms: C_22  and  C_23
REMARK   10  A    between atoms: C_31  and  C_33
REMARK   11  A    between atoms: C_34  and  C_36
REMARK                            x       y       z     vdW  Elec       q    Type
REMARK                         _______ _______ _______ _____ _____    ______ ____
ROOT
ATOM      1  C   UNL     1      -0.734   0.015   4.924  0.00  0.00    +0.192 C 
ENDROOT
BRANCH   1   2
ATOM      2  C   UNL     1      -2.223   0.172   4.754  0.00  0.00    -0.018 A 
ATOM      3  C   UNL     1      -3.055  -0.921   4.909  0.00  0.00    +0.007 A 
ATOM      4  C   UNL     1      -4.421  -0.777   4.754  0.00  0.00    +0.020 A 
ATOM      5  C   UNL     1      -4.955   0.461   4.442  0.00  0.00    +0.041 A 
ATOM      6  C   UNL     1      -4.121   1.554   4.287  0.00  0.00    +0.020 A 
ATOM      7  C   UNL     1      -2.756   1.410   4.448  0.00  0.00    +0.007 A 
ATOM      8 CL   UNL     1      -6.670   0.642   4.246  0.00  0.00    -0.084 Cl
ENDBRANCH   1   2
BRANCH   1  10
ATOM      9  N   UNL     1      -0.130   0.251   2.537  0.00  0.00    -0.283 N 
ATOM     10  C   UNL     1      -0.136  -0.515   3.646  0.00  0.00    +0.242 C 
ATOM     11  O   UNL     1       0.340  -1.630   3.615  0.00  0.00    -0.273 OA
ATOM     12  H   UNL     1      -0.565   1.118   2.543  0.00  0.00    +0.155 HD
BRANCH   9  19
ATOM     13  C   UNL     1       2.640  -0.385   2.680  0.00  0.00    +0.045 C 
ATOM     14  C   UNL     1       1.856  -0.526   1.401  0.00  0.00    -0.029 A 
ATOM     15  C   UNL     1       2.478  -0.981   0.255  0.00  0.00    +0.005 A 
ATOM     16  C   UNL     1       1.758  -1.110  -0.919  0.00  0.00    +0.001 A 
ATOM     17  C   UNL     1       0.415  -0.785  -0.949  0.00  0.00    +0.005 A 
ATOM     18  C   UNL     1      -0.213  -0.330   0.194  0.00  0.00    -0.029 A 
ATOM     19  C   UNL     1       0.505  -0.204   1.376  0.00  0.00    +0.039 A 
ATOM     20  C   UNL     1      -1.677   0.025   0.160  0.00  0.00    +0.045 C 
ENDBRANCH   9  19
ENDBRANCH   1  10
BRANCH   1  21
ATOM     21  N   UNL     1      -0.463  -0.925   6.015  0.00  0.00    -0.286 N 
ATOM     22  C   UNL     1      -0.128  -0.461   7.235  0.00  0.00    +0.213 C 
ATOM     23  O   UNL     1       0.177  -1.237   8.116  0.00  0.00    -0.276 OA
ATOM     24  C   UNL     1      -0.131   1.022   7.505  0.00  0.00    +0.109 C 
BRANCH  21  25
ATOM     25  C   UNL     1      -0.558  -2.368   5.780  0.00  0.00    +0.113 C 
BRANCH  25  26
ATOM     26  C   UNL     1       0.842  -2.984   5.821  0.00  0.00    +0.052 C 
BRANCH  26  27
ATOM     27  C   UNL     1       0.745  -4.468   5.579  0.00  0.00    -0.037 C 
ATOM     28  C   UNL     1      -0.380  -5.183   5.351  0.00  0.00    -0.001 A 
ATOM     29  C   UNL     1      -1.796  -4.807   5.264  0.00  0.00    +0.010 A 
ATOM     30  C   UNL     1      -2.716  -5.768   5.020  0.00  0.00    +0.001 A 
ATOM     31  C   UNL     1      -2.352  -7.110   4.848  0.00  0.00    +0.002 A 
ATOM     32  C   UNL     1      -1.071  -7.532   4.913  0.00  0.00    +0.026 A 
ATOM     33  C   UNL     1      -0.021  -6.607   5.165  0.00  0.00    +0.043 A 
ATOM     34  N   UNL     1       1.275  -6.766   5.274  0.00  0.00    -0.378 N 
ATOM     35  C   UNL     1       1.887  -5.459   5.536  0.00  0.00    +0.103 C 
ATOM     36  C   UNL     1       2.617  -5.481   6.880  0.00  0.00    +0.035 C 
ATOM     37  H   UNL     1       1.751  -7.608   5.192  0.00  0.00    +0.160 HD
ENDBRANCH  26  27
ENDBRANCH  25  26
ENDBRANCH  21  25
ENDBRANCH   1  21
TORSDOF 7
