REMARK  Name = ZINC12682667
REMARK  4 active torsions:
REMARK  status: ('A' for Active; 'I' for Inactive)
REMARK    1  A    between atoms: C_1  and  C_2
REMARK    2  A    between atoms: N_11  and  C_15
REMARK    3  A    between atoms: C_15  and  N_16
REMARK    4  A    between atoms: C_20  and  C_23
REMARK                            x       y       z     vdW  Elec       q    Type
REMARK                         _______ _______ _______ _____ _____    ______ ____
ROOT
ATOM      1  C   UNL     1      -3.287  -0.495   2.967  0.00  0.00    +0.205 C 
ENDROOT
BRANCH   1  11
ATOM      2  C   UNL     1      -1.543   3.558   2.537  0.00  0.00    +0.010 C 
ATOM      3  C   UNL     1      -0.793   3.100   1.285  0.00  0.00    +0.018 C 
ATOM      4  C   UNL     1      -1.530   3.598   0.039  0.00  0.00    +0.006 C 
ATOM      5  C   UNL     1      -0.790   3.122  -1.213  0.00  0.00    +0.000 C 
ATOM      6  C   UNL     1      -0.752   1.592  -1.233  0.00  0.00    +0.003 C 
ATOM      7  C   UNL     1      -0.013   1.086   0.008  0.00  0.00    +0.035 C 
ATOM      8  C   UNL     1      -0.725   1.577   1.263  0.00  0.00    +0.115 C 
ATOM      9  C   UNL     1      -2.113   0.985   1.348  0.00  0.00    +0.248 C 
ATOM     10  O   UNL     1      -3.023   1.132   0.560  0.00  0.00    -0.273 OA
ATOM     11  N   UNL     1      -2.127   0.259   2.485  0.00  0.00    -0.211 N 
ATOM     12  C   UNL     1      -0.949   0.314   3.119  0.00  0.00    +0.310 C 
ATOM     13  O   UNL     1      -0.717  -0.259   4.165  0.00  0.00    -0.252 OA
ATOM     14  N   UNL     1      -0.050   1.076   2.467  0.00  0.00    -0.285 N 
ATOM     15  H   UNL     1       0.995   1.354   2.667  0.00  0.00    +0.151 HD
ENDBRANCH   1  11
BRANCH   1  16
ATOM     16  N   UNL     1      -4.105   0.365   3.833  0.00  0.00    -0.286 NA
ATOM     17  C   UNL     1      -4.973   1.241   3.035  0.00  0.00    +0.086 C 
ATOM     18  C   UNL     1      -5.700   2.220   3.960  0.00  0.00    +0.016 C 
ATOM     19  C   UNL     1      -6.533   1.432   4.975  0.00  0.00    +0.013 C 
ATOM     20  C   UNL     1      -5.612   0.493   5.759  0.00  0.00    +0.059 C 
ATOM     21  C   UNL     1      -4.887  -0.436   4.782  0.00  0.00    +0.096 C 
BRANCH  20  22
ATOM     22  C   UNL     1      -6.432  -0.329   6.720  0.00  0.00    +0.084 A 
ATOM     23  N   UNL     1      -6.343  -0.382   8.019  0.00  0.00    -0.244 NA
ATOM     24  C   UNL     1      -7.144  -1.166   8.770  0.00  0.00    +0.078 A 
ATOM     25  C   UNL     1      -7.169  -1.331  10.172  0.00  0.00    +0.029 A 
ATOM     26  C   UNL     1      -8.060  -2.176  10.757  0.00  0.00    +0.002 A 
ATOM     27  C   UNL     1      -8.972  -2.905  10.007  0.00  0.00    +0.001 A 
ATOM     28  C   UNL     1      -8.980  -2.772   8.631  0.00  0.00    +0.017 A 
ATOM     29  C   UNL     1      -8.084  -1.921   8.031  0.00  0.00    +0.039 A 
ATOM     30  S   UNL     1      -7.729  -1.427   6.364  0.00  0.00    -0.072 S 
ENDBRANCH  20  22
ENDBRANCH   1  16
TORSDOF 3
