REMARK  Name = ZINC40322307
REMARK  8 active torsions:
REMARK  status: ('A' for Active; 'I' for Inactive)
REMARK    1  A    between atoms: C_1  and  C_2
REMARK    2  A    between atoms: C_2  and  N_3
REMARK    3  A    between atoms: C_4  and  C_6
REMARK    4  A    between atoms: C_10  and  N_11
REMARK    5  A    between atoms: C_12  and  C_14
REMARK    6  A    between atoms: C_17  and  S_19
REMARK    7  A    between atoms: S_19  and  C_22
REMARK    8  A    between atoms: C_25  and  C_28
REMARK                            x       y       z     vdW  Elec       q    Type
REMARK                         _______ _______ _______ _____ _____    ______ ____
ROOT
ATOM      1  N   UNL     1      -0.537  -2.370  -4.042  0.00  0.00    -0.273 N 
ATOM      2  C   UNL     1      -1.044  -2.656  -5.258  0.00  0.00    +0.284 C 
ATOM      3  O   UNL     1      -0.310  -3.041  -6.149  0.00  0.00    -0.266 OA
ATOM      4  H   UNL     1      -1.122  -2.063  -3.332  0.00  0.00    +0.156 HD
ENDROOT
BRANCH   1   9
ATOM      5  C   UNL     1       1.513  -2.271  -2.631  0.00  0.00    +0.069 A 
ATOM      6  C   UNL     1       2.946  -2.510  -2.643  0.00  0.00    -0.023 A 
ATOM      7  C   UNL     1       3.425  -2.942  -3.829  0.00  0.00    -0.004 A 
ATOM      8  S   UNL     1       2.006  -3.026  -4.882  0.00  0.00    -0.077 S 
ATOM      9  C   UNL     1       0.821  -2.516  -3.807  0.00  0.00    +0.085 A 
ATOM     10  C   UNL     1       4.848  -3.272  -4.158  0.00  0.00    +0.043 C 
ATOM     11  C   UNL     1       5.745  -2.687  -3.058  0.00  0.00    +0.005 C 
ATOM     12  C   UNL     1       5.167  -3.067  -1.692  0.00  0.00    +0.005 C 
ATOM     13  C   UNL     1       3.864  -2.303  -1.447  0.00  0.00    +0.037 C 
BRANCH   5  15
ATOM     14  N   UNL     1       0.688  -0.476  -1.203  0.00  0.00    -0.312 N 
ATOM     15  C   UNL     1       0.827  -1.799  -1.425  0.00  0.00    +0.247 C 
ATOM     16  O   UNL     1       0.383  -2.600  -0.624  0.00  0.00    -0.270 OA
ATOM     17  H   UNL     1       1.042   0.162  -1.842  0.00  0.00    +0.149 HD
BRANCH  14  19
ATOM     18  C   UNL     1      -0.019   1.526   0.010  0.00  0.00    +0.024 C 
ATOM     19  C   UNL     1       0.002  -0.004   0.002  0.00  0.00    +0.101 C 
ENDBRANCH  14  19
ENDBRANCH   5  15
ENDBRANCH   1   9
BRANCH   2  20
ATOM     20  C   UNL     1      -2.481  -2.502  -5.507  0.00  0.00    +0.192 A 
ATOM     21  C   UNL     1      -3.123  -2.760  -6.684  0.00  0.00    +0.056 A 
ATOM     22  C   UNL     1      -4.482  -2.479  -6.472  0.00  0.00    +0.070 A 
ATOM     23  C   UNL     1      -4.608  -2.066  -5.191  0.00  0.00    +0.246 A 
ATOM     24  O   UNL     1      -3.400  -2.087  -4.611  0.00  0.00    -0.433 OA
BRANCH  23  25
ATOM     25  S   UNL     1      -6.113  -1.586  -4.411  0.00  0.00    +0.058 S 
ATOM     26  O   UNL     1      -5.757  -0.730  -3.334  0.00  0.00    -0.161 OA
ATOM     27  O   UNL     1      -6.996  -1.179  -5.447  0.00  0.00    -0.161 OA
BRANCH  25  28
ATOM     28  C   UNL     1      -6.812  -3.035  -3.693  0.00  0.00    +0.097 A 
ATOM     29  C   UNL     1      -7.678  -3.822  -4.428  0.00  0.00    +0.028 A 
ATOM     30  C   UNL     1      -8.227  -4.959  -3.865  0.00  0.00    +0.005 A 
ATOM     31  C   UNL     1      -7.910  -5.308  -2.566  0.00  0.00    -0.050 A 
ATOM     32  C   UNL     1      -7.043  -4.521  -1.830  0.00  0.00    +0.005 A 
ATOM     33  C   UNL     1      -6.491  -3.387  -2.395  0.00  0.00    +0.028 A 
ATOM     34  C   UNL     1      -8.509  -6.547  -1.951  0.00  0.00    +0.044 C 
ENDBRANCH  25  28
ENDBRANCH  23  25
ENDBRANCH   2  20
TORSDOF 6
