REMARK  Name = ZINC11995739
REMARK  8 active torsions:
REMARK  status: ('A' for Active; 'I' for Inactive)
REMARK    1  A    between atoms: C_1  and  C_2
REMARK    2  A    between atoms: C_5  and  C_33
REMARK    3  A    between atoms: C_11  and  C_12
REMARK    4  A    between atoms: C_16  and  N_61
REMARK    5  A    between atoms: C_19  and  C_21
REMARK    6  A    between atoms: C_19  and  C_22
REMARK    7  A    between atoms: C_19  and  N_61
REMARK    8  A    between atoms: C_24  and  C_27
REMARK                            x       y       z     vdW  Elec       q    Type
REMARK                         _______ _______ _______ _____ _____    ______ ____
ROOT
ATOM      1  C   UNL     1      -5.081   1.571  -1.065  0.00  0.00    +0.044 C 
ATOM      2  C   UNL     1      -4.236   1.806   0.161  0.00  0.00    -0.047 A 
ATOM      3  C   UNL     1      -2.894   1.575   0.105  0.00  0.00    +0.015 A 
ATOM      4  C   UNL     1      -2.107   1.798   1.244  0.00  0.00    +0.022 A 
ATOM      5  C   UNL     1      -0.718   1.572   1.248  0.00  0.00    +0.051 A 
ATOM      6  N   UNL     1      -0.048   1.799   2.358  0.00  0.00    -0.219 NA
ATOM      7  C   UNL     1      -0.655   2.229   3.463  0.00  0.00    +0.219 A 
ATOM      8  N   UNL     1      -1.954   2.454   3.520  0.00  0.00    -0.214 NA
ATOM      9  C   UNL     1      -2.720   2.251   2.441  0.00  0.00    +0.077 A 
ATOM     10  C   UNL     1      -4.104   2.478   2.460  0.00  0.00    +0.032 A 
ATOM     11  C   UNL     1      -4.838   2.256   1.333  0.00  0.00    -0.045 A 
ATOM     12  C   UNL     1      -6.324   2.501   1.357  0.00  0.00    +0.044 C 
ATOM     13  N   UNL     1       0.106   2.449   4.596  0.00  0.00    -0.300 N 
ATOM     14  C   UNL     1      -0.065   3.822   5.088  0.00  0.00    +0.106 C 
ATOM     15  C   UNL     1       0.674   3.985   6.418  0.00  0.00    +0.003 C 
ATOM     16  C   UNL     1       2.160   3.679   6.211  0.00  0.00    -0.068 C 
ATOM     17  C   UNL     1       2.308   2.261   5.654  0.00  0.00    +0.003 C 
ATOM     18  C   UNL     1       1.522   2.147   4.346  0.00  0.00    +0.106 C 
ATOM     19  C   UNL     1      -0.013   1.086   0.008  0.00  0.00    +0.066 C 
ENDROOT
BRANCH  16  20
ATOM     20  N   UNL     1       2.867   3.769   7.503  0.00  0.00    +0.389 N 
ATOM     21  H   UNL     1       3.707   3.179   7.471  0.00  0.00    -0.084 HD
ATOM     22  H   UNL     1       2.246   3.441   8.252  0.00  0.00    -0.084 HD
BRANCH  20  23
ATOM     23  C   UNL     1       3.262   5.164   7.774  0.00  0.00    +0.016 C 
ATOM     24  C   UNL     1       4.600   5.458   7.093  0.00  0.00    -0.004 C 
BRANCH  23  25
ATOM     25  C   UNL     1       3.403   5.357   9.262  0.00  0.00    +0.213 A 
ATOM     26  N   UNL     1       2.947   6.366   9.962  0.00  0.00    -0.191 NA
ATOM     27  C   UNL     1       3.306   6.113  11.241  0.00  0.00    +0.220 A 
ATOM     28  N   UNL     1       3.952   4.976  11.242  0.00  0.00    -0.055 NA
ATOM     29  O   UNL     1       4.011   4.529  10.117  0.00  0.00    -0.339 OA
BRANCH  27  30
ATOM     30  C   UNL     1       3.020   6.966  12.422  0.00  0.00    +0.111 A 
ATOM     31  C   UNL     1       3.458   6.568  13.683  0.00  0.00    +0.031 A 
ATOM     32  C   UNL     1       3.185   7.374  14.775  0.00  0.00    +0.004 A 
ATOM     33  C   UNL     1       2.482   8.552  14.569  0.00  0.00    +0.020 A 
ATOM     34  C   UNL     1       2.077   8.885  13.289  0.00  0.00    +0.111 A 
ATOM     35  N   UNL     1       2.355   8.102  12.267  0.00  0.00    -0.252 NA
ENDBRANCH  27  30
ENDBRANCH  23  25
ENDBRANCH  20  23
ENDBRANCH  16  20
TORSDOF 4
