REMARK  Name = ZINC00752690
REMARK  5 active torsions:
REMARK  status: ('A' for Active; 'I' for Inactive)
REMARK    1  A    between atoms: C_4  and  C_7
REMARK    2  A    between atoms: C_12  and  C_20
REMARK    3  A    between atoms: C_14  and  C_18
REMARK    4  A    between atoms: C_15  and  N_17
REMARK    5  A    between atoms: C_23  and  C_26
REMARK                            x       y       z     vdW  Elec       q    Type
REMARK                         _______ _______ _______ _____ _____    ______ ____
ROOT
ATOM      1  C   UNL     1      -2.217   6.450   3.689  0.00  0.00    +0.034 C 
ATOM      2  C   UNL     1      -2.748   7.197   2.464  0.00  0.00    +0.083 C 
ATOM      3  C   UNL     1      -2.049   6.698   1.221  0.00  0.00    +0.115 C 
ATOM      4  C   UNL     1      -0.778   6.259   1.278  0.00  0.00    +0.046 C 
ATOM      5  C   UNL     1      -0.076   5.774   0.033  0.00  0.00    +0.101 C 
ATOM      6  C   UNL     1      -0.798   6.269  -1.190  0.00  0.00    +0.098 C 
ATOM      7  C   UNL     1      -2.076   6.705  -1.105  0.00  0.00    +0.198 C 
ATOM      8  O   UNL     1      -2.736   6.706   0.064  0.00  0.00    -0.445 OA
ATOM      9  C   UNL     1      -0.066   6.234   2.493  0.00  0.00    +0.164 C 
ATOM     10  O   UNL     1       1.085   5.845   2.502  0.00  0.00    -0.292 OA
ATOM     11  C   UNL     1      -0.704   6.681   3.780  0.00  0.00    +0.088 C 
ENDROOT
BRANCH   1  15
ATOM     12  C   UNL     1      -4.110   7.944   7.215  0.00  0.00    +0.000 A 
ATOM     13  C   UNL     1      -4.223   6.606   6.883  0.00  0.00    +0.000 A 
ATOM     14  C   UNL     1      -3.610   6.123   5.742  0.00  0.00    +0.004 A 
ATOM     15  C   UNL     1      -2.885   6.977   4.932  0.00  0.00    -0.043 A 
ATOM     16  C   UNL     1      -2.768   8.313   5.267  0.00  0.00    +0.004 A 
ATOM     17  C   UNL     1      -3.385   8.798   6.405  0.00  0.00    +0.000 A 
ENDBRANCH   1  15
BRANCH   5  18
ATOM     18  C   UNL     1      -0.056   4.267   0.025  0.00  0.00    -0.035 A 
ATOM     19  C   UNL     1       1.151   3.592   0.010  0.00  0.00    +0.005 A 
ATOM     20  C   UNL     1       1.169   2.210   0.003  0.00  0.00    +0.012 A 
ATOM     21  C   UNL     1      -0.018   1.503   0.010  0.00  0.00    +0.055 A 
ATOM     22  C   UNL     1      -1.225   2.178   0.020  0.00  0.00    +0.012 A 
ATOM     23  C   UNL     1      -1.244   3.560   0.033  0.00  0.00    +0.005 A 
BRANCH  21  24
ATOM     24  C   UNL     1       0.002  -0.004   0.002  0.00  0.00    +0.417 C 
ATOM     25  F   UNL     1       0.021  -0.477   1.318  0.00  0.00    -0.166 F 
ATOM     26  F   UNL     1      -1.140  -0.482  -0.649  0.00  0.00    -0.166 F 
ATOM     27  F   UNL     1       1.144  -0.451  -0.671  0.00  0.00    -0.166 F 
ENDBRANCH  21  24
ENDBRANCH   5  18
BRANCH   7  28
ATOM     28  N   UNL     1      -2.710   7.156  -2.236  0.00  0.00    -0.328 N 
ATOM     29  H   UNL     1      -3.626   7.470  -2.185  0.00  0.00    +0.145 HD
ATOM     30  H   UNL     1      -2.242   7.160  -3.085  0.00  0.00    +0.145 HD
ENDBRANCH   7  28
BRANCH   6  31
ATOM     31  C   UNL     1      -0.129   6.280  -2.456  0.00  0.00    +0.101 C 
ATOM     32  N   UNL     1       0.402   6.289  -3.460  0.00  0.00    -0.191 NA
ENDBRANCH   6  31
TORSDOF 5
