REMARK  Name = ZINC02616959
REMARK  3 active torsions:
REMARK  status: ('A' for Active; 'I' for Inactive)
REMARK    1  A    between atoms: C_6  and  S_11
REMARK    2  A    between atoms: S_11  and  N_14
REMARK    3  A    between atoms: N_14  and  C_15
REMARK                            x       y       z     vdW  Elec       q    Type
REMARK                         _______ _______ _______ _____ _____    ______ ____
ROOT
ATOM      1  N   UNL     1       2.364   3.886   0.001  0.00  0.00    -0.215 N 
ATOM      2  H   UNL     1       3.099   3.568  -0.546  0.00  0.00    +0.174 HD
ENDROOT
BRANCH   1   3
ATOM      3  C   UNL     1       1.228   3.088   0.177  0.00  0.00    +0.064 A 
ATOM      4  C   UNL     1      -0.025   3.677   0.267  0.00  0.00    +0.053 A 
ATOM      5  C   UNL     1      -1.148   2.884   0.441  0.00  0.00    +0.069 A 
ATOM      6  C   UNL     1      -1.016   1.496   0.520  0.00  0.00    +0.068 A 
ATOM      7  C   UNL     1       0.239   0.913   0.436  0.00  0.00    +0.045 A 
ATOM      8  C   UNL     1       1.357   1.706   0.262  0.00  0.00    +0.042 A 
ATOM      9 BR   UNL     1       3.067   0.909   0.139  0.00  0.00    -0.048 Br
ATOM     10  N   UNL     1      -2.300   0.979   0.697  0.00  0.00    -0.306 N 
ATOM     11  H   UNL     1      -2.527   0.041   0.787  0.00  0.00    +0.170 HD
ATOM     12  C   UNL     1      -3.171   2.006   0.715  0.00  0.00    +0.325 A 
ATOM     13  O   UNL     1      -4.376   1.901   0.849  0.00  0.00    -0.247 OA
ATOM     14  N   UNL     1      -2.507   3.167   0.563  0.00  0.00    -0.306 N 
ATOM     15  H   UNL     1      -2.906   4.051   0.543  0.00  0.00    +0.170 HD
ENDBRANCH   1   3
BRANCH   1  16
ATOM     16  S   UNL     1       2.452   5.372   0.726  0.00  0.00    +0.072 S 
ATOM     17  O   UNL     1       3.759   5.870   0.472  0.00  0.00    -0.150 OA
ATOM     18  O   UNL     1       1.280   6.080   0.345  0.00  0.00    -0.150 OA
BRANCH  16  24
ATOM     19  C   UNL     1       3.172   4.299   7.309  0.00  0.00    +0.001 A 
ATOM     20  C   UNL     1       4.422   4.298   6.694  0.00  0.00    +0.001 A 
ATOM     21  C   UNL     1       4.543   4.496   5.353  0.00  0.00    +0.008 A 
ATOM     22  C   UNL     1       3.392   4.704   4.574  0.00  0.00    -0.016 A 
ATOM     23  C   UNL     1       3.477   4.912   3.187  0.00  0.00    +0.037 A 
ATOM     24  C   UNL     1       2.341   5.111   2.465  0.00  0.00    +0.109 A 
ATOM     25  C   UNL     1       1.091   5.117   3.081  0.00  0.00    +0.029 A 
ATOM     26  C   UNL     1       0.970   4.914   4.421  0.00  0.00    +0.010 A 
ATOM     27  C   UNL     1       2.121   4.705   5.200  0.00  0.00    -0.018 A 
ATOM     28  C   UNL     1       2.036   4.498   6.587  0.00  0.00    +0.008 A 
ENDBRANCH  16  24
ENDBRANCH   1  16
TORSDOF 3
