REMARK  Name = ZINC65298550
REMARK  7 active torsions:
REMARK  status: ('A' for Active; 'I' for Inactive)
REMARK    1  A    between atoms: C_1  and  C_2
REMARK    2  A    between atoms: C_2  and  N_3
REMARK    3  A    between atoms: C_10  and  C_23
REMARK    4  A    between atoms: C_13  and  C_15
REMARK    5  A    between atoms: C_20  and  O_21
REMARK    6  A    between atoms: C_26  and  O_29
REMARK    7  A    between atoms: O_29  and  C_30
REMARK                            x       y       z     vdW  Elec       q    Type
REMARK                         _______ _______ _______ _____ _____    ______ ____
ROOT
ATOM      1  N   UNL     1      -1.376  -0.512   0.012  0.00  0.00    +0.380 N 
ATOM      2  C   UNL     1      -2.051  -0.117  -1.230  0.00  0.00    -0.075 C 
ATOM      3  C   UNL     1      -3.510  -0.577  -1.190  0.00  0.00    +0.027 C 
ATOM      4  C   UNL     1      -3.555  -2.102  -1.048  0.00  0.00    +0.109 C 
ATOM      5  C   UNL     1      -2.788  -2.505   0.216  0.00  0.00    +0.027 C 
ATOM      6  C   UNL     1      -1.355  -1.976   0.125  0.00  0.00    -0.075 C 
ATOM      7  N   UNL     1      -4.953  -2.535  -0.925  0.00  0.00    -0.286 NA
ATOM      8  C   UNL     1      -5.036  -4.005  -0.978  0.00  0.00    +0.092 C 
ATOM      9  C   UNL     1      -4.651  -4.455  -2.391  0.00  0.00    +0.079 C 
ATOM     10  C   UNL     1      -3.391  -3.751  -2.814  0.00  0.00    +0.050 C 
ATOM     11  N   UNL     1      -2.931  -2.718  -2.214  0.00  0.00    -0.266 NA
ATOM     12  H   UNL     1      -5.368  -2.180  -0.076  0.00  0.00    +0.125 HD
ATOM     13  H   UNL     1      -1.871  -0.123   0.800  0.00  0.00    -0.082 HD
ENDROOT
BRANCH  10  14
ATOM     14  C   UNL     1      -2.651  -4.276  -3.976  0.00  0.00    +0.039 A 
ATOM     15  C   UNL     1      -3.123  -5.398  -4.661  0.00  0.00    +0.033 A 
ATOM     16  C   UNL     1      -2.426  -5.884  -5.747  0.00  0.00    +0.042 A 
ATOM     17  C   UNL     1      -1.258  -5.263  -6.162  0.00  0.00    +0.023 A 
ATOM     18  C   UNL     1      -0.780  -4.154  -5.492  0.00  0.00    +0.047 A 
ATOM     19  C   UNL     1      -1.472  -3.649  -4.402  0.00  0.00    +0.126 A 
ATOM     20 CL   UNL     1      -3.013  -7.278  -6.598  0.00  0.00    -0.084 Cl
BRANCH  19  21
ATOM     21  O   UNL     1      -1.007  -2.555  -3.747  0.00  0.00    -0.506 OA
ATOM     22  H   UNL     1      -0.401  -2.759  -3.022  0.00  0.00    +0.292 HD
ENDBRANCH  19  21
ENDBRANCH  10  14
BRANCH   8  23
ATOM     23  C   UNL     1      -6.443  -4.447  -0.668  0.00  0.00    -0.030 A 
ATOM     24  C   UNL     1      -7.516  -3.739  -1.178  0.00  0.00    +0.009 A 
ATOM     25  C   UNL     1      -8.807  -4.141  -0.895  0.00  0.00    +0.046 A 
ATOM     26  C   UNL     1      -9.026  -5.257  -0.100  0.00  0.00    +0.120 A 
ATOM     27  C   UNL     1      -7.948  -5.966   0.409  0.00  0.00    +0.046 A 
ATOM     28  C   UNL     1      -6.659  -5.562   0.119  0.00  0.00    +0.009 A 
BRANCH  26  29
ATOM     29  O   UNL     1     -10.295  -5.655   0.179  0.00  0.00    -0.495 OA
ATOM     30  C   UNL     1     -10.445  -6.812   1.004  0.00  0.00    +0.277 C 
ENDBRANCH  26  29
ENDBRANCH   8  23
BRANCH   1  32
ATOM     31  C   UNL     1      -0.019   1.526   0.010  0.00  0.00    -0.017 C 
ATOM     32  C   UNL     1       0.002  -0.004   0.002  0.00  0.00    -0.082 C 
ENDBRANCH   1  32
TORSDOF 5
