REMARK  Name = ZINC13562918
REMARK  8 active torsions:
REMARK  status: ('A' for Active; 'I' for Inactive)
REMARK    1  A    between atoms: C_1  and  C_2
REMARK    2  A    between atoms: C_2  and  C_5
REMARK    3  A    between atoms: N_3  and  O_4
REMARK    4  A    between atoms: C_10  and  C_32
REMARK    5  A    between atoms: C_21  and  C_31
REMARK    6  A    between atoms: C_24  and  O_27
REMARK    7  A    between atoms: O_27  and  C_28
REMARK    8  A    between atoms: C_28  and  C_30
REMARK                            x       y       z     vdW  Elec       q    Type
REMARK                         _______ _______ _______ _____ _____    ______ ____
ROOT
ATOM      1  C   UNL     1      -2.067   1.871  -0.791  0.00  0.00    -0.021 C 
ATOM      2  C   UNL     1      -0.814   1.622  -1.168  0.00  0.00    -0.021 C 
ATOM      3  C   UNL     1      -0.013   1.086   0.008  0.00  0.00    +0.032 C 
ATOM      4  C   UNL     1      -0.803   1.617   1.222  0.00  0.00    +0.006 C 
ATOM      5  C   UNL     1      -2.248   1.513   0.683  0.00  0.00    -0.002 C 
ATOM      6  C   UNL     1      -2.760   0.071   0.712  0.00  0.00    +0.012 C 
ATOM      7  C   UNL     1      -2.546  -0.555   2.102  0.00  0.00    +0.005 C 
ATOM      8  C   UNL     1      -1.043  -0.592   2.404  0.00  0.00    -0.001 C 
ATOM      9  C   UNL     1      -0.540   0.847   2.487  0.00  0.00    -0.003 C 
ATOM     10  C   UNL     1       0.952   0.852   2.824  0.00  0.00    +0.004 C 
ATOM     11  C   UNL     1       1.201   0.145   4.137  0.00  0.00    +0.004 C 
ATOM     12  C   UNL     1       0.702  -1.299   4.046  0.00  0.00    -0.001 C 
ATOM     13  C   UNL     1      -0.796  -1.301   3.737  0.00  0.00    -0.026 C 
ATOM     14  C   UNL     1      -1.298  -2.744   3.648  0.00  0.00    +0.011 C 
ATOM     15  C   UNL     1      -1.050  -3.453   4.981  0.00  0.00    +0.045 C 
ATOM     16  C   UNL     1       0.449  -3.452   5.289  0.00  0.00    +0.177 C 
ATOM     17  C   UNL     1       0.950  -2.009   5.378  0.00  0.00    +0.048 C 
ATOM     18  C   UNL     1      -1.547  -0.568   4.851  0.00  0.00    +0.012 C 
ATOM     19  C   UNL     1      -3.199   2.473   1.401  0.00  0.00    +0.016 C 
ENDROOT
BRANCH   1  21
ATOM     20  C   UNL     1      -2.814   2.726  -3.105  0.00  0.00    +0.069 C 
ATOM     21  C   UNL     1      -3.119   2.412  -1.663  0.00  0.00    +0.080 C 
ATOM     22  N   UNL     1      -4.308   2.617  -1.193  0.00  0.00    -0.092 NA
BRANCH  22  23
ATOM     23  O   UNL     1      -5.322   3.138  -2.033  0.00  0.00    -0.409 OA
ATOM     24  H   UNL     1      -6.332   3.312  -1.634  0.00  0.00    +0.328 HD
ENDBRANCH  22  23
ENDBRANCH   1  21
BRANCH  16  25
ATOM     25  O   UNL     1       0.684  -4.125   6.553  0.00  0.00    -0.462 OA
BRANCH  25  26
ATOM     26  C   UNL     1       0.902  -5.449   6.508  0.00  0.00    +0.304 C 
ATOM     27  O   UNL     1       0.896  -6.026   5.446  0.00  0.00    -0.251 OA
ATOM     28  C   UNL     1       1.153  -6.215   7.780  0.00  0.00    +0.136 C 
ENDBRANCH  25  26
ENDBRANCH  16  25
TORSDOF 4
