REMARK  Name = ZINC00982621
REMARK  7 active torsions:
REMARK  status: ('A' for Active; 'I' for Inactive)
REMARK    1  A    between atoms: C_6  and  N_7
REMARK    2  A    between atoms: C_8  and  C_10
REMARK    3  A    between atoms: C_10  and  O_11
REMARK    4  A    between atoms: O_11  and  C_12
REMARK    5  A    between atoms: C_15  and  S_18
REMARK    6  A    between atoms: S_18  and  N_21
REMARK    7  A    between atoms: N_21  and  C_22
REMARK                            x       y       z     vdW  Elec       q    Type
REMARK                         _______ _______ _______ _____ _____    ______ ____
ROOT
ATOM      1  C   UNL     1       0.030  -2.770  -0.014  0.00  0.00    +0.121 A 
ATOM      2  C   UNL     1       0.035  -2.082   1.191  0.00  0.00    +0.047 A 
ATOM      3  C   UNL     1       0.009  -0.700   1.196  0.00  0.00    +0.032 A 
ATOM      4  C   UNL     1      -0.022  -0.004   0.002  0.00  0.00    +0.105 A 
ATOM      5  C   UNL     1      -0.033  -0.688  -1.200  0.00  0.00    +0.032 A 
ATOM      6  C   UNL     1      -0.001  -2.069  -1.210  0.00  0.00    +0.047 A 
ENDROOT
BRANCH   4   7
ATOM      7  S   UNL     1      -0.054   1.758   0.011  0.00  0.00    +0.059 S 
ATOM      8  O   UNL     1      -0.631   2.160  -1.224  0.00  0.00    -0.153 OA
ATOM      9  O   UNL     1      -0.594   2.147   1.267  0.00  0.00    -0.153 OA
BRANCH   7  10
ATOM     10  N   UNL     1       1.518   2.276  -0.010  0.00  0.00    -0.187 NA
ATOM     11  H   UNL     1       1.879   2.762   0.749  0.00  0.00    +0.148 HD
BRANCH  10  12
ATOM     12  C   UNL     1       2.364   2.003  -1.174  0.00  0.00    +0.077 C 
ATOM     13  C   UNL     1       3.172   0.727  -0.929  0.00  0.00    +0.020 C 
ATOM     14  C   UNL     1       4.056   0.441  -2.145  0.00  0.00    +0.002 C 
ATOM     15  C   UNL     1       5.011   1.615  -2.368  0.00  0.00    +0.000 C 
ATOM     16  C   UNL     1       4.204   2.891  -2.613  0.00  0.00    +0.002 C 
ATOM     17  C   UNL     1       3.320   3.177  -1.397  0.00  0.00    +0.020 C 
ENDBRANCH  10  12
ENDBRANCH   7  10
ENDBRANCH   4   7
BRANCH   1  18
ATOM     18  O   UNL     1       0.055  -4.129  -0.021  0.00  0.00    -0.483 OA
BRANCH  18  19
ATOM     19  C   UNL     1       0.048  -4.771  -1.298  0.00  0.00    +0.324 C 
BRANCH  19  21
ATOM     20  N   UNL     1       0.078  -7.081  -2.182  0.00  0.00    -0.283 N 
ATOM     21  C   UNL     1       0.079  -6.266  -1.108  0.00  0.00    +0.255 C 
ATOM     22  O   UNL     1       0.104  -6.735   0.010  0.00  0.00    -0.272 OA
ATOM     23  H   UNL     1      -0.010  -6.709  -3.073  0.00  0.00    +0.155 HD
BRANCH  20  29
ATOM     24  C   UNL     1       0.897  -9.221  -2.945  0.00  0.00    +0.024 A 
ATOM     25  C   UNL     1       1.025 -10.585  -2.770  0.00  0.00    +0.016 A 
ATOM     26  C   UNL     1       0.453 -11.199  -1.670  0.00  0.00    +0.013 A 
ATOM     27  C   UNL     1      -0.243 -10.448  -0.739  0.00  0.00    +0.016 A 
ATOM     28  C   UNL     1      -0.368  -9.083  -0.906  0.00  0.00    +0.024 A 
ATOM     29  C   UNL     1       0.204  -8.464  -2.010  0.00  0.00    +0.034 A 
ATOM     30  I   UNL     1       0.642 -13.270  -1.413  0.00  0.00    -0.044 I 
ENDBRANCH  20  29
ENDBRANCH  19  21
ENDBRANCH  18  19
ENDBRANCH   1  18
TORSDOF 7
