REMARK  Name = ZINC09513731
REMARK  8 active torsions:
REMARK  status: ('A' for Active; 'I' for Inactive)
REMARK    1  A    between atoms: C_1  and  C_2
REMARK    2  A    between atoms: C_2  and  C_3
REMARK    3  A    between atoms: C_2  and  C_4
REMARK    4  A    between atoms: C_4  and  C_6
REMARK    5  A    between atoms: C_4  and  N_55
REMARK    6  A    between atoms: C_17  and  C_18
REMARK    7  A    between atoms: C_17  and  N_55
REMARK    8  A    between atoms: N_20  and  C_21
REMARK                            x       y       z     vdW  Elec       q    Type
REMARK                         _______ _______ _______ _____ _____    ______ ____
ROOT
ATOM      1  N   UNL     1      -3.637   1.668   0.121  0.00  0.00    +0.389 N 
ATOM      2  H   UNL     1      -3.569   2.319   0.912  0.00  0.00    -0.084 HD
ATOM      3  H   UNL     1      -3.644   2.199  -0.758  0.00  0.00    -0.084 HD
ENDROOT
BRANCH   1   4
ATOM      4  C   UNL     1      -4.889   0.895   0.233  0.00  0.00    -0.038 C 
BRANCH   4   5
ATOM      5  C   UNL     1      -5.962   1.775   0.821  0.00  0.00    -0.057 A 
ATOM      6  C   UNL     1      -6.057   3.099   0.435  0.00  0.00    +0.006 A 
ATOM      7  C   UNL     1      -7.039   3.912   0.971  0.00  0.00    +0.049 A 
ATOM      8  C   UNL     1      -7.929   3.395   1.897  0.00  0.00    +0.162 A 
ATOM      9  C   UNL     1      -7.834   2.066   2.284  0.00  0.00    +0.162 A 
ATOM     10  C   UNL     1      -6.853   1.253   1.742  0.00  0.00    +0.051 A 
ATOM     11  O   UNL     1      -8.716   1.565   3.198  0.00  0.00    -0.488 OA
ATOM     12  C   UNL     1     -10.071   1.450   2.760  0.00  0.00    +0.232 C 
ATOM     13  C   UNL     1     -10.809   2.769   2.937  0.00  0.00    +0.082 C 
ATOM     14  C   UNL     1     -10.243   3.871   2.055  0.00  0.00    +0.232 C 
ATOM     15  O   UNL     1      -8.902   4.186   2.434  0.00  0.00    -0.488 OA
ENDBRANCH   4   5
BRANCH   4  17
ATOM     16  C   UNL     1      -6.625  -0.373  -1.039  0.00  0.00    +0.006 C 
ATOM     17  C   UNL     1      -5.322   0.421  -1.155  0.00  0.00    -0.027 C 
ATOM     18  C   UNL     1      -5.543   1.633  -2.063  0.00  0.00    +0.006 C 
ENDBRANCH   4  17
ENDBRANCH   1   4
BRANCH   1  19
ATOM     19  C   UNL     1      -2.473   0.763   0.133  0.00  0.00    +0.016 C 
BRANCH  19  20
ATOM     20  C   UNL     1      -1.211   1.579   0.018  0.00  0.00    +0.200 C 
ATOM     21  O   UNL     1      -1.276   2.787  -0.066  0.00  0.00    -0.278 OA
ATOM     22  N   UNL     1      -0.011   0.966   0.007  0.00  0.00    -0.287 N 
ATOM     23  H   UNL     1       0.039  -0.003   0.007  0.00  0.00    +0.155 HD
BRANCH  22  24
ATOM     24  C   UNL     1       1.164   1.728  -0.009  0.00  0.00    +0.035 A 
ATOM     25  C   UNL     1       2.288   1.284   0.679  0.00  0.00    +0.025 A 
ATOM     26  C   UNL     1       3.451   2.028   0.663  0.00  0.00    +0.029 A 
ATOM     27  C   UNL     1       3.496   3.227  -0.032  0.00  0.00    +0.067 A 
ATOM     28  C   UNL     1       2.367   3.678  -0.719  0.00  0.00    +0.069 A 
ATOM     29  C   UNL     1       1.203   2.926  -0.705  0.00  0.00    +0.051 A 
ATOM     30  N   UNL     1       2.713   4.891  -1.310  0.00  0.00    -0.306 N 
ATOM     31  H   UNL     1       2.131   5.444  -1.854  0.00  0.00    +0.170 HD
ATOM     32  C   UNL     1       3.994   5.166  -0.997  0.00  0.00    +0.325 A 
ATOM     33  O   UNL     1       4.606   6.154  -1.357  0.00  0.00    -0.247 OA
ATOM     34  N   UNL     1       4.494   4.181  -0.227  0.00  0.00    -0.306 N 
ATOM     35  H   UNL     1       5.395   4.142   0.130  0.00  0.00    +0.170 HD
ENDBRANCH  22  24
ENDBRANCH  19  20
ENDBRANCH   1  19
TORSDOF 6
