REMARK  Name = ZINC20912711
REMARK  8 active torsions:
REMARK  status: ('A' for Active; 'I' for Inactive)
REMARK    1  A    between atoms: C_10  and  C_11
REMARK    2  A    between atoms: N_12  and  N_13
REMARK    3  A    between atoms: C_17  and  S_20
REMARK    4  A    between atoms: N_18  and  N_19
REMARK    5  A    between atoms: S_20  and  C_21
REMARK    6  A    between atoms: C_21  and  C_22
REMARK    7  A    between atoms: C_22  and  C_23
REMARK    8  A    between atoms: N_25  and  C_26
REMARK                            x       y       z     vdW  Elec       q    Type
REMARK                         _______ _______ _______ _____ _____    ______ ____
ROOT
ATOM      1  N   UNL     1      -0.239   0.187  -0.062  0.00  0.00    -0.204 N 
ATOM      2  C   UNL     1      -1.530  -0.318  -0.074  0.00  0.00    +0.254 A 
ATOM      3  N   UNL     1      -2.635   0.389  -0.069  0.00  0.00    -0.109 NA
ATOM      4  N   UNL     1      -3.718  -0.499  -0.088  0.00  0.00    -0.119 NA
ATOM      5  C   UNL     1      -3.240  -1.721  -0.096  0.00  0.00    +0.210 A 
ATOM      6  N   UNL     1      -1.876  -1.641  -0.088  0.00  0.00    -0.211 N 
ATOM      7  H   UNL     1       0.621  -0.500  -0.063  0.00  0.00    +0.177 HD
ENDROOT
BRANCH   6   8
ATOM      8  N   UNL     1      -1.010  -2.697  -0.093  0.00  0.00    -0.294 N 
ATOM      9  H   UNL     1      -1.398  -3.726  -0.104  0.00  0.00    +0.163 HD
ATOM     10  H   UNL     1       0.075  -2.518  -0.086  0.00  0.00    +0.163 HD
ENDBRANCH   6   8
BRANCH   1  12
ATOM     11  C   UNL     1       1.183   2.045  -0.037  0.00  0.00    +0.139 C 
ATOM     12  N   UNL     1      -0.028   1.572  -0.049  0.00  0.00    -0.187 NA
BRANCH  11  22
ATOM     13  C   UNL     1      -1.808   6.230   0.338  0.00  0.00    +0.001 A 
ATOM     14  C   UNL     1      -2.058   4.860   0.328  0.00  0.00    +0.001 A 
ATOM     15  C   UNL     1      -1.038   3.963   0.213  0.00  0.00    +0.009 A 
ATOM     16  C   UNL     1       0.279   4.424   0.103  0.00  0.00    -0.009 A 
ATOM     17  C   UNL     1       0.537   5.817   0.112  0.00  0.00    -0.017 A 
ATOM     18  C   UNL     1      -0.539   6.713   0.232  0.00  0.00    +0.008 A 
ATOM     19  C   UNL     1       1.860   6.275   0.000  0.00  0.00    +0.008 A 
ATOM     20  C   UNL     1       2.893   5.395  -0.117  0.00  0.00    +0.001 A 
ATOM     21  C   UNL     1       2.688   4.023  -0.123  0.00  0.00    +0.010 A 
ATOM     22  C   UNL     1       1.404   3.499  -0.023  0.00  0.00    +0.002 A 
ENDBRANCH  11  22
ENDBRANCH   1  12
BRANCH   5  23
ATOM     23  S   UNL     1      -4.190  -3.204  -0.115  0.00  0.00    -0.084 S 
BRANCH  23  24
ATOM     24  C   UNL     1      -5.861  -2.508  -0.118  0.00  0.00    +0.086 C 
BRANCH  24  25
ATOM     25  C   UNL     1      -6.886  -3.643  -0.134  0.00  0.00    +0.107 C 
BRANCH  25  26
ATOM     26  C   UNL     1      -8.277  -3.063  -0.136  0.00  0.00    +0.218 C 
ATOM     27  O   UNL     1      -8.433  -1.860  -0.126  0.00  0.00    -0.275 OA
ATOM     28  N   UNL     1      -9.348  -3.881  -0.149  0.00  0.00    -0.285 N 
ATOM     29  H   UNL     1      -9.209  -4.968  -0.235  0.00  0.00    +0.155 HD
BRANCH  28  30
ATOM     30  C   UNL     1     -10.639  -3.346  -0.054  0.00  0.00    +0.033 A 
ATOM     31  C   UNL     1     -11.630  -4.039   0.627  0.00  0.00    +0.025 A 
ATOM     32  C   UNL     1     -12.901  -3.507   0.723  0.00  0.00    +0.022 A 
ATOM     33  C   UNL     1     -13.189  -2.289   0.133  0.00  0.00    +0.041 A 
ATOM     34  C   UNL     1     -12.204  -1.598  -0.551  0.00  0.00    +0.022 A 
ATOM     35  C   UNL     1     -10.930  -2.124  -0.646  0.00  0.00    +0.025 A 
ATOM     36 CL   UNL     1     -14.789  -1.625   0.250  0.00  0.00    -0.084 Cl
ENDBRANCH  28  30
ENDBRANCH  25  26
ENDBRANCH  24  25
ENDBRANCH  23  24
ENDBRANCH   5  23
TORSDOF 8
