REMARK  Name = ZINC01430164
REMARK  5 active torsions:
REMARK  status: ('A' for Active; 'I' for Inactive)
REMARK    1  A    between atoms: C_1  and  C_2
REMARK    2  A    between atoms: C_2  and  C_33
REMARK    3  A    between atoms: C_6  and  C_24
REMARK    4  A    between atoms: N_11  and  C_12
REMARK    5  A    between atoms: C_13  and  C_22
REMARK                            x       y       z     vdW  Elec       q    Type
REMARK                         _______ _______ _______ _____ _____    ______ ____
ROOT
ATOM      1  C   UNL     1      -0.714   1.420  -0.594  0.00  0.00    +0.011 C 
ATOM      2  C   UNL     1      -0.498  -0.087  -0.438  0.00  0.00    -0.023 C 
ATOM      3  C   UNL     1       0.383  -0.601  -1.578  0.00  0.00    +0.058 C 
ATOM      4  C   UNL     1       0.545  -2.095  -1.460  0.00  0.00    +0.027 C 
ATOM      5  C   UNL     1      -0.420  -2.857  -0.903  0.00  0.00    +0.020 C 
ATOM      6  C   UNL     1      -0.216  -4.351  -0.783  0.00  0.00    +0.063 C 
ATOM      7  C   UNL     1       1.259  -4.627  -0.479  0.00  0.00    +0.109 C 
ATOM      8  C   UNL     1       2.109  -3.870  -1.469  0.00  0.00    +0.225 C 
ATOM      9  O   UNL     1       3.164  -4.336  -1.845  0.00  0.00    -0.275 OA
ATOM     10  N   UNL     1       1.697  -2.677  -1.935  0.00  0.00    -0.236 N 
ATOM     11  C   UNL     1      -1.613  -2.293  -0.422  0.00  0.00    +0.162 C 
ATOM     12  O   UNL     1      -2.465  -3.013   0.059  0.00  0.00    -0.292 OA
ATOM     13  C   UNL     1      -1.849  -0.808  -0.495  0.00  0.00    +0.086 C 
ATOM     14  C   UNL     1       0.179  -0.372   0.904  0.00  0.00    +0.011 C 
ENDROOT
BRANCH  10  15
ATOM     15  C   UNL     1       2.444  -2.025  -2.909  0.00  0.00    +0.097 A 
ATOM     16  C   UNL     1       3.548  -1.206  -2.742  0.00  0.00    +0.084 A 
ATOM     17  C   UNL     1       4.160  -0.639  -3.935  0.00  0.00    -0.018 A 
ATOM     18  C   UNL     1       3.560  -0.978  -5.097  0.00  0.00    -0.004 A 
ATOM     19  S   UNL     1       2.225  -2.045  -4.627  0.00  0.00    -0.076 S 
ATOM     20  C   UNL     1       3.937  -0.550  -6.481  0.00  0.00    +0.043 C 
ATOM     21  C   UNL     1       5.445  -0.758  -6.681  0.00  0.00    +0.005 C 
ATOM     22  C   UNL     1       6.170   0.512  -6.247  0.00  0.00    +0.001 C 
ATOM     23  C   UNL     1       5.423   1.176  -5.091  0.00  0.00    +0.005 C 
ATOM     24  C   UNL     1       5.392   0.255  -3.877  0.00  0.00    +0.037 C 
BRANCH  16  25
ATOM     25  C   UNL     1       4.071  -0.926  -1.438  0.00  0.00    +0.102 C 
ATOM     26  N   UNL     1       4.485  -0.704  -0.404  0.00  0.00    -0.191 NA
ENDBRANCH  16  25
ENDBRANCH  10  15
BRANCH   6  27
ATOM     27  C   UNL     1      -0.598  -5.018  -2.079  0.00  0.00    -0.039 A 
ATOM     28  C   UNL     1       0.056  -4.681  -3.249  0.00  0.00    +0.004 A 
ATOM     29  C   UNL     1      -0.291  -5.296  -4.438  0.00  0.00    +0.000 A 
ATOM     30  C   UNL     1      -1.300  -6.241  -4.457  0.00  0.00    +0.000 A 
ATOM     31  C   UNL     1      -1.958  -6.574  -3.288  0.00  0.00    +0.000 A 
ATOM     32  C   UNL     1      -1.608  -5.962  -2.099  0.00  0.00    +0.004 A 
ENDBRANCH   6  27
TORSDOF 3
