REMARK  Name = ZINC22076823
REMARK  9 active torsions:
REMARK  status: ('A' for Active; 'I' for Inactive)
REMARK    1  A    between atoms: C_1  and  C_2
REMARK    2  A    between atoms: C_3  and  C_9
REMARK    3  A    between atoms: C_12  and  C_14
REMARK    4  A    between atoms: C_14  and  N_15
REMARK    5  A    between atoms: N_15  and  C_16
REMARK    6  A    between atoms: C_16  and  C_17
REMARK    7  A    between atoms: C_17  and  N_18
REMARK    8  A    between atoms: N_18  and  C_19
REMARK    9  A    between atoms: C_22  and  N_26
REMARK                            x       y       z     vdW  Elec       q    Type
REMARK                         _______ _______ _______ _____ _____    ______ ____
ROOT
ATOM      1  N   UNL     1       6.828  -2.627   2.291  0.00  0.00    +0.385 N 
ATOM      2  H   UNL     1       7.536  -1.879   1.906  0.00  0.00    -0.085 HD
ATOM      3  H   UNL     1       6.141  -2.149   3.005  0.00  0.00    -0.085 HD
ENDROOT
BRANCH   1   4
ATOM      4  C   UNL     1       6.057  -3.193   1.175  0.00  0.00    -0.007 C 
BRANCH   4   8
ATOM      5  C   UNL     1       3.696  -0.683  -0.038  0.00  0.00    +0.135 A 
ATOM      6  C   UNL     1       4.729  -0.446  -0.891  0.00  0.00    +0.050 A 
ATOM      7  C   UNL     1       5.752  -1.354  -0.551  0.00  0.00    +0.043 A 
ATOM      8  C   UNL     1       5.298  -2.092   0.481  0.00  0.00    +0.089 A 
ATOM      9  O   UNL     1       4.057  -1.680   0.791  0.00  0.00    -0.462 OA
BRANCH   5  12
ATOM     10  C   UNL     1       1.225  -2.187  -0.023  0.00  0.00    +0.046 C 
ATOM     11  C   UNL     1       1.205  -0.680  -0.014  0.00  0.00    -0.022 A 
ATOM     12  C   UNL     1       2.404   0.035  -0.021  0.00  0.00    +0.022 A 
ATOM     13  C   UNL     1       2.377   1.430  -0.013  0.00  0.00    +0.012 A 
ATOM     14  C   UNL     1       1.168   2.094   0.002  0.00  0.00    +0.002 A 
ATOM     15  C   UNL     1      -0.017   1.381   0.010  0.00  0.00    +0.020 A 
ATOM     16  C   UNL     1       0.002  -0.004   0.002  0.00  0.00    +0.045 A 
ATOM     17 CL   UNL     1      -1.490  -0.891   0.012  0.00  0.00    -0.083 Cl
ENDBRANCH   5  12
ENDBRANCH   4   8
ENDBRANCH   1   4
BRANCH   1  18
ATOM     18  C   UNL     1       7.583  -3.674   2.993  0.00  0.00    -0.063 C 
BRANCH  18  19
ATOM     19  C   UNL     1       8.370  -3.048   4.146  0.00  0.00    +0.082 C 
BRANCH  19  20
ATOM     20  N   UNL     1       9.124  -4.092   4.846  0.00  0.00    -0.345 N 
ATOM     21  H   UNL     1       9.059  -5.137   4.508  0.00  0.00    +0.146 HD
BRANCH  20  22
ATOM     22  C   UNL     1       9.924  -3.760   5.942  0.00  0.00    +0.046 A 
ATOM     23  C   UNL     1      10.006  -2.441   6.370  0.00  0.00    +0.026 A 
ATOM     24  C   UNL     1      10.798  -2.116   7.454  0.00  0.00    +0.034 A 
ATOM     25  C   UNL     1      11.508  -3.102   8.114  0.00  0.00    +0.128 A 
ATOM     26  C   UNL     1      11.429  -4.417   7.692  0.00  0.00    +0.054 A 
ATOM     27  C   UNL     1      10.634  -4.750   6.611  0.00  0.00    +0.064 A 
ATOM     28 CL   UNL     1      10.529  -6.401   6.086  0.00  0.00    -0.082 Cl
BRANCH  25  29
ATOM     29  N   UNL     1      12.355  -2.750   9.276  0.00  0.00    +0.056 N 
ATOM     30  O   UNL     1      12.426  -1.593   9.649  0.00  0.00    -0.126 OA
ATOM     31  O   UNL     1      12.982  -3.617   9.858  0.00  0.00    -0.126 OA
ENDBRANCH  25  29
ENDBRANCH  20  22
ENDBRANCH  19  20
ENDBRANCH  18  19
ENDBRANCH   1  18
TORSDOF 8
