REMARK  Name = ZINC38654554
REMARK  9 active torsions:
REMARK  status: ('A' for Active; 'I' for Inactive)
REMARK    1  A    between atoms: C_1  and  C_2
REMARK    2  A    between atoms: C_5  and  C_30
REMARK    3  A    between atoms: C_6  and  C_8
REMARK    4  A    between atoms: C_8  and  S_9
REMARK    5  A    between atoms: S_9  and  C_10
REMARK    6  A    between atoms: C_14  and  C_17
REMARK    7  A    between atoms: C_17  and  C_19
REMARK    8  A    between atoms: C_17  and  N_29
REMARK    9  A    between atoms: C_19  and  C_20
REMARK                            x       y       z     vdW  Elec       q    Type
REMARK                         _______ _______ _______ _____ _____    ______ ____
ROOT
ATOM      1  C   UNL     1      -1.272  -3.783   6.591  0.00  0.00    -0.017 C 
ENDROOT
BRANCH   1   5
ATOM      2  C   UNL     1       1.617  -4.041   4.561  0.00  0.00    +0.319 C 
ATOM      3  N   UNL     1       0.842  -5.271   4.357  0.00  0.00    -0.146 NA
ATOM      4  N   UNL     1       0.017  -5.411   5.270  0.00  0.00    -0.159 NA
ATOM      5  C   UNL     1       0.121  -4.294   6.218  0.00  0.00    +0.246 C 
ATOM      6  O   UNL     1       0.864  -3.271   5.521  0.00  0.00    -0.320 OA
BRANCH   2   7
ATOM      7  S   UNL     1       1.770  -3.127   3.002  0.00  0.00    -0.100 S 
BRANCH   7   8
ATOM      8  C   UNL     1       0.054  -2.845   2.489  0.00  0.00    +0.109 C 
BRANCH   8  14
ATOM      9  C   UNL     1      -0.018   1.503   0.010  0.00  0.00    +0.044 C 
ATOM     10  C   UNL     1       0.002  -0.004   0.002  0.00  0.00    -0.050 A 
ATOM     11  C   UNL     1       0.006  -0.689  -1.199  0.00  0.00    +0.003 A 
ATOM     12  C   UNL     1       0.025  -2.071  -1.207  0.00  0.00    +0.004 A 
ATOM     13  C   UNL     1       0.040  -2.768  -0.013  0.00  0.00    -0.046 A 
ATOM     14  C   UNL     1       0.037  -2.084   1.188  0.00  0.00    -0.034 A 
ATOM     15  C   UNL     1       0.023  -0.702   1.195  0.00  0.00    +0.008 A 
ATOM     16  C   UNL     1       0.059  -4.275  -0.021  0.00  0.00    +0.044 C 
ENDBRANCH   8  14
ENDBRANCH   7   8
ENDBRANCH   2   7
ENDBRANCH   1   5
BRANCH   1  17
ATOM     17  N   UNL     1      -1.977  -3.353   5.375  0.00  0.00    +0.383 N 
ATOM     18  H   UNL     1      -2.063  -4.135   4.743  0.00  0.00    -0.089 HD
ATOM     19  H   UNL     1      -2.896  -3.016   5.621  0.00  0.00    -0.089 HD
ATOM     20  H   UNL     1      -1.456  -2.614   4.928  0.00  0.00    -0.089 HD
ENDBRANCH   1  17
BRANCH   1  21
ATOM     21  C   UNL     1      -2.062  -4.903   7.269  0.00  0.00    +0.025 C 
BRANCH  21  22
ATOM     22  C   UNL     1      -3.387  -4.366   7.745  0.00  0.00    -0.024 A 
ATOM     23  C   UNL     1      -4.614  -4.245   6.954  0.00  0.00    +0.003 A 
ATOM     24  C   UNL     1      -4.950  -4.549   5.633  0.00  0.00    +0.010 A 
ATOM     25  C   UNL     1      -6.219  -4.311   5.185  0.00  0.00    +0.001 A 
ATOM     26  C   UNL     1      -7.176  -3.770   6.032  0.00  0.00    +0.002 A 
ATOM     27  C   UNL     1      -6.866  -3.462   7.338  0.00  0.00    +0.026 A 
ATOM     28  C   UNL     1      -5.581  -3.696   7.816  0.00  0.00    +0.047 A 
ATOM     29  N   UNL     1      -4.973  -3.504   9.037  0.00  0.00    -0.360 N 
ATOM     30  C   UNL     1      -3.669  -3.914   8.977  0.00  0.00    +0.087 A 
ATOM     31  H   UNL     1      -5.407  -3.136   9.823  0.00  0.00    +0.165 HD
ENDBRANCH  21  22
ENDBRANCH   1  21
TORSDOF 7
