REMARK  Name = ZINC13189410
REMARK  11 active torsions:
REMARK  status: ('A' for Active; 'I' for Inactive)
REMARK    1  A    between atoms: C_1  and  C_2
REMARK    2  A    between atoms: C_2  and  O_3
REMARK    3  A    between atoms: O_3  and  C_4
REMARK    4  A    between atoms: C_4  and  C_6
REMARK    5  A    between atoms: C_7  and  C_24
REMARK    6  A    between atoms: C_10  and  N_11
REMARK    7  A    between atoms: C_12  and  C_14
REMARK    8  A    between atoms: C_14  and  S_15
REMARK    9  A    between atoms: S_15  and  C_16
REMARK   10  A    between atoms: C_21  and  C_22
REMARK   11  A    between atoms: C_27  and  C_29
REMARK                            x       y       z     vdW  Elec       q    Type
REMARK                         _______ _______ _______ _____ _____    ______ ____
ROOT
ATOM      1  C   UNL     1      -2.978   8.509   0.068  0.00  0.00    +0.098 A 
ATOM      2  C   UNL     1      -4.268   9.176   0.072  0.00  0.00    +0.040 A 
ATOM      3  C   UNL     1      -5.368   8.377   0.073  0.00  0.00    +0.059 A 
ATOM      4  S   UNL     1      -4.681   6.734   0.061  0.00  0.00    -0.080 S 
ATOM      5  C   UNL     1      -2.994   7.120   0.055  0.00  0.00    +0.086 A 
ENDROOT
BRANCH   2   6
ATOM      6  C   UNL     1      -4.378  10.649   0.080  0.00  0.00    +0.137 A 
ATOM      7  C   UNL     1      -5.148  11.396  -0.755  0.00  0.00    +0.050 A 
ATOM      8  C   UNL     1      -4.950  12.744  -0.394  0.00  0.00    +0.045 A 
ATOM      9  C   UNL     1      -4.079  12.753   0.633  0.00  0.00    +0.103 A 
ATOM     10  O   UNL     1      -3.739  11.485   0.921  0.00  0.00    -0.460 OA
ATOM     11  C   UNL     1      -3.573  13.981   1.346  0.00  0.00    +0.086 C 
ENDBRANCH   2   6
BRANCH   5  12
ATOM     12  N   UNL     1      -1.915   6.250   0.045  0.00  0.00    -0.279 N 
ATOM     13  C   UNL     1      -2.123   4.919   0.039  0.00  0.00    +0.228 C 
ATOM     14  O   UNL     1      -3.255   4.482   0.042  0.00  0.00    -0.275 OA
ATOM     15  H   UNL     1      -1.010   6.600   0.043  0.00  0.00    +0.155 HD
BRANCH  13  16
ATOM     16  C   UNL     1      -0.950   3.973   0.028  0.00  0.00    +0.170 C 
BRANCH  16  17
ATOM     17  S   UNL     1      -1.552   2.266   0.022  0.00  0.00    -0.115 S 
BRANCH  17  18
ATOM     18  C   UNL     1      -0.017   1.401   0.010  0.00  0.00    +0.022 A 
ATOM     19  C   UNL     1       1.182   2.104   0.002  0.00  0.00    +0.015 A 
ATOM     20  C   UNL     1       2.382   1.425  -0.013  0.00  0.00    +0.001 A 
ATOM     21  C   UNL     1       2.404   0.038  -0.021  0.00  0.00    +0.001 A 
ATOM     22  C   UNL     1       1.227  -0.677  -0.013  0.00  0.00    +0.016 A 
ATOM     23  C   UNL     1       0.002  -0.004   0.002  0.00  0.00    +0.077 A 
BRANCH  23  24
ATOM     24  C   UNL     1      -1.260  -0.762   0.009  0.00  0.00    +0.388 C 
ATOM     25  O   UNL     1      -2.323  -0.173   0.022  0.00  0.00    -0.241 OA
ATOM     26  O   UNL     1      -1.236  -2.110   0.002  0.00  0.00    -0.241 OA
ENDBRANCH  23  24
ENDBRANCH  17  18
ENDBRANCH  16  17
ENDBRANCH  13  16
ENDBRANCH   5  12
BRANCH   1  27
ATOM     27  C   UNL     1      -1.725   9.262   0.074  0.00  0.00    +0.342 C 
ATOM     28  O   UNL     1      -1.205   9.585  -0.977  0.00  0.00    -0.245 OA
BRANCH  27  29
ATOM     29  O   UNL     1      -1.145   9.597   1.245  0.00  0.00    -0.461 OA
BRANCH  29  31
ATOM     30  C   UNL     1       0.582  10.620   2.591  0.00  0.00    +0.048 C 
ATOM     31  C   UNL     1       0.078  10.333   1.175  0.00  0.00    +0.229 C 
ENDBRANCH  29  31
ENDBRANCH  27  29
ENDBRANCH   1  27
TORSDOF 9
