REMARK  Name = ZINC22289627
REMARK  6 active torsions:
REMARK  status: ('A' for Active; 'I' for Inactive)
REMARK    1  A    between atoms: C_4  and  C_7
REMARK    2  A    between atoms: C_7  and  C_9
REMARK    3  A    between atoms: C_7  and  S_24
REMARK    4  A    between atoms: C_14  and  C_17
REMARK    5  A    between atoms: C_17  and  N_18
REMARK    6  A    between atoms: S_24  and  C_25
REMARK                            x       y       z     vdW  Elec       q    Type
REMARK                         _______ _______ _______ _____ _____    ______ ____
ROOT
ATOM      1  C   UNL     1       3.816  -1.579   1.188  0.00  0.00    +0.236 C 
ATOM      2  O   UNL     1       3.579  -2.765   1.109  0.00  0.00    -0.274 OA
ATOM      3  N   UNL     1       4.172  -1.039   2.370  0.00  0.00    -0.263 N 
ATOM      4  C   UNL     1       4.268  -1.842   3.500  0.00  0.00    +0.165 A 
ATOM      5  N   UNL     1       4.593  -1.493   4.726  0.00  0.00    -0.231 NA
ATOM      6  C   UNL     1       4.640  -2.384   5.699  0.00  0.00    +0.034 A 
ATOM      7  C   UNL     1       4.340  -3.666   5.376  0.00  0.00    +0.070 A 
ATOM      8  S   UNL     1       3.990  -3.497   3.633  0.00  0.00    -0.060 S 
ATOM      9  H   UNL     1       4.361  -0.089   2.433  0.00  0.00    +0.157 HD
ENDROOT
BRANCH   1  10
ATOM     10  C   UNL     1       3.711  -0.707  -0.038  0.00  0.00    +0.167 C 
BRANCH  10  14
ATOM     11  C   UNL     1      -0.017   1.378   0.010  0.00  0.00    +0.000 A 
ATOM     12  C   UNL     1       1.171   2.086   0.002  0.00  0.00    +0.000 A 
ATOM     13  C   UNL     1       2.377   1.411  -0.013  0.00  0.00    +0.005 A 
ATOM     14  C   UNL     1       2.396   0.029  -0.020  0.00  0.00    -0.025 A 
ATOM     15  C   UNL     1       1.208  -0.679  -0.012  0.00  0.00    +0.005 A 
ATOM     16  C   UNL     1       0.002  -0.004   0.002  0.00  0.00    +0.000 A 
ENDBRANCH  10  14
BRANCH  10  17
ATOM     17  S   UNL     1       3.806  -1.741  -1.525  0.00  0.00    -0.108 S 
BRANCH  17  18
ATOM     18  C   UNL     1       3.820  -0.581  -2.851  0.00  0.00    +0.009 A 
ATOM     19  C   UNL     1       3.768   0.782  -2.584  0.00  0.00    +0.015 A 
ATOM     20  C   UNL     1       3.779   1.689  -3.626  0.00  0.00    +0.001 A 
ATOM     21  C   UNL     1       3.841   1.242  -4.933  0.00  0.00    +0.000 A 
ATOM     22  C   UNL     1       3.892  -0.114  -5.202  0.00  0.00    +0.001 A 
ATOM     23  C   UNL     1       3.887  -1.026  -4.165  0.00  0.00    +0.015 A 
ENDBRANCH  17  18
ENDBRANCH  10  17
ENDBRANCH   1  10
BRANCH   6  24
ATOM     24  C   UNL     1       5.011  -1.994   7.106  0.00  0.00    -0.022 C 
BRANCH  24  25
ATOM     25  N   UNL     1       6.474  -1.991   7.244  0.00  0.00    +0.383 N 
ATOM     26  C   UNL     1       6.983  -3.356   7.064  0.00  0.00    -0.078 C 
ATOM     27  C   UNL     1       8.512  -3.347   7.126  0.00  0.00    -0.019 C 
ATOM     28  C   UNL     1       8.959  -2.809   8.489  0.00  0.00    -0.004 C 
ATOM     29  C   UNL     1       8.361  -1.415   8.697  0.00  0.00    -0.019 C 
ATOM     30  C   UNL     1       6.838  -1.496   8.577  0.00  0.00    -0.078 C 
ATOM     31  H   UNL     1       6.876  -1.389   6.542  0.00  0.00    -0.081 HD
ENDBRANCH  24  25
ENDBRANCH   6  24
TORSDOF 6
