REMARK  Name = ZINC11818504
REMARK  11 active torsions:
REMARK  status: ('A' for Active; 'I' for Inactive)
REMARK    1  A    between atoms: N_9  and  C_10
REMARK    2  A    between atoms: C_10  and  C_11
REMARK    3  A    between atoms: C_11  and  N_61
REMARK    4  A    between atoms: C_12  and  C_13
REMARK    5  A    between atoms: C_12  and  N_61
REMARK    6  A    between atoms: C_16  and  O_19
REMARK    7  A    between atoms: O_19  and  C_20
REMARK    8  A    between atoms: C_20  and  C_21
REMARK    9  A    between atoms: C_21  and  C_23
REMARK   10  A    between atoms: C_21  and  O_29
REMARK   11  A    between atoms: C_23  and  N_64
REMARK                            x       y       z     vdW  Elec       q    Type
REMARK                         _______ _______ _______ _____ _____    ______ ____
ROOT
ATOM      1  C   UNL     1       1.168   2.085   0.008  0.00  0.00    -0.064 A 
ATOM      2  C   UNL     1      -0.018   1.375   0.042  0.00  0.00    +0.005 A 
ATOM      3  C   UNL     1       0.002  -0.006   0.042  0.00  0.00    +0.046 A 
ATOM      4  C   UNL     1       1.213  -0.681   0.008  0.00  0.00    +0.121 A 
ATOM      5  C   UNL     1       2.402   0.033  -0.026  0.00  0.00    +0.046 A 
ATOM      6  C   UNL     1       2.376   1.414  -0.026  0.00  0.00    +0.005 A 
ENDROOT
BRANCH   1   7
ATOM      7  C   UNL     1       1.143   3.591   0.008  0.00  0.00    -0.047 C 
BRANCH   7   8
ATOM      8  N   UNL     1       1.174   4.076   1.401  0.00  0.00    +0.383 N 
ATOM      9  H   UNL     1       0.355   3.713   1.904  0.00  0.00    -0.085 HD
ATOM     10  H   UNL     1       2.031   3.741   1.857  0.00  0.00    -0.085 HD
BRANCH   8  11
ATOM     11  C   UNL     1       1.151   5.550   1.431  0.00  0.00    -0.060 C 
BRANCH  11  12
ATOM     12  C   UNL     1       1.184   6.022   2.886  0.00  0.00    +0.103 C 
BRANCH  12  21
ATOM     13  C   UNL     1      -1.844  10.315   2.826  0.00  0.00    +0.001 A 
ATOM     14  C   UNL     1      -2.255   8.990   2.764  0.00  0.00    +0.002 A 
ATOM     15  C   UNL     1      -1.333   7.967   2.791  0.00  0.00    +0.026 A 
ATOM     16  C   UNL     1       0.024   8.261   2.880  0.00  0.00    +0.049 A 
ATOM     17  C   UNL     1       0.435   9.605   2.942  0.00  0.00    -0.000 A 
ATOM     18  C   UNL     1      -0.517  10.627   2.913  0.00  0.00    +0.010 A 
ATOM     19  C   UNL     1       1.897   9.578   3.027  0.00  0.00    +0.027 A 
ATOM     20  C   UNL     1       2.267   8.288   3.018  0.00  0.00    +0.087 A 
ATOM     21  N   UNL     1       1.161   7.487   2.925  0.00  0.00    -0.348 N 
ENDBRANCH  12  21
ENDBRANCH  11  12
ENDBRANCH   8  11
ENDBRANCH   7   8
ENDBRANCH   1   7
BRANCH   4  22
ATOM     22  O   UNL     1       1.235  -2.040   0.009  0.00  0.00    -0.489 OA
BRANCH  22  23
ATOM     23  C   UNL     1       2.518  -2.668  -0.027  0.00  0.00    +0.258 C 
BRANCH  23  24
ATOM     24  C   UNL     1       2.343  -4.188  -0.021  0.00  0.00    +0.135 C 
BRANCH  24  25
ATOM     25  O   UNL     1       1.757  -4.595   1.218  0.00  0.00    -0.390 OA
ATOM     26  H   UNL     1       2.284  -4.365   1.996  0.00  0.00    +0.210 HD
ENDBRANCH  24  25
BRANCH  24  27
ATOM     27  C   UNL     1       3.708  -4.859  -0.184  0.00  0.00    -0.044 C 
BRANCH  27  33
ATOM     28  C   UNL     1       4.800  -6.997   0.131  0.00  0.00    -0.079 C 
ATOM     29  C   UNL     1       4.554  -8.502   0.259  0.00  0.00    -0.019 C 
ATOM     30  C   UNL     1       3.988  -9.035  -1.060  0.00  0.00    -0.004 C 
ATOM     31  C   UNL     1       2.699  -8.279  -1.395  0.00  0.00    -0.019 C 
ATOM     32  C   UNL     1       2.999  -6.781  -1.476  0.00  0.00    -0.079 C 
ATOM     33  N   UNL     1       3.518  -6.325  -0.169  0.00  0.00    +0.381 N 
ATOM     34  H   UNL     1       2.838  -6.565   0.562  0.00  0.00    -0.082 HD
ENDBRANCH  27  33
ENDBRANCH  24  27
ENDBRANCH  23  24
ENDBRANCH  22  23
ENDBRANCH   4  22
TORSDOF 11
