REMARK  Name = ZINC01834640
REMARK  7 active torsions:
REMARK  status: ('A' for Active; 'I' for Inactive)
REMARK    1  A    between atoms: C_6  and  C_7
REMARK    2  A    between atoms: N_8  and  N_9
REMARK    3  A    between atoms: C_10  and  C_12
REMARK    4  A    between atoms: C_12  and  S_13
REMARK    5  A    between atoms: S_13  and  C_14
REMARK    6  A    between atoms: C_17  and  C_26
REMARK    7  A    between atoms: N_18  and  C_19
REMARK                            x       y       z     vdW  Elec       q    Type
REMARK                         _______ _______ _______ _____ _____    ______ ____
ROOT
ATOM      1  C   UNL     1      -4.946  -7.436   0.011  0.00  0.00    +0.197 A 
ATOM      2  N   UNL     1      -6.105  -6.816   0.020  0.00  0.00    -0.122 NA
ATOM      3  N   UNL     1      -7.064  -7.671   0.027  0.00  0.00    -0.128 NA
ATOM      4  C   UNL     1      -6.579  -8.891   0.023  0.00  0.00    +0.169 A 
ATOM      5  N   UNL     1      -5.206  -8.780   0.007  0.00  0.00    -0.270 N 
ENDROOT
BRANCH   5   6
ATOM      6  C   UNL     1      -4.271  -9.824  -0.008  0.00  0.00    +0.051 A 
ATOM      7  C   UNL     1      -4.192 -10.671  -1.105  0.00  0.00    +0.028 A 
ATOM      8  C   UNL     1      -3.269 -11.699  -1.118  0.00  0.00    +0.022 A 
ATOM      9  C   UNL     1      -2.424 -11.885  -0.038  0.00  0.00    +0.041 A 
ATOM     10  C   UNL     1      -2.501 -11.042   1.057  0.00  0.00    +0.022 A 
ATOM     11  C   UNL     1      -3.418 -10.009   1.072  0.00  0.00    +0.028 A 
ATOM     12 CL   UNL     1      -1.266 -13.177  -0.057  0.00  0.00    -0.084 Cl
ENDBRANCH   5   6
BRANCH   4  13
ATOM     13  C   UNL     1      -7.359 -10.147   0.029  0.00  0.00    +0.020 A 
ATOM     14  C   UNL     1      -6.737 -11.356   0.342  0.00  0.00    +0.013 A 
ATOM     15  C   UNL     1      -7.470 -12.525   0.346  0.00  0.00    +0.021 A 
ATOM     16  C   UNL     1      -8.820 -12.500   0.040  0.00  0.00    +0.041 A 
ATOM     17  C   UNL     1      -9.443 -11.303  -0.272  0.00  0.00    +0.021 A 
ATOM     18  C   UNL     1      -8.722 -10.127  -0.273  0.00  0.00    +0.013 A 
ATOM     19 CL   UNL     1      -9.736 -13.975   0.047  0.00  0.00    -0.084 Cl
ENDBRANCH   4  13
BRANCH   1  20
ATOM     20  S   UNL     1      -3.355  -6.679  -0.001  0.00  0.00    -0.076 S 
BRANCH  20  21
ATOM     21  C   UNL     1      -3.715  -4.901   0.013  0.00  0.00    +0.174 C 
BRANCH  21  23
ATOM     22  N   UNL     1      -2.444  -2.779   0.011  0.00  0.00    -0.206 N 
ATOM     23  C   UNL     1      -2.422  -4.127   0.004  0.00  0.00    +0.242 C 
ATOM     24  O   UNL     1      -1.362  -4.716  -0.010  0.00  0.00    -0.273 OA
ATOM     25  H   UNL     1      -3.292  -2.308   0.022  0.00  0.00    +0.177 HD
BRANCH  22  27
ATOM     26  C   UNL     1      -1.263  -0.762   0.011  0.00  0.00    +0.138 C 
ATOM     27  N   UNL     1      -1.242  -2.059   0.003  0.00  0.00    -0.188 NA
BRANCH  26  33
ATOM     28  C   UNL     1      -0.017   1.393   0.010  0.00  0.00    +0.011 A 
ATOM     29  C   UNL     1       1.170   2.095   0.002  0.00  0.00    +0.020 A 
ATOM     30  C   UNL     1       2.378   1.419  -0.013  0.00  0.00    +0.041 A 
ATOM     31  C   UNL     1       2.404   0.035  -0.021  0.00  0.00    +0.020 A 
ATOM     32  C   UNL     1       1.225  -0.680  -0.013  0.00  0.00    +0.011 A 
ATOM     33  C   UNL     1       0.002  -0.004   0.002  0.00  0.00    -0.005 A 
ATOM     34 CL   UNL     1       3.868   2.311  -0.024  0.00  0.00    -0.084 Cl
ENDBRANCH  26  33
ENDBRANCH  22  27
ENDBRANCH  21  23
ENDBRANCH  20  21
ENDBRANCH   1  20
TORSDOF 7
