REMARK  Name = ZINC16033017
REMARK  7 active torsions:
REMARK  status: ('A' for Active; 'I' for Inactive)
REMARK    1  A    between atoms: C_1  and  C_2
REMARK    2  A    between atoms: C_2  and  C_3
REMARK    3  A    between atoms: C_17  and  C_20
REMARK    4  A    between atoms: C_20  and  C_21
REMARK    5  A    between atoms: N_26  and  C_29
REMARK    6  A    between atoms: C_29  and  C_30
REMARK    7  A    between atoms: C_30  and  C_31
REMARK                            x       y       z     vdW  Elec       q    Type
REMARK                         _______ _______ _______ _____ _____    ______ ____
ROOT
ATOM      1  C   UNL     1       0.731  -0.503   1.223  0.00  0.00    -0.026 A 
ATOM      2  C   UNL     1       2.075  -0.807   1.145  0.00  0.00    +0.005 A 
ATOM      3  C   UNL     1       2.752  -1.265   2.260  0.00  0.00    +0.001 A 
ATOM      4  C   UNL     1       2.079  -1.419   3.460  0.00  0.00    +0.008 A 
ATOM      5  C   UNL     1       0.739  -1.117   3.542  0.00  0.00    +0.004 A 
ATOM      6  C   UNL     1       0.048  -0.651   2.427  0.00  0.00    +0.042 A 
ATOM      7  N   UNL     1      -1.290  -0.412   2.753  0.00  0.00    -0.283 N 
ATOM      8  C   UNL     1      -1.555  -0.689   4.044  0.00  0.00    +0.243 C 
ATOM      9  O   UNL     1      -2.626  -0.581   4.603  0.00  0.00    -0.273 OA
ATOM     10  C   UNL     1      -0.267  -1.168   4.657  0.00  0.00    +0.136 C 
ATOM     11  C   UNL     1      -0.397  -2.582   5.236  0.00  0.00    +0.122 C 
ATOM     12  C   UNL     1      -0.643  -2.361   6.755  0.00  0.00    +0.107 C 
ATOM     13  C   UNL     1      -0.637  -0.828   6.938  0.00  0.00    +0.076 C 
ATOM     14  N   UNL     1       0.129  -0.304   5.784  0.00  0.00    -0.295 NA
ATOM     15  C   UNL     1      -2.043  -2.894   6.961  0.00  0.00    +0.227 C 
ATOM     16  O   UNL     1      -2.636  -2.915   8.018  0.00  0.00    -0.275 OA
ATOM     17  N   UNL     1      -2.525  -3.341   5.796  0.00  0.00    -0.241 N 
ATOM     18  C   UNL     1      -1.678  -3.219   4.749  0.00  0.00    +0.228 C 
ATOM     19  O   UNL     1      -1.901  -3.559   3.607  0.00  0.00    -0.275 OA
ATOM     20  H   UNL     1      -1.950  -0.086   2.123  0.00  0.00    +0.155 HD
ATOM     21  H   UNL     1       1.121  -0.371   5.961  0.00  0.00    +0.124 HD
ENDROOT
BRANCH   1  23
ATOM     22  C   UNL     1      -0.019   1.526   0.010  0.00  0.00    +0.009 C 
ATOM     23  C   UNL     1       0.002  -0.004   0.002  0.00  0.00    +0.033 C 
ENDBRANCH   1  23
BRANCH  13  24
ATOM     24  C   UNL     1       0.034  -0.453   8.261  0.00  0.00    +0.115 C 
BRANCH  24  25
ATOM     25  C   UNL     1      -0.080   1.034   8.477  0.00  0.00    +0.212 C 
ATOM     26  O   UNL     1      -0.642   1.726   7.654  0.00  0.00    -0.276 OA
ATOM     27  N   UNL     1       0.443   1.596   9.585  0.00  0.00    -0.329 N 
ATOM     28  H   UNL     1       0.893   1.043  10.243  0.00  0.00    +0.145 HD
ATOM     29  H   UNL     1       0.370   2.553   9.725  0.00  0.00    +0.145 HD
ENDBRANCH  24  25
ENDBRANCH  13  24
BRANCH  17  30
ATOM     30  C   UNL     1      -3.864  -3.922   5.663  0.00  0.00    +0.121 C 
BRANCH  30  31
ATOM     31  C   UNL     1      -4.870  -2.816   5.339  0.00  0.00    +0.054 C 
BRANCH  31  32
ATOM     32  C   UNL     1      -6.247  -3.413   5.202  0.00  0.00    -0.046 A 
ATOM     33  C   UNL     1      -6.686  -3.862   3.971  0.00  0.00    +0.004 A 
ATOM     34  C   UNL     1      -7.949  -4.411   3.845  0.00  0.00    +0.000 A 
ATOM     35  C   UNL     1      -8.772  -4.510   4.951  0.00  0.00    +0.000 A 
ATOM     36  C   UNL     1      -8.332  -4.062   6.183  0.00  0.00    +0.000 A 
ATOM     37  C   UNL     1      -7.068  -3.518   6.309  0.00  0.00    +0.004 A 
ENDBRANCH  31  32
ENDBRANCH  30  31
ENDBRANCH  17  30
TORSDOF 6
