REMARK  Name = ZINC06190610
REMARK  12 active torsions:
REMARK  status: ('A' for Active; 'I' for Inactive)
REMARK    1  A    between atoms: C_1  and  C_2
REMARK    2  A    between atoms: C_2  and  C_3
REMARK    3  A    between atoms: C_2  and  C_4
REMARK    4  A    between atoms: C_4  and  C_6
REMARK    5  A    between atoms: C_4  and  N_23
REMARK    6  A    between atoms: N_8  and  N_9
REMARK    7  A    between atoms: C_10  and  C_11
REMARK    8  A    between atoms: C_20  and  O_21
REMARK    9  A    between atoms: O_21  and  C_22
REMARK   10  A    between atoms: C_24  and  C_26
REMARK   11  A    between atoms: C_26  and  C_27
REMARK   12  A    between atoms: C_26  and  C_33
REMARK                            x       y       z     vdW  Elec       q    Type
REMARK                         _______ _______ _______ _____ _____    ______ ____
ROOT
ATOM      1  C   UNL     1      -4.794   3.932   0.338  0.00  0.00    +0.163 C 
ENDROOT
BRANCH   1   2
ATOM      2  C   UNL     1      -3.461   3.334   0.708  0.00  0.00    +0.253 C 
ATOM      3  O   UNL     1      -2.435   3.871   0.349  0.00  0.00    -0.272 OA
ATOM      4  N   UNL     1      -3.410   2.203   1.439  0.00  0.00    -0.205 N 
ATOM      5  H   UNL     1      -4.227   1.811   1.785  0.00  0.00    +0.177 HD
BRANCH   4   6
ATOM      6  N   UNL     1      -2.176   1.592   1.699  0.00  0.00    -0.188 NA
ATOM      7  C   UNL     1      -2.126   0.501   2.404  0.00  0.00    +0.142 C 
BRANCH   7   8
ATOM      8  C   UNL     1      -0.832  -0.139   2.677  0.00  0.00    +0.044 A 
ATOM      9  C   UNL     1      -0.758  -1.369   3.463  0.00  0.00    -0.006 A 
ATOM     10  C   UNL     1      -1.909  -1.975   3.981  0.00  0.00    +0.009 A 
ATOM     11  C   UNL     1      -1.797  -3.118   4.715  0.00  0.00    +0.001 A 
ATOM     12  C   UNL     1      -0.551  -3.692   4.958  0.00  0.00    +0.001 A 
ATOM     13  C   UNL     1       0.588  -3.129   4.469  0.00  0.00    +0.008 A 
ATOM     14  C   UNL     1       0.510  -1.950   3.708  0.00  0.00    -0.017 A 
ATOM     15  C   UNL     1       1.664  -1.339   3.188  0.00  0.00    +0.012 A 
ATOM     16  C   UNL     1       1.577  -0.199   2.454  0.00  0.00    +0.047 A 
ATOM     17  C   UNL     1       0.352   0.411   2.187  0.00  0.00    +0.129 A 
BRANCH  17  18
ATOM     18  O   UNL     1       0.312   1.550   1.449  0.00  0.00    -0.494 OA
ATOM     19  C   UNL     1       1.561   2.064   0.982  0.00  0.00    +0.277 C 
ENDBRANCH  17  18
ENDBRANCH   7   8
ENDBRANCH   4   6
ENDBRANCH   1   2
BRANCH   1  20
ATOM     20  N   UNL     1      -4.648   5.378   0.160  0.00  0.00    -0.303 N 
ATOM     21  C   UNL     1      -5.713   6.189   0.325  0.00  0.00    +0.225 C 
ATOM     22  O   UNL     1      -6.791   5.720   0.621  0.00  0.00    -0.275 OA
ATOM     23  H   UNL     1      -3.785   5.753  -0.077  0.00  0.00    +0.149 HD
BRANCH  21  24
ATOM     24  C   UNL     1      -5.562   7.677   0.142  0.00  0.00    +0.135 C 
BRANCH  24  25
ATOM     25  C   UNL     1      -6.890   8.349   0.382  0.00  0.00    -0.031 A 
ATOM     26  C   UNL     1      -7.576   8.123   1.561  0.00  0.00    +0.005 A 
ATOM     27  C   UNL     1      -8.791   8.744   1.783  0.00  0.00    +0.000 A 
ATOM     28  C   UNL     1      -9.325   9.582   0.822  0.00  0.00    +0.000 A 
ATOM     29  C   UNL     1      -8.642   9.803  -0.359  0.00  0.00    +0.000 A 
ATOM     30  C   UNL     1      -7.424   9.186  -0.579  0.00  0.00    +0.005 A 
ENDBRANCH  24  25
BRANCH  24  31
ATOM     31  C   UNL     1      -4.548   8.204   1.125  0.00  0.00    -0.031 A 
ATOM     32  C   UNL     1      -4.684   7.929   2.473  0.00  0.00    +0.005 A 
ATOM     33  C   UNL     1      -3.750   8.408   3.373  0.00  0.00    +0.000 A 
ATOM     34  C   UNL     1      -2.687   9.171   2.926  0.00  0.00    +0.000 A 
ATOM     35  C   UNL     1      -2.555   9.450   1.579  0.00  0.00    +0.000 A 
ATOM     36  C   UNL     1      -3.485   8.966   0.678  0.00  0.00    +0.005 A 
ENDBRANCH  24  31
ENDBRANCH  21  24
ENDBRANCH   1  20
BRANCH   1  38
ATOM     37  C   UNL     1      -5.460   1.797  -0.776  0.00  0.00    +0.009 C 
ATOM     38  C   UNL     1      -5.289   3.305  -0.968  0.00  0.00    +0.012 C 
ATOM     39  C   UNL     1      -6.633   3.926  -1.354  0.00  0.00    +0.009 C 
ENDBRANCH   1  38
TORSDOF 9
