REMARK  Name = ZINC62175139
REMARK  9 active torsions:
REMARK  status: ('A' for Active; 'I' for Inactive)
REMARK    1  A    between atoms: C_1  and  C_2
REMARK    2  A    between atoms: N_6  and  C_8
REMARK    3  A    between atoms: C_8  and  C_9
REMARK    4  A    between atoms: C_12  and  N_15
REMARK    5  A    between atoms: C_16  and  C_18
REMARK    6  A    between atoms: N_20  and  C_21
REMARK    7  A    between atoms: C_21  and  C_22
REMARK    8  A    between atoms: C_21  and  C_23
REMARK    9  A    between atoms: C_23  and  C_24
REMARK                            x       y       z     vdW  Elec       q    Type
REMARK                         _______ _______ _______ _____ _____    ______ ____
ROOT
ATOM      1  N   UNL     1       2.037  -8.103   2.103  0.00  0.00    -0.278 N 
ATOM      2  C   UNL     1       3.250  -8.665   1.933  0.00  0.00    +0.303 C 
ATOM      3  O   UNL     1       4.246  -7.970   1.933  0.00  0.00    -0.265 OA
ATOM      4  H   UNL     1       1.249  -8.664   2.180  0.00  0.00    +0.155 HD
ENDROOT
BRANCH   1   8
ATOM      5  C   UNL     1       1.669  -3.960   2.294  0.00  0.00    -0.064 A 
ATOM      6  C   UNL     1       0.821  -4.762   3.034  0.00  0.00    +0.003 A 
ATOM      7  C   UNL     1       0.940  -6.137   2.973  0.00  0.00    +0.023 A 
ATOM      8  C   UNL     1       1.913  -6.713   2.167  0.00  0.00    +0.034 A 
ATOM      9  C   UNL     1       2.764  -5.904   1.424  0.00  0.00    +0.023 A 
ATOM     10  C   UNL     1       2.636  -4.530   1.486  0.00  0.00    +0.003 A 
BRANCH   5  11
ATOM     11  C   UNL     1       1.536  -2.460   2.363  0.00  0.00    -0.043 C 
BRANCH  11  17
ATOM     12  C   UNL     1      -0.387   1.474   0.175  0.00  0.00    +0.005 C 
ATOM     13  C   UNL     1      -0.354  -0.055   0.189  0.00  0.00    -0.031 C 
ATOM     14  C   UNL     1      -1.768  -0.595   0.424  0.00  0.00    -0.001 C 
ATOM     15  C   UNL     1      -1.712  -2.123   0.514  0.00  0.00    -0.018 C 
ATOM     16  C   UNL     1      -0.744  -2.527   1.628  0.00  0.00    -0.078 C 
ATOM     17  N   UNL     1       0.595  -2.004   1.332  0.00  0.00    +0.383 N 
ATOM     18  C   UNL     1       0.563  -0.536   1.315  0.00  0.00    -0.075 C 
ATOM     19  H   UNL     1       0.895  -2.344   0.431  0.00  0.00    -0.081 HD
ENDBRANCH  11  17
ENDBRANCH   5  11
ENDBRANCH   1   8
BRANCH   2  20
ATOM     20  C   UNL     1       3.370 -10.142   1.747  0.00  0.00    +0.300 C 
ATOM     21  O   UNL     1       2.375 -10.836   1.748  0.00  0.00    -0.265 OA
ATOM     22  N   UNL     1       4.583 -10.704   1.578  0.00  0.00    -0.305 N 
ATOM     23  H   UNL     1       5.379 -10.149   1.577  0.00  0.00    +0.149 HD
BRANCH  22  24
ATOM     24  C   UNL     1       4.701 -12.152   1.395  0.00  0.00    +0.075 C 
ATOM     25  C   UNL     1       4.737 -12.838   2.763  0.00  0.00    +0.028 C 
BRANCH  24  26
ATOM     26  C   UNL     1       5.990 -12.467   0.633  0.00  0.00    +0.064 C 
BRANCH  26  27
ATOM     27  C   UNL     1       5.903 -11.896  -0.758  0.00  0.00    -0.008 A 
ATOM     28  C   UNL     1       6.282 -10.673  -1.204  0.00  0.00    +0.011 A 
ATOM     29  C   UNL     1       6.106 -10.363  -2.540  0.00  0.00    +0.008 A 
ATOM     30  C   UNL     1       5.560 -11.290  -3.364  0.00  0.00    +0.045 A 
ATOM     31  S   UNL     1       5.281 -12.656  -2.249  0.00  0.00    -0.102 S 
ENDBRANCH  26  27
ENDBRANCH  24  26
ENDBRANCH  22  24
ENDBRANCH   2  20
TORSDOF 7
