REMARK  Name = ZINC33097137
REMARK  5 active torsions:
REMARK  status: ('A' for Active; 'I' for Inactive)
REMARK    1  A    between atoms: C_1  and  O_2
REMARK    2  A    between atoms: O_2  and  C_3
REMARK    3  A    between atoms: C_7  and  C_9
REMARK    4  A    between atoms: C_16  and  C_21
REMARK    5  A    between atoms: N_26  and  C_29
REMARK                            x       y       z     vdW  Elec       q    Type
REMARK                         _______ _______ _______ _____ _____    ______ ____
ROOT
ATOM      1  C   UNL     1      -2.934  -0.264  -0.902  0.00  0.00    +0.028 C 
ATOM      2  C   UNL     1      -3.710   0.836  -0.750  0.00  0.00    +0.075 C 
ATOM      3  C   UNL     1      -3.370   2.127  -1.387  0.00  0.00    +0.255 C 
ATOM      4  O   UNL     1      -2.208   2.394  -1.628  0.00  0.00    -0.269 OA
ATOM      5  N   UNL     1      -4.329   3.003  -1.700  0.00  0.00    -0.280 N 
ATOM      6  C   UNL     1      -5.700   2.812  -1.577  0.00  0.00    +0.048 A 
ATOM      7  C   UNL     1      -6.549   3.619  -2.324  0.00  0.00    +0.037 A 
ATOM      8  C   UNL     1      -7.932   3.460  -2.235  0.00  0.00    +0.039 A 
ATOM      9  C   UNL     1      -8.475   2.486  -1.391  0.00  0.00    +0.014 A 
ATOM     10  C   UNL     1      -7.637   1.685  -0.649  0.00  0.00    +0.017 A 
ATOM     11  C   UNL     1      -6.260   1.843  -0.737  0.00  0.00    +0.034 A 
ATOM     12  S   UNL     1      -5.197   0.809   0.218  0.00  0.00    -0.082 S 
ATOM     13  H   UNL     1      -4.061   3.993  -2.099  0.00  0.00    +0.155 HD
ENDROOT
BRANCH   8  14
ATOM     14  C   UNL     1      -8.825   4.323  -3.032  0.00  0.00    +0.247 C 
ATOM     15  O   UNL     1      -8.522   5.482  -3.242  0.00  0.00    -0.270 OA
ATOM     16  N   UNL     1      -9.976   3.827  -3.527  0.00  0.00    -0.295 N 
ATOM     17  C   UNL     1     -10.928   4.694  -4.237  0.00  0.00    +0.127 C 
ATOM     18  C   UNL     1     -11.272   4.032  -5.581  0.00  0.00    +0.124 C 
ATOM     19  N   UNL     1     -11.742   2.662  -5.340  0.00  0.00    -0.327 N 
ATOM     20  C   UNL     1     -10.687   1.835  -4.739  0.00  0.00    +0.124 C 
ATOM     21  C   UNL     1     -10.316   2.405  -3.366  0.00  0.00    +0.127 C 
BRANCH  19  22
ATOM     22  C   UNL     1     -12.222   2.083  -6.518  0.00  0.00    +0.030 A 
ATOM     23  C   UNL     1     -11.691   0.881  -6.969  0.00  0.00    +0.023 A 
ATOM     24  C   UNL     1     -12.171   0.309  -8.131  0.00  0.00    +0.002 A 
ATOM     25  C   UNL     1     -13.172   0.937  -8.850  0.00  0.00    +0.000 A 
ATOM     26  C   UNL     1     -13.699   2.136  -8.406  0.00  0.00    +0.002 A 
ATOM     27  C   UNL     1     -13.227   2.710  -7.242  0.00  0.00    +0.023 A 
ENDBRANCH  19  22
ENDBRANCH   8  14
BRANCH   1  32
ATOM     28  C   UNL     1       0.313  -0.772  -2.714  0.00  0.00    +0.121 A 
ATOM     29  C   UNL     1      -0.044  -0.410  -4.006  0.00  0.00    +0.045 A 
ATOM     30  C   UNL     1      -1.335   0.000  -4.285  0.00  0.00    +0.004 A 
ATOM     31  C   UNL     1      -2.279   0.054  -3.280  0.00  0.00    +0.008 A 
ATOM     32  C   UNL     1      -1.931  -0.314  -1.976  0.00  0.00    -0.020 A 
ATOM     33  C   UNL     1      -0.623  -0.723  -1.696  0.00  0.00    +0.053 A 
BRANCH  28  35
ATOM     34  C   UNL     1       2.499  -1.201  -3.546  0.00  0.00    +0.277 C 
ATOM     35  O   UNL     1       1.584  -1.174  -2.448  0.00  0.00    -0.495 OA
ENDBRANCH  28  35
ENDBRANCH   1  32
TORSDOF 4
