REMARK  Name = ZINC12601949
REMARK  2 active torsions:
REMARK  status: ('A' for Active; 'I' for Inactive)
REMARK    1  A    between atoms: C_3  and  C_8
REMARK    2  A    between atoms: C_5  and  O_7
REMARK                            x       y       z     vdW  Elec       q    Type
REMARK                         _______ _______ _______ _____ _____    ______ ____
ROOT
ATOM      1  C   UNL     1      -2.499   1.011   0.020  0.00  0.00    +0.028 C 
ATOM      2  C   UNL     1      -2.488  -0.340  -0.089  0.00  0.00    +0.079 C 
ATOM      3  C   UNL     1      -3.618  -1.293  -0.210  0.00  0.00    +0.276 C 
ATOM      4  O   UNL     1      -4.779  -0.917  -0.225  0.00  0.00    -0.267 OA
ATOM      5  N   UNL     1      -3.299  -2.565  -0.301  0.00  0.00    -0.154 NA
ATOM      6  C   UNL     1      -2.045  -2.986  -0.287  0.00  0.00    +0.154 C 
ATOM      7  S   UNL     1      -1.106  -1.474  -0.136  0.00  0.00    -0.052 S 
ATOM      8  N   UNL     1      -1.578  -4.270  -0.374  0.00  0.00    -0.311 N 
ATOM      9  C   UNL     1      -0.135  -4.546  -0.347  0.00  0.00    +0.107 C 
ATOM     10  C   UNL     1       0.145  -5.576   0.758  0.00  0.00    +0.019 C 
ATOM     11  C   UNL     1      -0.727  -6.813   0.527  0.00  0.00    +0.003 C 
ATOM     12  C   UNL     1      -2.204  -6.418   0.600  0.00  0.00    +0.019 C 
ATOM     13  C   UNL     1      -2.511  -5.398  -0.501  0.00  0.00    +0.107 C 
ENDROOT
BRANCH   1  16
ATOM     14  C   UNL     1      -0.035   3.834   0.195  0.00  0.00    +0.004 A 
ATOM     15  C   UNL     1      -1.222   3.134   0.246  0.00  0.00    +0.008 A 
ATOM     16  C   UNL     1      -1.237   1.764  -0.039  0.00  0.00    -0.020 A 
ATOM     17  C   UNL     1      -0.047   1.115  -0.384  0.00  0.00    +0.053 A 
ATOM     18  C   UNL     1       1.136   1.830  -0.432  0.00  0.00    +0.117 A 
ATOM     19  C   UNL     1       1.140   3.189  -0.142  0.00  0.00    +0.045 A 
BRANCH  18  20
ATOM     20  O   UNL     1       2.296   1.203  -0.763  0.00  0.00    -0.507 OA
ATOM     21  H   UNL     1       2.776   0.840  -0.006  0.00  0.00    +0.292 HD
ENDBRANCH  18  20
ENDBRANCH   1  16
TORSDOF 2
