REMARK  Name = ZINC17198939
REMARK  10 active torsions:
REMARK  status: ('A' for Active; 'I' for Inactive)
REMARK    1  A    between atoms: C_1  and  C_2
REMARK    2  A    between atoms: C_5  and  C_8
REMARK    3  A    between atoms: N_14  and  C_15
REMARK    4  A    between atoms: C_15  and  C_16
REMARK    5  A    between atoms: C_16  and  C_17
REMARK    6  A    between atoms: N_19  and  N_20
REMARK    7  A    between atoms: C_21  and  C_23
REMARK    8  A    between atoms: C_23  and  O_24
REMARK    9  A    between atoms: O_24  and  C_25
REMARK   10  A    between atoms: C_29  and  C_31
REMARK                            x       y       z     vdW  Elec       q    Type
REMARK                         _______ _______ _______ _____ _____    ______ ____
ROOT
ATOM      1  C   UNL     1      -5.230  -4.263   0.004  0.00  0.00    +0.231 C 
ATOM      2  O   UNL     1      -4.275  -5.010  -0.013  0.00  0.00    -0.274 OA
ATOM      3  N   UNL     1      -5.042  -2.929   0.017  0.00  0.00    -0.234 N 
ATOM      4  H   UNL     1      -5.807  -2.331   0.030  0.00  0.00    +0.173 HD
ENDROOT
BRANCH   3   5
ATOM      5  N   UNL     1      -3.743  -2.404   0.011  0.00  0.00    -0.232 N 
ATOM      6  C   UNL     1      -3.556  -1.069   0.024  0.00  0.00    +0.267 C 
ATOM      7  O   UNL     1      -4.511  -0.323   0.040  0.00  0.00    -0.271 OA
ATOM      8  H   UNL     1      -2.979  -3.001  -0.002  0.00  0.00    +0.173 HD
BRANCH   6   9
ATOM      9  C   UNL     1      -2.158  -0.505   0.018  0.00  0.00    +0.326 C 
BRANCH   9  10
ATOM     10  O   UNL     1      -2.221   0.923   0.034  0.00  0.00    -0.483 OA
BRANCH  10  11
ATOM     11  C   UNL     1      -1.039   1.592   0.030  0.00  0.00    +0.121 A 
ATOM     12  C   UNL     1       0.158   0.890   0.012  0.00  0.00    +0.045 A 
ATOM     13  C   UNL     1       1.358   1.573   0.003  0.00  0.00    +0.004 A 
ATOM     14  C   UNL     1       1.369   2.956   0.018  0.00  0.00    +0.003 A 
ATOM     15  C   UNL     1       0.178   3.658   0.042  0.00  0.00    -0.047 A 
ATOM     16  C   UNL     1      -1.026   2.979   0.051  0.00  0.00    +0.049 A 
ATOM     17  C   UNL     1       0.193   5.165   0.058  0.00  0.00    +0.044 C 
ENDBRANCH  10  11
ENDBRANCH   9  10
ENDBRANCH   6   9
ENDBRANCH   3   5
BRANCH   1  18
ATOM     18  C   UNL     1      -6.628  -4.827   0.010  0.00  0.00    +0.119 C 
BRANCH  18  19
ATOM     19  C   UNL     1      -6.560  -6.356  -0.007  0.00  0.00    +0.135 C 
BRANCH  19  26
ATOM     20  C   UNL     1      -8.626  -7.301   1.117  0.00  0.00    +0.163 A 
ATOM     21  N   UNL     1      -9.796  -7.731   0.736  0.00  0.00    -0.153 NA
ATOM     22  N   UNL     1      -9.863  -7.627  -0.660  0.00  0.00    -0.254 N 
ATOM     23  H   UNL     1     -10.615  -7.878  -1.218  0.00  0.00    +0.191 HD
ATOM     24  C   UNL     1      -8.690  -7.114  -1.086  0.00  0.00    +0.176 A 
ATOM     25  S   UNL     1      -8.260  -6.788  -2.710  0.00  0.00    -0.011 S 
ATOM     26  N   UNL     1      -7.919  -6.905  -0.001  0.00  0.00    -0.303 N 
BRANCH  20  31
ATOM     27  C   UNL     1      -6.730  -7.082   6.547  0.00  0.00    +0.044 C 
ATOM     28  C   UNL     1      -7.227  -7.139   5.125  0.00  0.00    -0.050 A 
ATOM     29  C   UNL     1      -8.262  -7.993   4.791  0.00  0.00    +0.004 A 
ATOM     30  C   UNL     1      -8.721  -8.051   3.491  0.00  0.00    +0.012 A 
ATOM     31  C   UNL     1      -8.139  -7.245   2.513  0.00  0.00    +0.019 A 
ATOM     32  C   UNL     1      -7.091  -6.390   2.855  0.00  0.00    +0.012 A 
ATOM     33  C   UNL     1      -6.645  -6.337   4.160  0.00  0.00    +0.004 A 
ENDBRANCH  20  31
ENDBRANCH  19  26
ENDBRANCH  18  19
ENDBRANCH   1  18
TORSDOF 8
