REMARK  Name = ZINC06280710
REMARK  8 active torsions:
REMARK  status: ('A' for Active; 'I' for Inactive)
REMARK    1  A    between atoms: C_1  and  C_2
REMARK    2  A    between atoms: C_4  and  C_16
REMARK    3  A    between atoms: C_5  and  C_15
REMARK    4  A    between atoms: N_6  and  C_7
REMARK    5  A    between atoms: C_7  and  C_8
REMARK    6  A    between atoms: C_8  and  C_9
REMARK    7  A    between atoms: N_22  and  C_23
REMARK    8  A    between atoms: C_29  and  C_31
REMARK                            x       y       z     vdW  Elec       q    Type
REMARK                         _______ _______ _______ _____ _____    ______ ____
ROOT
ATOM      1  C   UNL     1       6.902   0.416  -1.521  0.00  0.00    +0.063 C 
ATOM      2  C   UNL     1       6.647  -1.069  -1.520  0.00  0.00    +0.017 A 
ATOM      3  C   UNL     1       7.594  -2.026  -1.530  0.00  0.00    +0.032 A 
ATOM      4  C   UNL     1       6.890  -3.311  -1.530  0.00  0.00    +0.020 A 
ATOM      5  C   UNL     1       5.556  -3.016  -1.514  0.00  0.00    +0.025 A 
ATOM      6  N   UNL     1       5.420  -1.663  -1.505  0.00  0.00    -0.347 N 
ATOM      7  C   UNL     1       4.430  -4.017  -1.508  0.00  0.00    +0.064 C 
ENDROOT
BRANCH   4   8
ATOM      8  C   UNL     1       7.499  -4.652  -1.544  0.00  0.00    +0.083 C 
ATOM      9  N   UNL     1       6.724  -5.686  -1.542  0.00  0.00    -0.150 NA
ATOM     10  N   UNL     1       7.157  -7.005  -1.566  0.00  0.00    -0.127 NA
ATOM     11  C   UNL     1       8.347  -7.382  -1.166  0.00  0.00    +0.176 C 
ATOM     12  S   UNL     1       9.497  -6.192  -0.559  0.00  0.00    -0.083 S 
ATOM     13  C   UNL     1       8.999  -4.766  -1.566  0.00  0.00    +0.135 C 
ATOM     14  N   UNL     1       8.698  -8.710  -1.220  0.00  0.00    -0.319 N 
ATOM     15  H   UNL     1       9.579  -8.991  -0.925  0.00  0.00    +0.148 HD
BRANCH  14  16
ATOM     16  C   UNL     1       7.744  -9.701  -1.724  0.00  0.00    +0.075 C 
ATOM     17  C   UNL     1       7.834  -9.766  -3.250  0.00  0.00    +0.022 C 
ATOM     18  C   UNL     1       6.838 -10.801  -3.776  0.00  0.00    +0.002 C 
ATOM     19  C   UNL     1       7.168 -12.174  -3.186  0.00  0.00    +0.000 C 
ATOM     20  C   UNL     1       7.078 -12.108  -1.660  0.00  0.00    +0.005 C 
ATOM     21  C   UNL     1       8.075 -11.073  -1.134  0.00  0.00    +0.006 C 
ATOM     22  C   UNL     1       7.985 -11.008   0.392  0.00  0.00    +0.009 C 
ENDBRANCH  14  16
ENDBRANCH   4   8
BRANCH   6  23
ATOM     23  C   UNL     1       4.142  -0.948  -1.488  0.00  0.00    +0.126 C 
BRANCH  23  24
ATOM     24  C   UNL     1       3.711  -0.707  -0.039  0.00  0.00    +0.056 C 
BRANCH  24  25
ATOM     25  C   UNL     1       2.396   0.029  -0.022  0.00  0.00    -0.046 A 
ATOM     26  C   UNL     1       1.208  -0.679  -0.014  0.00  0.00    +0.004 A 
ATOM     27  C   UNL     1       0.002  -0.004   0.002  0.00  0.00    +0.000 A 
ATOM     28  C   UNL     1      -0.017   1.378   0.010  0.00  0.00    +0.000 A 
ATOM     29  C   UNL     1       1.171   2.086   0.002  0.00  0.00    +0.000 A 
ATOM     30  C   UNL     1       2.377   1.411  -0.014  0.00  0.00    +0.004 A 
ENDBRANCH  24  25
ENDBRANCH  23  24
ENDBRANCH   6  23
TORSDOF 5
