REMARK  Name = ZINC64480284
REMARK  10 active torsions:
REMARK  status: ('A' for Active; 'I' for Inactive)
REMARK    1  A    between atoms: C_1  and  C_2
REMARK    2  A    between atoms: C_7  and  C_8
REMARK    3  A    between atoms: C_8  and  N_9
REMARK    4  A    between atoms: C_10  and  C_33
REMARK    5  A    between atoms: C_12  and  N_16
REMARK    6  A    between atoms: C_13  and  C_15
REMARK    7  A    between atoms: C_17  and  C_19
REMARK    8  A    between atoms: N_21  and  C_22
REMARK    9  A    between atoms: C_22  and  C_23
REMARK   10  A    between atoms: C_23  and  C_24
REMARK                            x       y       z     vdW  Elec       q    Type
REMARK                         _______ _______ _______ _____ _____    ______ ____
ROOT
ATOM      1  N   UNL     1      -2.655   0.856   6.299  0.00  0.00    -0.278 N 
ATOM      2  C   UNL     1      -1.710   0.966   7.253  0.00  0.00    +0.303 C 
ATOM      3  O   UNL     1      -0.536   0.853   6.960  0.00  0.00    -0.265 OA
ATOM      4  H   UNL     1      -3.586   1.018   6.519  0.00  0.00    +0.155 HD
ENDROOT
BRANCH   1   7
ATOM      5  N   UNL     1      -1.302   0.459   2.854  0.00  0.00    -0.217 NA
ATOM      6  C   UNL     1      -1.308   1.236   4.109  0.00  0.00    +0.119 C 
ATOM      7  C   UNL     1      -2.296   0.510   4.997  0.00  0.00    +0.047 C 
ATOM      8  C   UNL     1      -2.752  -0.520   4.297  0.00  0.00    +0.034 C 
ATOM      9  N   UNL     1      -2.182  -0.569   3.035  0.00  0.00    -0.280 N 
ATOM     10  C   UNL     1      -3.764  -1.512   4.810  0.00  0.00    +0.063 C 
ATOM     11  C   UNL     1      -1.775   2.670   3.848  0.00  0.00    +0.032 C 
ATOM     12  H   UNL     1      -2.381  -1.245   2.368  0.00  0.00    +0.166 HD
BRANCH   5  13
ATOM     13  C   UNL     1       0.044  -0.046   2.554  0.00  0.00    +0.141 C 
BRANCH  13  20
ATOM     14  C   UNL     1       0.134   1.449   0.084  0.00  0.00    +0.044 C 
ATOM     15  C   UNL     1       0.069  -0.056   0.051  0.00  0.00    -0.046 A 
ATOM     16  C   UNL     1       0.058  -0.722  -1.160  0.00  0.00    +0.003 A 
ATOM     17  C   UNL     1      -0.002  -2.103  -1.190  0.00  0.00    +0.000 A 
ATOM     18  C   UNL     1      -0.050  -2.818  -0.007  0.00  0.00    +0.000 A 
ATOM     19  C   UNL     1      -0.038  -2.152   1.204  0.00  0.00    +0.005 A 
ATOM     20  C   UNL     1       0.026  -0.771   1.233  0.00  0.00    -0.029 A 
ENDBRANCH  13  20
ENDBRANCH   5  13
ENDBRANCH   1   7
BRANCH   2  21
ATOM     21  C   UNL     1      -2.104   1.227   8.668  0.00  0.00    +0.299 C 
ATOM     22  O   UNL     1      -3.276   1.340   8.960  0.00  0.00    -0.265 OA
ATOM     23  N   UNL     1      -1.158   1.337   9.622  0.00  0.00    -0.307 N 
ATOM     24  H   UNL     1      -0.221   1.247   9.388  0.00  0.00    +0.149 HD
BRANCH  23  25
ATOM     25  C   UNL     1      -1.545   1.593  11.011  0.00  0.00    +0.109 C 
BRANCH  25  26
ATOM     26  C   UNL     1      -0.290   1.673  11.884  0.00  0.00    +0.052 C 
BRANCH  26  27
ATOM     27  C   UNL     1      -0.688   1.937  13.313  0.00  0.00    -0.040 C 
ATOM     28  C   UNL     1      -0.865   1.018  14.291  0.00  0.00    -0.001 A 
ATOM     29  C   UNL     1      -0.744  -0.444  14.314  0.00  0.00    +0.010 A 
ATOM     30  C   UNL     1      -0.990  -1.104  15.469  0.00  0.00    +0.001 A 
ATOM     31  C   UNL     1      -1.357  -0.427  16.641  0.00  0.00    +0.002 A 
ATOM     32  C   UNL     1      -1.488   0.915  16.697  0.00  0.00    +0.026 A 
ATOM     33  C   UNL     1      -1.253   1.709  15.541  0.00  0.00    +0.043 A 
ATOM     34  N   UNL     1      -1.314   3.004  15.344  0.00  0.00    -0.380 N 
ATOM     35  C   UNL     1      -0.965   3.282  13.947  0.00  0.00    +0.144 C 
ATOM     36  H   UNL     1      -1.547   3.668  16.012  0.00  0.00    +0.160 HD
ENDBRANCH  26  27
ENDBRANCH  25  26
ENDBRANCH  23  25
ENDBRANCH   2  21
TORSDOF 7
