REMARK  Name = ZINC14473169
REMARK  6 active torsions:
REMARK  status: ('A' for Active; 'I' for Inactive)
REMARK    1  A    between atoms: C_1  and  C_2
REMARK    2  A    between atoms: C_2  and  C_3
REMARK    3  A    between atoms: C_3  and  O_4
REMARK    4  A    between atoms: O_4  and  C_5
REMARK    5  A    between atoms: C_18  and  C_21
REMARK    6  A    between atoms: C_23  and  N_28
REMARK                            x       y       z     vdW  Elec       q    Type
REMARK                         _______ _______ _______ _____ _____    ______ ____
ROOT
ATOM      1  C   UNL     1       3.563   3.076  -0.149  0.00  0.00    +0.121 A 
ATOM      2  C   UNL     1       3.521   1.770  -0.616  0.00  0.00    +0.047 A 
ATOM      3  C   UNL     1       2.329   1.074  -0.588  0.00  0.00    +0.027 A 
ATOM      4  C   UNL     1       1.180   1.678  -0.093  0.00  0.00    +0.032 A 
ATOM      5  C   UNL     1       1.215   2.982   0.376  0.00  0.00    -0.016 A 
ATOM      6  C   UNL     1       2.417   3.676   0.343  0.00  0.00    +0.051 A 
ATOM      7  C   UNL     1       0.004   3.670   0.919  0.00  0.00    +0.049 C 
ATOM      8  C   UNL     1      -0.545   4.678  -0.062  0.00  0.00    -0.023 C 
ATOM      9  C   UNL     1      -1.855   4.698  -0.008  0.00  0.00    -0.030 C 
ATOM     10  C   UNL     1      -2.358   3.707   1.023  0.00  0.00    +0.033 C 
ATOM     11  C   UNL     1      -1.173   2.708   1.172  0.00  0.00    +0.029 C 
ATOM     12  C   UNL     1      -1.280   1.700   0.017  0.00  0.00    +0.106 C 
ATOM     13  N   UNL     1      -0.021   0.955  -0.073  0.00  0.00    -0.336 N 
ATOM     14  H   UNL     1      -0.019  -0.014  -0.122  0.00  0.00    +0.147 HD
ENDROOT
BRANCH  12  15
ATOM     15  C   UNL     1      -2.415   0.744   0.283  0.00  0.00    -0.007 A 
ATOM     16  C   UNL     1      -2.955   0.648   1.552  0.00  0.00    +0.039 A 
ATOM     17  C   UNL     1      -3.998  -0.226   1.794  0.00  0.00    +0.127 A 
ATOM     18  C   UNL     1      -4.496  -1.011   0.771  0.00  0.00    +0.034 A 
ATOM     19  C   UNL     1      -3.953  -0.919  -0.497  0.00  0.00    +0.022 A 
ATOM     20  C   UNL     1      -2.912  -0.041  -0.742  0.00  0.00    +0.046 A 
ATOM     21 CL   UNL     1      -2.230   0.075  -2.334  0.00  0.00    -0.083 Cl
BRANCH  17  22
ATOM     22  N   UNL     1      -4.579  -0.325   3.152  0.00  0.00    +0.056 N 
ATOM     23  O   UNL     1      -5.496  -1.097   3.367  0.00  0.00    -0.126 OA
ATOM     24  O   UNL     1      -4.141   0.367   4.054  0.00  0.00    -0.126 OA
ENDBRANCH  17  22
ENDBRANCH  12  15
BRANCH   1  25
ATOM     25  O   UNL     1       4.733   3.768  -0.176  0.00  0.00    -0.492 OA
BRANCH  25  26
ATOM     26  C   UNL     1       5.877   3.089  -0.697  0.00  0.00    +0.229 C 
BRANCH  26  28
ATOM     27  C   UNL     1       8.315   3.292  -1.204  0.00  0.00    +0.007 C 
ATOM     28  C   UNL     1       7.090   4.020  -0.646  0.00  0.00    +0.038 C 
ENDBRANCH  26  28
ENDBRANCH  25  26
ENDBRANCH   1  25
TORSDOF 5
