REMARK  Name = ZINC20885242
REMARK  5 active torsions:
REMARK  status: ('A' for Active; 'I' for Inactive)
REMARK    1  A    between atoms: C_1  and  C_2
REMARK    2  A    between atoms: C_5  and  C_8
REMARK    3  A    between atoms: N_9  and  N_10
REMARK    4  A    between atoms: C_11  and  C_13
REMARK    5  A    between atoms: C_15  and  N_21
REMARK                            x       y       z     vdW  Elec       q    Type
REMARK                         _______ _______ _______ _____ _____    ______ ____
ROOT
ATOM      1  N   UNL     1      -1.191   1.869   0.018  0.00  0.00    -0.202 N 
ATOM      2  C   UNL     1      -0.014   1.212   0.009  0.00  0.00    +0.283 C 
ATOM      3  O   UNL     1       0.002  -0.004   0.002  0.00  0.00    -0.267 OA
ATOM      4  H   UNL     1      -1.206   2.969   0.024  0.00  0.00    +0.178 HD
ENDROOT
BRANCH   2   5
ATOM      5  C   UNL     1       1.257   1.969   0.001  0.00  0.00    +0.149 A 
ATOM      6  C   UNL     1       2.468   1.282  -0.009  0.00  0.00    +0.094 A 
ATOM      7  C   UNL     1       3.658   2.011  -0.022  0.00  0.00    +0.067 A 
ATOM      8  C   UNL     1       3.581   3.403  -0.014  0.00  0.00    +0.100 A 
ATOM      9  C   UNL     1       2.337   4.013   0.001  0.00  0.00    +0.150 A 
ATOM     10  N   UNL     1       1.232   3.298   0.008  0.00  0.00    -0.228 NA
ATOM     11 CL   UNL     1       2.235   5.746   0.011  0.00  0.00    -0.060 Cl
ATOM     12 CL   UNL     1       5.029   4.362  -0.022  0.00  0.00    -0.078 Cl
ATOM     13 CL   UNL     1       2.498  -0.453  -0.011  0.00  0.00    -0.079 Cl
BRANCH   7  14
ATOM     14  N   UNL     1       4.892   1.364  -0.037  0.00  0.00    -0.356 N 
ATOM     15  H   UNL     1       5.821   1.952  -0.048  0.00  0.00    +0.142 HD
ATOM     16  H   UNL     1       4.936   0.265  -0.039  0.00  0.00    +0.142 HD
ENDBRANCH   7  14
ENDBRANCH   2   5
BRANCH   1  18
ATOM     17  C   UNL     1      -3.527   1.786   0.029  0.00  0.00    +0.138 C 
ATOM     18  N   UNL     1      -2.394   1.153   0.020  0.00  0.00    -0.187 NA
BRANCH  17  23
ATOM     19  C   UNL     1      -8.468  -1.157   0.034  0.00  0.00    +0.044 C 
ATOM     20  C   UNL     1      -7.173  -0.386   0.033  0.00  0.00    -0.050 A 
ATOM     21  C   UNL     1      -7.196   0.998   0.041  0.00  0.00    +0.004 A 
ATOM     22  C   UNL     1      -6.015   1.710   0.040  0.00  0.00    +0.010 A 
ATOM     23  C   UNL     1      -4.794   1.032   0.030  0.00  0.00    -0.005 A 
ATOM     24  C   UNL     1      -4.779  -0.365   0.017  0.00  0.00    +0.010 A 
ATOM     25  C   UNL     1      -5.968  -1.065   0.023  0.00  0.00    +0.004 A 
ENDBRANCH  17  23
ENDBRANCH   1  18
TORSDOF 4
