REMARK  Name = ZINC01069038
REMARK  7 active torsions:
REMARK  status: ('A' for Active; 'I' for Inactive)
REMARK    1  A    between atoms: C_1  and  C_2
REMARK    2  A    between atoms: C_2  and  S_3
REMARK    3  A    between atoms: S_3  and  C_4
REMARK    4  A    between atoms: C_8  and  C_10
REMARK    5  A    between atoms: N_12  and  C_13
REMARK    6  A    between atoms: C_16  and  S_19
REMARK    7  A    between atoms: S_19  and  N_22
REMARK                            x       y       z     vdW  Elec       q    Type
REMARK                         _______ _______ _______ _____ _____    ______ ____
ROOT
ATOM      1  C   UNL     1      -3.689  -5.331  -0.004  0.00  0.00    +0.268 C 
ATOM      2  O   UNL     1      -3.579  -6.541  -0.019  0.00  0.00    -0.268 OA
ATOM      3  N   UNL     1      -4.913  -4.766   0.007  0.00  0.00    -0.280 N 
ATOM      4  H   UNL     1      -5.002  -3.804   0.087  0.00  0.00    +0.155 HD
ENDROOT
BRANCH   1   9
ATOM      5  C   UNL     1      -1.508  -2.383   0.026  0.00  0.00    +0.189 A 
ATOM      6  N   UNL     1      -0.286  -2.899   0.016  0.00  0.00    -0.229 NA
ATOM      7  C   UNL     1      -0.100  -4.206  -0.000  0.00  0.00    +0.136 A 
ATOM      8  C   UNL     1      -1.204  -5.049  -0.007  0.00  0.00    +0.090 A 
ATOM      9  C   UNL     1      -2.477  -4.476   0.004  0.00  0.00    +0.148 A 
ATOM     10  N   UNL     1      -2.587  -3.149   0.025  0.00  0.00    -0.216 NA
ATOM     11 CL   UNL     1      -1.007  -6.774  -0.030  0.00  0.00    -0.080 Cl
BRANCH   5  12
ATOM     12  S   UNL     1      -1.700  -0.632   0.049  0.00  0.00    -0.086 S 
BRANCH  12  14
ATOM     13  C   UNL     1      -0.019   1.526   0.063  0.00  0.00    +0.016 C 
ATOM     14  C   UNL     1       0.002  -0.004   0.044  0.00  0.00    +0.074 C 
ENDBRANCH  12  14
ENDBRANCH   5  12
ENDBRANCH   1   9
BRANCH   3  15
ATOM     15  C   UNL     1      -6.054  -5.568  -0.098  0.00  0.00    +0.034 A 
ATOM     16  C   UNL     1      -6.077  -6.826   0.491  0.00  0.00    +0.025 A 
ATOM     17  C   UNL     1      -7.205  -7.615   0.386  0.00  0.00    +0.030 A 
ATOM     18  C   UNL     1      -8.311  -7.155  -0.305  0.00  0.00    +0.105 A 
ATOM     19  C   UNL     1      -8.291  -5.903  -0.893  0.00  0.00    +0.030 A 
ATOM     20  C   UNL     1      -7.168  -5.106  -0.786  0.00  0.00    +0.025 A 
BRANCH  18  21
ATOM     21  S   UNL     1      -9.748  -8.165  -0.438  0.00  0.00    +0.056 S 
ATOM     22  O   UNL     1     -10.446  -7.729  -1.597  0.00  0.00    -0.153 OA
ATOM     23  O   UNL     1      -9.318  -9.509  -0.268  0.00  0.00    -0.153 OA
BRANCH  21  24
ATOM     24  N   UNL     1     -10.717  -7.811   0.858  0.00  0.00    -0.204 NA
ATOM     25  H   UNL     1     -11.680  -7.893   0.780  0.00  0.00    +0.144 HD
ATOM     26  H   UNL     1     -10.321  -7.523   1.695  0.00  0.00    +0.144 HD
ENDBRANCH  21  24
ENDBRANCH  18  21
ENDBRANCH   3  15
TORSDOF 6
