REMARK  Name = ZINC02491979
REMARK  9 active torsions:
REMARK  status: ('A' for Active; 'I' for Inactive)
REMARK    1  A    between atoms: C_1  and  C_2
REMARK    2  A    between atoms: C_2  and  C_3
REMARK    3  A    between atoms: C_2  and  C_4
REMARK    4  A    between atoms: C_2  and  N_5
REMARK    5  A    between atoms: C_14  and  C_18
REMARK    6  A    between atoms: C_14  and  N_22
REMARK    7  A    between atoms: C_23  and  C_25
REMARK    8  A    between atoms: C_25  and  C_26
REMARK    9  A    between atoms: C_26  and  C_27
REMARK                            x       y       z     vdW  Elec       q    Type
REMARK                         _______ _______ _______ _____ _____    ______ ____
ROOT
ATOM      1  N   UNL     1       0.006   1.469  -0.093  0.00  0.00    -0.276 N 
ATOM      2  C   UNL     1       1.181   2.182   0.017  0.00  0.00    +0.121 A 
ATOM      3  C   UNL     1       2.358   1.494   0.018  0.00  0.00    +0.096 A 
ATOM      4  C   UNL     1       2.359   0.098  -0.092  0.00  0.00    +0.262 A 
ATOM      5  O   UNL     1       3.410  -0.519  -0.091  0.00  0.00    -0.267 OA
ATOM      6  N   UNL     1       1.184  -0.557  -0.198  0.00  0.00    -0.275 N 
ATOM      7  H   UNL     1       1.173  -1.554  -0.277  0.00  0.00    +0.173 HD
ATOM      8  C   UNL     1       0.026   0.129  -0.198  0.00  0.00    +0.331 A 
ATOM      9  O   UNL     1      -1.024  -0.476  -0.294  0.00  0.00    -0.246 OA
ATOM     10  C   UNL     1       3.458   2.521   0.150  0.00  0.00    +0.240 C 
ATOM     11  C   UNL     1       2.708   3.837   0.217  0.00  0.00    +0.256 C 
ATOM     12  O   UNL     1       3.191   4.943   0.327  0.00  0.00    -0.272 OA
ATOM     13  N   UNL     1       1.401   3.533   0.133  0.00  0.00    -0.269 N 
ATOM     14  H   UNL     1       0.692   4.195   0.152  0.00  0.00    +0.156 HD
ENDROOT
BRANCH   1  16
ATOM     15  C   UNL     1      -2.417   1.168  -0.236  0.00  0.00    +0.034 C 
ATOM     16  C   UNL     1      -1.276   2.178  -0.104  0.00  0.00    +0.043 C 
ATOM     17  C   UNL     1      -1.436   2.960   1.202  0.00  0.00    +0.034 C 
ATOM     18  C   UNL     1      -1.313   3.147  -1.287  0.00  0.00    +0.034 C 
ENDBRANCH   1  16
BRANCH  10  19
ATOM     19  C   UNL     1       4.259   2.291   1.433  0.00  0.00    +0.424 C 
ATOM     20  F   UNL     1       4.929   1.065   1.351  0.00  0.00    -0.167 F 
ATOM     21  F   UNL     1       5.192   3.322   1.591  0.00  0.00    -0.167 F 
ATOM     22  F   UNL     1       3.390   2.275   2.529  0.00  0.00    -0.167 F 
ENDBRANCH  10  19
BRANCH  10  23
ATOM     23  N   UNL     1       4.337   2.489  -1.022  0.00  0.00    -0.291 N 
ATOM     24  C   UNL     1       3.853   2.816  -2.237  0.00  0.00    +0.214 C 
ATOM     25  O   UNL     1       2.671   3.047  -2.376  0.00  0.00    -0.276 OA
ATOM     26  H   UNL     1       5.267   2.232  -0.923  0.00  0.00    +0.150 HD
BRANCH  24  27
ATOM     27  C   UNL     1       4.781   2.893  -3.421  0.00  0.00    +0.096 C 
BRANCH  27  28
ATOM     28  C   UNL     1       3.984   3.280  -4.669  0.00  0.00    +0.013 C 
BRANCH  28  29
ATOM     29  C   UNL     1       4.926   3.359  -5.872  0.00  0.00    -0.011 C 
ATOM     30  C   UNL     1       5.927   4.497  -5.662  0.00  0.00    +0.003 C 
ATOM     31  C   UNL     1       6.869   4.576  -6.865  0.00  0.00    +0.000 C 
ATOM     32  C   UNL     1       6.056   4.840  -8.133  0.00  0.00    +0.000 C 
ATOM     33  C   UNL     1       5.055   3.702  -8.343  0.00  0.00    +0.000 C 
ATOM     34  C   UNL     1       4.113   3.623  -7.140  0.00  0.00    +0.003 C 
ENDBRANCH  28  29
ENDBRANCH  27  28
ENDBRANCH  24  27
ENDBRANCH  10  23
TORSDOF 6
