REMARK  Name = ZINC06751590
REMARK  6 active torsions:
REMARK  status: ('A' for Active; 'I' for Inactive)
REMARK    1  A    between atoms: C_7  and  C_14
REMARK    2  A    between atoms: CA_8  and  C_11
REMARK    3  A    between atoms: C_14  and  N_15
REMARK    4  A    between atoms: N_15  and  C_16
REMARK    5  A    between atoms: C_16  and  C_17
REMARK    6  A    between atoms: C_17  and  C_18
REMARK                            x       y       z     vdW  Elec       q    Type
REMARK                         _______ _______ _______ _____ _____    ______ ____
ROOT
ATOM      1  C   UNL     1      -0.016   1.360   0.009  0.00  0.00    +0.001 A 
ATOM      2  C   UNL     1       1.170   2.084   0.002  0.00  0.00    +0.002 A 
ATOM      3  C   UNL     1       2.386   1.439  -0.013  0.00  0.00    +0.026 A 
ATOM      4  C   UNL     1       2.431   0.047  -0.021  0.00  0.00    +0.047 A 
ATOM      5  C   UNL     1       1.227  -0.685  -0.013  0.00  0.00    +0.002 A 
ATOM      6  C   UNL     1       0.002  -0.004   0.002  0.00  0.00    +0.010 A 
ATOM      7  C   UNL     1       1.577  -2.055  -0.025  0.00  0.00    -0.025 A 
ATOM      8  CA  UNL     1       2.935  -2.137  -0.038  0.00  0.00    +0.131 A 
ATOM      9  N   UNL     1       3.464  -0.859  -0.036  0.00  0.00    -0.349 N 
ATOM     10  H   UNL     1       4.409  -0.639  -0.045  0.00  0.00    +0.166 HD
ENDROOT
BRANCH   8  11
ATOM     11  C   UNL     1       3.713  -3.379  -0.053  0.00  0.00    +0.403 C 
ATOM     12  O   UNL     1       4.936  -3.336  -0.065  0.00  0.00    -0.239 OA
ATOM     13  OXT UNL     1       3.139  -4.461  -0.054  0.00  0.00    -0.239 OA
ENDBRANCH   8  11
BRANCH   7  14
ATOM     14  C   UNL     1       0.617  -3.217  -0.022  0.00  0.00    -0.044 C 
BRANCH  14  15
ATOM     15  N   UNL     1       0.291  -3.587  -1.406  0.00  0.00    +0.382 N 
ATOM     16  H   UNL     1      -0.134  -2.800  -1.873  0.00  0.00    -0.085 HD
ATOM     17  H   UNL     1       1.136  -3.850  -1.891  0.00  0.00    -0.085 HD
BRANCH  15  18
ATOM     18  C   UNL     1      -0.644  -4.719  -1.403  0.00  0.00    -0.077 C 
BRANCH  18  19
ATOM     19  C   UNL     1      -0.983  -5.104  -2.845  0.00  0.00    +0.016 C 
BRANCH  19  20
ATOM     20  C   UNL     1      -1.943  -6.266  -2.842  0.00  0.00    -0.049 A 
ATOM     21  C   UNL     1      -1.460  -7.561  -2.848  0.00  0.00    +0.005 A 
ATOM     22  C   UNL     1      -2.340  -8.627  -2.846  0.00  0.00    +0.020 A 
ATOM     23  C   UNL     1      -3.704  -8.398  -2.837  0.00  0.00    +0.041 A 
ATOM     24  C   UNL     1      -4.187  -7.101  -2.830  0.00  0.00    +0.020 A 
ATOM     25  C   UNL     1      -3.306  -6.036  -2.827  0.00  0.00    +0.005 A 
ATOM     26 CL   UNL     1      -4.810  -9.736  -2.834  0.00  0.00    -0.084 Cl
ENDBRANCH  19  20
ENDBRANCH  18  19
ENDBRANCH  15  18
ENDBRANCH  14  15
ENDBRANCH   7  14
TORSDOF 6
