REMARK  Name = ZINC13602568
REMARK  9 active torsions:
REMARK  status: ('A' for Active; 'I' for Inactive)
REMARK    1  A    between atoms: C_1  and  O_2
REMARK    2  A    between atoms: O_2  and  C_3
REMARK    3  A    between atoms: C_5  and  C_22
REMARK    4  A    between atoms: C_8  and  O_9
REMARK    5  A    between atoms: O_9  and  C_10
REMARK    6  A    between atoms: C_10  and  C_12
REMARK    7  A    between atoms: N_23  and  N_24
REMARK    8  A    between atoms: C_25  and  C_27
REMARK    9  A    between atoms: C_29  and  C_35
REMARK                            x       y       z     vdW  Elec       q    Type
REMARK                         _______ _______ _______ _____ _____    ______ ____
ROOT
ATOM      1  C   UNL     1      -4.477  -2.196   6.914  0.00  0.00    +0.163 A 
ATOM      2  C   UNL     1      -4.760  -1.038   6.215  0.00  0.00    +0.059 A 
ATOM      3  C   UNL     1      -3.968  -0.676   5.122  0.00  0.00    -0.002 A 
ATOM      4  C   UNL     1      -2.888  -1.480   4.748  0.00  0.00    +0.013 A 
ATOM      5  C   UNL     1      -2.609  -2.631   5.454  0.00  0.00    +0.051 A 
ATOM      6  C   UNL     1      -3.398  -2.993   6.536  0.00  0.00    +0.173 A 
ENDROOT
BRANCH   1   8
ATOM      7  C   UNL     1      -6.337  -1.691   8.307  0.00  0.00    +0.277 C 
ATOM      8  O   UNL     1      -5.248  -2.555   7.975  0.00  0.00    -0.491 OA
ENDBRANCH   1   8
BRANCH   3   9
ATOM      9  C   UNL     1      -4.269   0.555   4.368  0.00  0.00    +0.138 C 
ATOM     10  N   UNL     1      -3.724   0.755   3.207  0.00  0.00    -0.188 NA
BRANCH  10  11
ATOM     11  N   UNL     1      -3.222  -0.328   2.474  0.00  0.00    -0.206 N 
ATOM     12  C   UNL     1      -2.547  -0.111   1.327  0.00  0.00    +0.245 C 
ATOM     13  O   UNL     1      -2.374   1.022   0.930  0.00  0.00    -0.273 OA
ATOM     14  H   UNL     1      -3.360  -1.235   2.791  0.00  0.00    +0.177 HD
BRANCH  12  15
ATOM     15  C   UNL     1      -2.007  -1.276   0.538  0.00  0.00    +0.171 C 
ATOM     16  C   UNL     1      -0.472  -1.371   0.697  0.00  0.00    +0.057 C 
ATOM     17  C   UNL     1       0.022  -0.577  -0.533  0.00  0.00    +0.113 C 
ATOM     18  N   UNL     1      -1.062  -0.668  -1.519  0.00  0.00    -0.314 N 
ATOM     19  C   UNL     1      -2.214  -1.053  -0.944  0.00  0.00    +0.226 C 
ATOM     20  O   UNL     1      -3.267  -1.201  -1.528  0.00  0.00    -0.275 OA
ATOM     21  H   UNL     1      -0.959  -0.476  -2.464  0.00  0.00    +0.149 HD
BRANCH  16  22
ATOM     22  C   UNL     1      -0.020  -0.719   1.978  0.00  0.00    -0.042 A 
ATOM     23  C   UNL     1      -0.021   0.659   2.089  0.00  0.00    +0.004 A 
ATOM     24  C   UNL     1       0.390   1.258   3.265  0.00  0.00    +0.000 A 
ATOM     25  C   UNL     1       0.809   0.479   4.327  0.00  0.00    +0.000 A 
ATOM     26  C   UNL     1       0.815  -0.899   4.214  0.00  0.00    +0.000 A 
ATOM     27  C   UNL     1       0.401  -1.498   3.039  0.00  0.00    +0.004 A 
ENDBRANCH  16  22
ENDBRANCH  12  15
ENDBRANCH  10  11
ENDBRANCH   3   9
BRANCH   6  28
ATOM     28  O   UNL     1      -3.119  -4.129   7.229  0.00  0.00    -0.419 OA
BRANCH  28  29
ATOM     29  C   UNL     1      -3.798  -5.240   6.882  0.00  0.00    +0.345 C 
ATOM     30  O   UNL     1      -4.548  -5.221   5.926  0.00  0.00    -0.245 OA
BRANCH  29  31
ATOM     31  C   UNL     1      -3.630  -6.479   7.662  0.00  0.00    +0.067 A 
ATOM     32  C   UNL     1      -2.869  -6.488   8.824  0.00  0.00    +0.015 A 
ATOM     33  C   UNL     1      -2.718  -7.655   9.560  0.00  0.00    +0.001 A 
ATOM     34  C   UNL     1      -3.292  -8.827   9.173  0.00  0.00    +0.008 A 
ATOM     35  C   UNL     1      -4.071  -8.893   8.005  0.00  0.00    -0.017 A 
ATOM     36  C   UNL     1      -4.257  -7.725   7.226  0.00  0.00    -0.004 A 
ATOM     37  C   UNL     1      -5.032  -7.786   6.062  0.00  0.00    +0.009 A 
ATOM     38  C   UNL     1      -5.598  -8.970   5.691  0.00  0.00    +0.001 A 
ATOM     39  C   UNL     1      -5.417 -10.120   6.455  0.00  0.00    +0.001 A 
ATOM     40  C   UNL     1      -4.670 -10.096   7.593  0.00  0.00    +0.008 A 
ENDBRANCH  29  31
ENDBRANCH  28  29
ENDBRANCH   6  28
TORSDOF 8
