REMARK  Name = ZINC20557606
REMARK  3 active torsions:
REMARK  status: ('A' for Active; 'I' for Inactive)
REMARK    1  A    between atoms: C_1  and  C_2
REMARK    2  A    between atoms: C_9  and  C_11
REMARK    3  A    between atoms: C_19  and  C_23
REMARK                            x       y       z     vdW  Elec       q    Type
REMARK                         _______ _______ _______ _____ _____    ______ ____
ROOT
ATOM      1  C   UNL     1       2.349  -6.767   0.552  0.00  0.00    +0.071 C 
ATOM      2  C   UNL     1       1.978  -5.887   1.521  0.00  0.00    +0.035 C 
ATOM      3  C   UNL     1       1.632  -4.569   1.199  0.00  0.00    +0.018 A 
ATOM      4  C   UNL     1       1.258  -4.053  -0.037  0.00  0.00    -0.020 A 
ATOM      5  C   UNL     1       0.955  -2.689  -0.097  0.00  0.00    -0.033 A 
ATOM      6  C   UNL     1       1.033  -1.971   1.060  0.00  0.00    -0.006 A 
ATOM      7  S   UNL     1       1.533  -3.161   2.276  0.00  0.00    -0.093 S 
ATOM      8  C   UNL     1       0.756  -0.513   1.247  0.00  0.00    +0.046 C 
ATOM      9  C   UNL     1       0.014   0.000   0.003  0.00  0.00    -0.009 C 
ATOM     10  C   UNL     1       0.746  -0.498  -1.246  0.00  0.00    +0.008 C 
ATOM     11  C   UNL     1       0.552  -2.006  -1.401  0.00  0.00    +0.036 C 
ATOM     12  C   UNL     1      -0.004   1.530   0.012  0.00  0.00    +0.008 C 
ATOM     13  C   UNL     1       1.183  -4.955  -1.267  0.00  0.00    +0.111 C 
ATOM     14  S   UNL     1       2.468  -6.228  -1.123  0.00  0.00    -0.115 S 
ENDROOT
BRANCH   1  23
ATOM     15  C   UNL     1       4.563 -14.227   1.415  0.00  0.00    +0.045 C 
ATOM     16  C   UNL     1       4.158 -12.841   0.984  0.00  0.00    -0.032 A 
ATOM     17  C   UNL     1       4.267 -12.462  -0.348  0.00  0.00    +0.008 A 
ATOM     18  C   UNL     1       3.884 -11.180  -0.702  0.00  0.00    +0.044 A 
ATOM     19  C   UNL     1       3.406 -10.321   0.281  0.00  0.00    +0.125 A 
ATOM     20  N   UNL     1       3.321 -10.719   1.541  0.00  0.00    -0.240 NA
ATOM     21  C   UNL     1       3.674 -11.936   1.907  0.00  0.00    +0.116 A 
ATOM     22  N   UNL     1       3.018  -9.028  -0.061  0.00  0.00    -0.266 N 
ATOM     23  C   UNL     1       2.650  -8.158   0.900  0.00  0.00    +0.256 C 
ATOM     24  O   UNL     1       2.569  -8.527   2.057  0.00  0.00    -0.269 OA
ATOM     25  H   UNL     1       3.011  -8.717  -1.117  0.00  0.00    +0.157 HD
ENDBRANCH   1  23
TORSDOF 1
