REMARK  Name = ZINC28161674
REMARK  8 active torsions:
REMARK  status: ('A' for Active; 'I' for Inactive)
REMARK    1  A    between atoms: C_1  and  C_2
REMARK    2  A    between atoms: C_2  and  C_3
REMARK    3  A    between atoms: C_2  and  C_4
REMARK    4  A    between atoms: C_7  and  C_10
REMARK    5  A    between atoms: C_13  and  C_34
REMARK    6  A    between atoms: C_20  and  C_23
REMARK    7  A    between atoms: C_23  and  C_24
REMARK    8  A    between atoms: N_26  and  C_27
REMARK                            x       y       z     vdW  Elec       q    Type
REMARK                         _______ _______ _______ _____ _____    ______ ____
ROOT
ATOM      1  C   UNL     1       6.112  -8.042   2.901  0.00  0.00    +0.136 C 
ATOM      2  C   UNL     1       6.927  -8.024   4.210  0.00  0.00    +0.087 C 
ATOM      3  C   UNL     1       7.042  -6.555   4.548  0.00  0.00    +0.075 C 
ATOM      4  N   UNL     1       6.439  -5.857   3.645  0.00  0.00    -0.181 NA
ATOM      5  N   UNL     1       5.861  -6.617   2.631  0.00  0.00    -0.195 N 
ATOM      6  C   UNL     1       5.168  -6.123   1.565  0.00  0.00    +0.170 C 
ATOM      7  N   UNL     1       4.598  -6.796   0.574  0.00  0.00    -0.157 NA
ATOM      8  C   UNL     1       3.950  -6.244  -0.414  0.00  0.00    +0.252 C 
ATOM      9  O   UNL     1       3.441  -6.897  -1.304  0.00  0.00    -0.272 OA
ATOM     10  C   UNL     1       3.876  -4.722  -0.376  0.00  0.00    +0.150 C 
ATOM     11  S   UNL     1       4.816  -4.415   1.173  0.00  0.00    -0.078 S 
ENDROOT
BRANCH   1  15
ATOM     12  C   UNL     1       8.394  -9.790  -0.259  0.00  0.00    -0.045 A 
ATOM     13  C   UNL     1       7.378 -10.510   0.340  0.00  0.00    +0.004 A 
ATOM     14  C   UNL     1       6.639  -9.945   1.363  0.00  0.00    +0.006 A 
ATOM     15  C   UNL     1       6.918  -8.659   1.786  0.00  0.00    -0.025 A 
ATOM     16  C   UNL     1       7.930  -7.936   1.183  0.00  0.00    +0.006 A 
ATOM     17  C   UNL     1       8.672  -8.504   0.164  0.00  0.00    +0.004 A 
BRANCH  12  19
ATOM     18  C   UNL     1       9.048  -9.559  -2.640  0.00  0.00    +0.012 C 
ATOM     19  C   UNL     1       9.198 -10.406  -1.375  0.00  0.00    +0.013 C 
ATOM     20  C   UNL     1      10.673 -10.461  -0.970  0.00  0.00    +0.012 C 
ENDBRANCH  12  19
ENDBRANCH   1  15
BRANCH   3  21
ATOM     21  C   UNL     1       7.732  -6.008   5.721  0.00  0.00    +0.035 A 
ATOM     22  C   UNL     1       7.891  -4.687   6.103  0.00  0.00    +0.017 A 
ATOM     23  C   UNL     1       8.584  -4.420   7.261  0.00  0.00    +0.008 A 
ATOM     24  C   UNL     1       9.096  -5.451   7.982  0.00  0.00    +0.046 A 
ATOM     25  S   UNL     1       8.594  -6.872   7.024  0.00  0.00    -0.095 S 
ENDBRANCH   3  21
BRANCH  10  26
ATOM     26  C   UNL     1       2.430  -4.236  -0.258  0.00  0.00    +0.120 C 
BRANCH  26  27
ATOM     27  C   UNL     1       2.413  -2.734  -0.137  0.00  0.00    +0.219 C 
ATOM     28  O   UNL     1       3.455  -2.114  -0.144  0.00  0.00    -0.275 OA
ATOM     29  N   UNL     1       1.240  -2.081  -0.021  0.00  0.00    -0.283 N 
ATOM     30  H   UNL     1       0.303  -2.647   0.078  0.00  0.00    +0.155 HD
BRANCH  29  31
ATOM     31  C   UNL     1       1.216  -0.680  -0.024  0.00  0.00    +0.069 A 
ATOM     32  C   UNL     1       2.237   0.032  -0.638  0.00  0.00    +0.026 A 
ATOM     33  C   UNL     1       2.210   1.413  -0.640  0.00  0.00    +0.002 A 
ATOM     34  C   UNL     1       1.168   2.087  -0.032  0.00  0.00    +0.003 A 
ATOM     35  C   UNL     1       0.148   1.383   0.581  0.00  0.00    +0.040 A 
ATOM     36  C   UNL     1       0.168  -0.000   0.587  0.00  0.00    +0.144 A 
ATOM     37  F   UNL     1      -0.828  -0.689   1.186  0.00  0.00    -0.204 F 
ENDBRANCH  29  31
ENDBRANCH  26  27
ENDBRANCH  10  26
TORSDOF 6
