REMARK  Name = ZINC34747461
REMARK  10 active torsions:
REMARK  status: ('A' for Active; 'I' for Inactive)
REMARK    1  A    between atoms: C_1  and  C_2
REMARK    2  A    between atoms: C_2  and  N_3
REMARK    3  A    between atoms: N_3  and  C_4
REMARK    4  A    between atoms: C_4  and  C_5
REMARK    5  A    between atoms: C_6  and  C_8
REMARK    6  A    between atoms: C_8  and  N_9
REMARK    7  A    between atoms: N_28  and  C_29
REMARK    8  A    between atoms: C_29  and  C_30
REMARK    9  A    between atoms: C_33  and  C_37
REMARK   10  A    between atoms: C_35  and  C_36
REMARK                            x       y       z     vdW  Elec       q    Type
REMARK                         _______ _______ _______ _____ _____    ______ ____
ROOT
ATOM      1  N   UNL     1      -1.286  -0.122  -5.542  0.00  0.00    +0.387 N 
ATOM      2  C   UNL     1      -2.279   0.094  -6.603  0.00  0.00    -0.059 C 
ATOM      3  C   UNL     1      -3.661  -0.337  -6.102  0.00  0.00    +0.089 C 
ATOM      4  N   UNL     1      -3.574  -1.726  -5.627  0.00  0.00    -0.304 N 
ATOM      5  C   UNL     1      -2.499  -2.068  -4.681  0.00  0.00    +0.089 C 
ATOM      6  C   UNL     1      -1.171  -1.556  -5.249  0.00  0.00    -0.059 C 
ATOM      7  C   UNL     1      -4.468  -2.676  -6.052  0.00  0.00    +0.202 A 
ATOM      8  N   UNL     1      -4.030  -3.859  -6.430  0.00  0.00    -0.208 NA
ATOM      9  C   UNL     1      -4.873  -4.796  -6.846  0.00  0.00    +0.117 A 
ATOM     10  C   UNL     1      -6.260  -4.580  -6.905  0.00  0.00    +0.076 A 
ATOM     11  C   UNL     1      -7.063  -5.707  -7.385  0.00  0.00    -0.023 A 
ATOM     12  C   UNL     1      -6.400  -6.832  -7.721  0.00  0.00    -0.004 A 
ATOM     13  S   UNL     1      -4.691  -6.465  -7.422  0.00  0.00    -0.073 S 
ATOM     14  C   UNL     1      -6.985  -8.112  -8.234  0.00  0.00    +0.043 C 
ATOM     15  C   UNL     1      -8.499  -8.090  -7.977  0.00  0.00    +0.005 C 
ATOM     16  C   UNL     1      -9.057  -6.742  -8.445  0.00  0.00    +0.005 C 
ATOM     17  C   UNL     1      -8.582  -5.631  -7.509  0.00  0.00    +0.037 C 
ATOM     18  C   UNL     1      -6.707  -3.286  -6.489  0.00  0.00    +0.264 A 
ATOM     19  O   UNL     1      -7.894  -3.008  -6.505  0.00  0.00    -0.267 OA
ATOM     20  N   UNL     1      -5.800  -2.383  -6.073  0.00  0.00    -0.276 N 
ATOM     21  H   UNL     1      -1.576   0.368  -4.709  0.00  0.00    -0.081 HD
ENDROOT
BRANCH   1  22
ATOM     22  C   UNL     1       0.018   0.392  -5.982  0.00  0.00    +0.019 C 
BRANCH  22  24
ATOM     23  N   UNL     1       1.017   2.577  -6.568  0.00  0.00    -0.304 N 
ATOM     24  C   UNL     1      -0.067   1.885  -6.165  0.00  0.00    +0.199 C 
ATOM     25  O   UNL     1      -1.111   2.465  -5.951  0.00  0.00    -0.278 OA
BRANCH  23  27
ATOM     26  C   UNL     1       3.106   1.825  -5.541  0.00  0.00    +0.024 C 
ATOM     27  C   UNL     1       2.278   1.878  -6.827  0.00  0.00    +0.104 C 
ENDBRANCH  23  27
BRANCH  23  28
ATOM     28  C   UNL     1       0.935   4.029  -6.746  0.00  0.00    +0.104 C 
ATOM     29  C   UNL     1       0.517   4.344  -8.184  0.00  0.00    +0.024 C 
ENDBRANCH  23  28
ENDBRANCH  22  24
ENDBRANCH   1  22
BRANCH  20  30
ATOM     30  C   UNL     1      -6.252  -1.058  -5.640  0.00  0.00    +0.163 C 
BRANCH  30  31
ATOM     31  C   UNL     1      -7.158  -1.202  -4.445  0.00  0.00    -0.025 A 
ATOM     32  C   UNL     1      -8.530  -1.126  -4.605  0.00  0.00    +0.006 A 
ATOM     33  C   UNL     1      -9.361  -1.258  -3.509  0.00  0.00    +0.004 A 
ATOM     34  C   UNL     1      -8.822  -1.467  -2.253  0.00  0.00    -0.050 A 
ATOM     35  C   UNL     1      -7.452  -1.544  -2.094  0.00  0.00    +0.007 A 
ATOM     36  C   UNL     1      -6.620  -1.416  -3.191  0.00  0.00    -0.045 A 
ATOM     37  C   UNL     1      -5.125  -1.506  -3.018  0.00  0.00    +0.044 C 
ATOM     38  C   UNL     1      -9.729  -1.609  -1.058  0.00  0.00    +0.044 C 
ENDBRANCH  30  31
ENDBRANCH  20  30
TORSDOF 6
