REMARK  Name = ZINC32597800
REMARK  4 active torsions:
REMARK  status: ('A' for Active; 'I' for Inactive)
REMARK    1  A    between atoms: N_11  and  C_15
REMARK    2  A    between atoms: C_15  and  C_16
REMARK    3  A    between atoms: C_16  and  C_17
REMARK    4  A    between atoms: N_19  and  C_20
REMARK                            x       y       z     vdW  Elec       q    Type
REMARK                         _______ _______ _______ _____ _____    ______ ____
ROOT
ATOM      1  C   UNL     1      13.064  -0.407  -1.298  0.00  0.00    +0.001 A 
ATOM      2  C   UNL     1      13.912  -0.169  -2.364  0.00  0.00    +0.004 A 
ATOM      3  C   UNL     1      13.392   0.083  -3.616  0.00  0.00    +0.046 A 
ATOM      4  C   UNL     1      12.015   0.098  -3.815  0.00  0.00    +0.124 A 
ATOM      5  C   UNL     1      11.170  -0.129  -2.753  0.00  0.00    +0.003 A 
ATOM      6  C   UNL     1      11.696  -0.398  -1.490  0.00  0.00    +0.008 A 
ATOM      7  C   UNL     1       9.681  -0.155  -2.938  0.00  0.00    +0.069 C 
ATOM      8  C   UNL     1       8.933   0.348  -1.759  0.00  0.00    +0.033 A 
ATOM      9  C   UNL     1       7.759   1.018  -1.734  0.00  0.00    +0.090 A 
ATOM     10  N   UNL     1       7.281   1.348  -0.487  0.00  0.00    -0.296 N 
ATOM     11  C   UNL     1       7.978   1.020   0.619  0.00  0.00    +0.292 A 
ATOM     12  O   UNL     1       7.707   1.241   1.786  0.00  0.00    -0.259 OA
ATOM     13  S   UNL     1       9.358   0.201  -0.042  0.00  0.00    -0.030 S 
ATOM     14  S   UNL     1       6.919   1.444  -3.247  0.00  0.00    -0.106 S 
ATOM     15  C   UNL     1       7.830   0.473  -4.488  0.00  0.00    +0.083 C 
ATOM     16  C   UNL     1       9.324   0.625  -4.200  0.00  0.00    +0.049 C 
ATOM     17  C   UNL     1      10.171   0.086  -5.353  0.00  0.00    +0.234 C 
ATOM     18  O   UNL     1      11.544   0.360  -5.062  0.00  0.00    -0.491 OA
ENDROOT
BRANCH  10  19
ATOM     19  C   UNL     1       6.010   2.065  -0.361  0.00  0.00    +0.135 C 
BRANCH  19  20
ATOM     20  C   UNL     1       4.864   1.056  -0.254  0.00  0.00    +0.118 C 
BRANCH  20  21
ATOM     21  C   UNL     1       3.556   1.794  -0.124  0.00  0.00    +0.219 C 
ATOM     22  O   UNL     1       3.542   3.006  -0.117  0.00  0.00    -0.275 OA
ATOM     23  N   UNL     1       2.403   1.106  -0.015  0.00  0.00    -0.285 N 
ATOM     24  H   UNL     1       2.421   0.008   0.056  0.00  0.00    +0.155 HD
BRANCH  23  25
ATOM     25  C   UNL     1       1.181   1.788   0.008  0.00  0.00    +0.033 A 
ATOM     26  C   UNL     1       0.059   1.225  -0.586  0.00  0.00    +0.025 A 
ATOM     27  C   UNL     1      -1.145   1.903  -0.567  0.00  0.00    +0.022 A 
ATOM     28  C   UNL     1      -1.236   3.136   0.054  0.00  0.00    +0.041 A 
ATOM     29  C   UNL     1      -0.119   3.699   0.647  0.00  0.00    +0.022 A 
ATOM     30  C   UNL     1       1.088   3.028   0.625  0.00  0.00    +0.025 A 
ATOM     31 CL   UNL     1      -2.751   3.982   0.082  0.00  0.00    -0.084 Cl
ENDBRANCH  23  25
ENDBRANCH  20  21
ENDBRANCH  19  20
ENDBRANCH  10  19
TORSDOF 4
