REMARK  Name = ZINC54641030
REMARK  12 active torsions:
REMARK  status: ('A' for Active; 'I' for Inactive)
REMARK    1  A    between atoms: C_1  and  C_2
REMARK    2  A    between atoms: C_2  and  O_3
REMARK    3  A    between atoms: O_3  and  C_4
REMARK    4  A    between atoms: C_6  and  C_11
REMARK    5  A    between atoms: C_9  and  O_10
REMARK    6  A    between atoms: C_13  and  C_30
REMARK    7  A    between atoms: C_14  and  C_29
REMARK    8  A    between atoms: C_19  and  S_21
REMARK    9  A    between atoms: S_21  and  C_22
REMARK   10  A    between atoms: C_22  and  C_23
REMARK   11  A    between atoms: C_30  and  O_32
REMARK   12  A    between atoms: O_32  and  C_33
REMARK                            x       y       z     vdW  Elec       q    Type
REMARK                         _______ _______ _______ _____ _____    ______ ____
ROOT
ATOM      1  C   UNL     1      -0.206  -4.951   0.372  0.00  0.00    +0.179 C 
ATOM      2  C   UNL     1      -1.181  -5.831  -0.365  0.00  0.00    +0.082 C 
ATOM      3  C   UNL     1      -1.009  -7.155  -0.507  0.00  0.00    +0.020 C 
ATOM      4  N   UNL     1       0.072  -7.813   0.024  0.00  0.00    -0.287 N 
ATOM      5  C   UNL     1       0.855  -7.123   0.938  0.00  0.00    +0.219 A 
ATOM      6  N   UNL     1       0.734  -5.784   1.117  0.00  0.00    -0.220 N 
ATOM      7  N   UNL     1       1.653  -5.428   2.103  0.00  0.00    -0.141 NA
ATOM      8  C   UNL     1       2.272  -6.532   2.460  0.00  0.00    +0.211 A 
ATOM      9  N   UNL     1       1.783  -7.557   1.747  0.00  0.00    -0.187 NA
ATOM     10  C   UNL     1      -2.039  -7.945  -1.274  0.00  0.00    +0.061 C 
ATOM     11  H   UNL     1       0.281  -8.726  -0.231  0.00  0.00    +0.155 HD
ENDROOT
BRANCH   1  14
ATOM     12  C   UNL     1       1.169  -1.940  -1.448  0.00  0.00    +0.162 A 
ATOM     13  C   UNL     1       0.475  -2.723  -0.540  0.00  0.00    +0.055 A 
ATOM     14  C   UNL     1       0.549  -4.101  -0.617  0.00  0.00    -0.015 A 
ATOM     15  C   UNL     1       1.317  -4.701  -1.598  0.00  0.00    +0.010 A 
ATOM     16  C   UNL     1       2.012  -3.926  -2.507  0.00  0.00    +0.049 A 
ATOM     17  C   UNL     1       1.937  -2.544  -2.439  0.00  0.00    +0.158 A 
BRANCH  17  18
ATOM     18  O   UNL     1       2.616  -1.780  -3.336  0.00  0.00    -0.503 OA
ATOM     19  H   UNL     1       3.513  -1.550  -3.058  0.00  0.00    +0.292 HD
ENDBRANCH  17  18
BRANCH  12  20
ATOM     20  O   UNL     1       1.096  -0.584  -1.374  0.00  0.00    -0.489 OA
BRANCH  20  22
ATOM     21  C   UNL     1       0.330   1.494  -0.408  0.00  0.00    +0.048 C 
ATOM     22  C   UNL     1       0.289  -0.033  -0.331  0.00  0.00    +0.226 C 
ENDBRANCH  20  22
ENDBRANCH  12  20
ENDBRANCH   1  14
BRANCH   2  23
ATOM     23  C   UNL     1      -2.329  -5.236  -0.933  0.00  0.00    +0.339 C 
ATOM     24  O   UNL     1      -3.252  -4.891  -0.219  0.00  0.00    -0.245 OA
BRANCH  23  25
ATOM     25  O   UNL     1      -2.402  -5.051  -2.268  0.00  0.00    -0.458 OA
BRANCH  25  26
ATOM     26  C   UNL     1      -3.593  -4.443  -2.774  0.00  0.00    +0.177 C 
ATOM     27  C   UNL     1      -4.619  -5.529  -3.103  0.00  0.00    +0.044 C 
ATOM     28  C   UNL     1      -5.894  -4.879  -3.645  0.00  0.00    +0.004 C 
ATOM     29  C   UNL     1      -5.564  -4.088  -4.912  0.00  0.00    +0.000 C 
ATOM     30  C   UNL     1      -4.538  -3.003  -4.584  0.00  0.00    +0.004 C 
ATOM     31  C   UNL     1      -3.263  -3.653  -4.042  0.00  0.00    +0.044 C 
ENDBRANCH  25  26
ENDBRANCH  23  25
ENDBRANCH   2  23
BRANCH   8  32
ATOM     32  S   UNL     1       3.540  -6.646   3.678  0.00  0.00    -0.080 S 
BRANCH  32  33
ATOM     33  C   UNL     1       3.970  -8.408   3.701  0.00  0.00    +0.112 C 
BRANCH  33  34
ATOM     34  C   UNL     1       5.059  -8.646   4.715  0.00  0.00    -0.037 A 
ATOM     35  C   UNL     1       6.386  -8.559   4.338  0.00  0.00    +0.004 A 
ATOM     36  C   UNL     1       7.385  -8.777   5.269  0.00  0.00    +0.000 A 
ATOM     37  C   UNL     1       7.056  -9.083   6.576  0.00  0.00    +0.000 A 
ATOM     38  C   UNL     1       5.729  -9.170   6.953  0.00  0.00    +0.000 A 
ATOM     39  C   UNL     1       4.730  -8.947   6.024  0.00  0.00    +0.004 A 
ENDBRANCH  33  34
ENDBRANCH  32  33
ENDBRANCH   8  32
TORSDOF 10
