REMARK  Name = ZINC36567320
REMARK  13 active torsions:
REMARK  status: ('A' for Active; 'I' for Inactive)
REMARK    1  A    between atoms: C_1  and  C_2
REMARK    2  A    between atoms: C_2  and  C_3
REMARK    3  A    between atoms: C_3  and  C_4
REMARK    4  A    between atoms: C_4  and  N_5
REMARK    5  A    between atoms: C_6  and  C_8
REMARK    6  A    between atoms: C_8  and  C_10
REMARK    7  A    between atoms: C_8  and  N_20
REMARK    8  A    between atoms: C_12  and  N_17
REMARK    9  A    between atoms: N_20  and  C_21
REMARK   10  A    between atoms: C_21  and  C_22
REMARK   11  A    between atoms: C_22  and  C_23
REMARK   12  A    between atoms: C_24  and  C_26
REMARK   13  A    between atoms: C_26  and  C_27
REMARK                            x       y       z     vdW  Elec       q    Type
REMARK                         _______ _______ _______ _____ _____    ______ ____
ROOT
ATOM      1  C   UNL     1       2.283  -4.307  -3.967  0.00  0.00    +0.194 C 
ENDROOT
BRANCH   1   2
ATOM      2  C   UNL     1       1.829  -3.846  -5.329  0.00  0.00    +0.002 A 
ATOM      3  C   UNL     1       1.148  -4.715  -6.161  0.00  0.00    +0.040 A 
ATOM      4  C   UNL     1       0.733  -4.292  -7.410  0.00  0.00    +0.127 A 
ATOM      5  C   UNL     1       0.998  -3.001  -7.827  0.00  0.00    +0.034 A 
ATOM      6  C   UNL     1       1.678  -2.132  -6.995  0.00  0.00    +0.022 A 
ATOM      7  C   UNL     1       2.089  -2.553  -5.743  0.00  0.00    +0.047 A 
ATOM      8 CL   UNL     1       2.938  -1.459  -4.695  0.00  0.00    -0.083 Cl
BRANCH   4   9
ATOM      9  N   UNL     1       0.004  -5.223  -8.301  0.00  0.00    +0.056 N 
ATOM     10  O   UNL     1      -0.313  -6.319  -7.901  0.00  0.00    -0.126 OA
ATOM     11  O   UNL     1      -0.274  -4.886  -9.428  0.00  0.00    -0.126 OA
ENDBRANCH   4   9
ENDBRANCH   1   2
BRANCH   1  13
ATOM     12  N   UNL     1       0.950  -2.613  -2.754  0.00  0.00    -0.313 N 
ATOM     13  C   UNL     1       1.257  -3.913  -2.936  0.00  0.00    +0.238 C 
ATOM     14  O   UNL     1       0.708  -4.765  -2.270  0.00  0.00    -0.273 OA
ATOM     15  H   UNL     1       1.389  -1.932  -3.287  0.00  0.00    +0.149 HD
BRANCH  12  16
ATOM     16  C   UNL     1      -0.047  -2.230  -1.751  0.00  0.00    +0.104 C 
BRANCH  16  17
ATOM     17  C   UNL     1      -0.207  -0.708  -1.747  0.00  0.00    +0.018 C 
BRANCH  17  19
ATOM     18  C   UNL     1      -1.409   1.214  -0.696  0.00  0.00    +0.004 C 
ATOM     19  C   UNL     1      -1.249  -0.308  -0.700  0.00  0.00    -0.002 C 
ENDBRANCH  17  19
ENDBRANCH  16  17
ENDBRANCH  12  16
ENDBRANCH   1  13
BRANCH   1  20
ATOM     20  N   UNL     1       2.436  -5.764  -3.971  0.00  0.00    -0.286 N 
ATOM     21  C   UNL     1       1.348  -6.556  -4.054  0.00  0.00    +0.221 C 
ATOM     22  O   UNL     1       0.249  -6.064  -4.192  0.00  0.00    -0.275 OA
BRANCH  20  23
ATOM     23  C   UNL     1       3.771  -6.361  -3.885  0.00  0.00    +0.108 C 
BRANCH  23  24
ATOM     24  C   UNL     1       4.181  -6.482  -2.416  0.00  0.00    +0.016 C 
ATOM     25  C   UNL     1       5.621  -6.991  -2.329  0.00  0.00    +0.005 C 
ENDBRANCH  23  24
ENDBRANCH  20  23
BRANCH  21  26
ATOM     26  C   UNL     1       1.499  -8.054  -3.976  0.00  0.00    +0.131 C 
BRANCH  26  27
ATOM     27  C   UNL     1       0.143  -8.701  -4.094  0.00  0.00    -0.039 A 
ATOM     28  C   UNL     1      -0.608  -8.944  -2.958  0.00  0.00    +0.005 A 
ATOM     29  C   UNL     1      -1.851  -9.538  -3.066  0.00  0.00    +0.015 A 
ATOM     30  C   UNL     1      -2.344  -9.889  -4.310  0.00  0.00    +0.018 A 
ATOM     31  C   UNL     1      -1.592  -9.647  -5.445  0.00  0.00    +0.015 A 
ATOM     32  C   UNL     1      -0.351  -9.048  -5.337  0.00  0.00    +0.005 A 
ATOM     33 BR   UNL     1      -4.045 -10.703  -4.457  0.00  0.00    -0.050 Br
ENDBRANCH  26  27
ENDBRANCH  21  26
ENDBRANCH   1  20
TORSDOF 11
