REMARK  Name = ZINC38685160
REMARK  15 active torsions:
REMARK  status: ('A' for Active; 'I' for Inactive)
REMARK    1  A    between atoms: C_1  and  C_2
REMARK    2  A    between atoms: C_2  and  C_3
REMARK    3  A    between atoms: C_3  and  C_4
REMARK    4  A    between atoms: C_4  and  O_5
REMARK    5  A    between atoms: O_5  and  C_6
REMARK    6  A    between atoms: C_10  and  C_12
REMARK    7  A    between atoms: C_17  and  O_26
REMARK    8  A    between atoms: C_21  and  N_25
REMARK    9  A    between atoms: C_22  and  C_23
REMARK   10  A    between atoms: O_26  and  C_27
REMARK   11  A    between atoms: C_27  and  C_29
REMARK   12  A    between atoms: C_32  and  O_35
REMARK   13  A    between atoms: O_35  and  C_36
REMARK   14  A    between atoms: C_36  and  C_37
REMARK   15  A    between atoms: C_36  and  C_38
REMARK                            x       y       z     vdW  Elec       q    Type
REMARK                         _______ _______ _______ _____ _____    ______ ____
ROOT
ATOM      1  C   UNL     1       2.681  -5.873  -5.152  0.00  0.00    +0.098 C 
ATOM      2  C   UNL     1       1.750  -6.770  -5.924  0.00  0.00    +0.008 A 
ATOM      3  C   UNL     1       0.776  -6.207  -6.731  0.00  0.00    +0.012 A 
ATOM      4  C   UNL     1      -0.086  -7.014  -7.445  0.00  0.00    +0.047 A 
ATOM      5  C   UNL     1       0.021  -8.396  -7.356  0.00  0.00    +0.135 A 
ATOM      6  C   UNL     1       0.995  -8.961  -6.549  0.00  0.00    +0.093 A 
ATOM      7  C   UNL     1       1.861  -8.148  -5.831  0.00  0.00    +0.138 A 
ATOM      8  O   UNL     1       2.809  -8.718  -5.046  0.00  0.00    -0.441 OA
ATOM      9  C   UNL     1       3.878  -8.002  -4.659  0.00  0.00    +0.199 C 
ATOM     10  C   UNL     1       3.879  -6.651  -4.686  0.00  0.00    +0.098 C 
ENDROOT
BRANCH   1  15
ATOM     11  C   UNL     1       1.136  -3.424  -2.725  0.00  0.00    +0.121 A 
ATOM     12  C   UNL     1       0.623  -4.279  -1.761  0.00  0.00    +0.045 A 
ATOM     13  C   UNL     1       0.778  -5.645  -1.899  0.00  0.00    +0.004 A 
ATOM     14  C   UNL     1       1.444  -6.159  -2.996  0.00  0.00    +0.005 A 
ATOM     15  C   UNL     1       1.956  -5.309  -3.958  0.00  0.00    -0.031 A 
ATOM     16  C   UNL     1       1.798  -3.942  -3.828  0.00  0.00    +0.050 A 
BRANCH  11  17
ATOM     17  O   UNL     1       0.984  -2.080  -2.593  0.00  0.00    -0.492 OA
BRANCH  17  18
ATOM     18  C   UNL     1       0.291  -1.617  -1.432  0.00  0.00    +0.229 C 
BRANCH  18  19
ATOM     19  C   UNL     1       0.219  -0.088  -1.456  0.00  0.00    +0.041 C 
BRANCH  19  21
ATOM     20  C   UNL     1      -0.594   1.936  -0.238  0.00  0.00    +0.004 C 
ATOM     21  C   UNL     1      -0.523   0.407  -0.214  0.00  0.00    -0.000 C 
ENDBRANCH  19  21
ENDBRANCH  18  19
ENDBRANCH  17  18
ENDBRANCH  11  17
ENDBRANCH   1  15
BRANCH   9  22
ATOM     22  N   UNL     1       5.000  -8.662  -4.224  0.00  0.00    -0.328 N 
ATOM     23  H   UNL     1       5.013  -9.632  -4.198  0.00  0.00    +0.145 HD
ATOM     24  H   UNL     1       5.780  -8.159  -3.941  0.00  0.00    +0.145 HD
ENDBRANCH   9  22
BRANCH  10  25
ATOM     25  C   UNL     1       5.051  -5.947  -4.259  0.00  0.00    +0.101 C 
ATOM     26  N   UNL     1       5.980  -5.388  -3.921  0.00  0.00    -0.191 NA
ENDBRANCH  10  25
BRANCH   5  27
ATOM     27  O   UNL     1      -0.827  -9.191  -8.059  0.00  0.00    -0.422 OA
BRANCH  27  28
ATOM     28  C   UNL     1      -0.730  -9.188  -9.403  0.00  0.00    +0.344 C 
ATOM     29  O   UNL     1       0.160  -8.565  -9.947  0.00  0.00    -0.245 OA
BRANCH  28  30
ATOM     30  C   UNL     1      -1.704  -9.941 -10.214  0.00  0.00    +0.060 A 
ATOM     31  C   UNL     1      -2.733 -10.654  -9.591  0.00  0.00    +0.018 A 
ATOM     32  C   UNL     1      -3.640 -11.356 -10.353  0.00  0.00    +0.046 A 
ATOM     33  C   UNL     1      -3.535 -11.356 -11.739  0.00  0.00    +0.121 A 
ATOM     34  C   UNL     1      -2.514 -10.649 -12.362  0.00  0.00    +0.046 A 
ATOM     35  C   UNL     1      -1.605  -9.940 -11.609  0.00  0.00    +0.018 A 
BRANCH  33  36
ATOM     36  O   UNL     1      -4.432 -12.049 -12.486  0.00  0.00    -0.489 OA
BRANCH  36  37
ATOM     37  C   UNL     1      -5.502 -12.688 -11.787  0.00  0.00    +0.167 C 
ATOM     38  C   UNL     1      -6.614 -11.672 -11.518  0.00  0.00    +0.051 C 
ATOM     39  C   UNL     1      -6.053 -13.835 -12.636  0.00  0.00    +0.051 C 
ENDBRANCH  36  37
ENDBRANCH  33  36
ENDBRANCH  28  30
ENDBRANCH  27  28
ENDBRANCH   5  27
TORSDOF 12
