REMARK  Name = ZINC32948276
REMARK  6 active torsions:
REMARK  status: ('A' for Active; 'I' for Inactive)
REMARK    1  A    between atoms: C_1  and  O_2
REMARK    2  A    between atoms: O_2  and  C_3
REMARK    3  A    between atoms: C_7  and  N_9
REMARK    4  A    between atoms: C_16  and  S_18
REMARK    5  A    between atoms: S_18  and  C_19
REMARK    6  A    between atoms: C_19  and  C_20
REMARK                            x       y       z     vdW  Elec       q    Type
REMARK                         _______ _______ _______ _____ _____    ______ ____
ROOT
ATOM      1  N   UNL     1      -3.774   3.738   6.950  0.00  0.00    -0.281 N 
ATOM      2  C   UNL     1      -3.346   2.434   6.946  0.00  0.00    +0.161 A 
ATOM      3  C   UNL     1      -3.593   1.703   8.110  0.00  0.00    +0.122 A 
ATOM      4  C   UNL     1      -3.212   0.374   8.237  0.00  0.00    +0.268 A 
ATOM      5  O   UNL     1      -3.436  -0.247   9.263  0.00  0.00    -0.267 OA
ATOM      6  N   UNL     1      -2.587  -0.216   7.189  0.00  0.00    -0.301 N 
ATOM      7  H   UNL     1      -2.279  -1.270   7.255  0.00  0.00    +0.171 HD
ATOM      8  C   UNL     1      -2.352   0.517   6.064  0.00  0.00    +0.172 A 
ATOM      9  N   UNL     1      -2.713   1.770   5.948  0.00  0.00    -0.204 NA
ATOM     10  S   UNL     1      -4.413   2.877   9.159  0.00  0.00    -0.055 S 
ATOM     11  C   UNL     1      -4.394   4.260   8.029  0.00  0.00    +0.132 A 
ATOM     12  S   UNL     1      -5.005   5.843   8.257  0.00  0.00    -0.024 S 
ENDROOT
BRANCH   1  17
ATOM     13  C   UNL     1      -2.519   6.428   4.773  0.00  0.00    +0.122 A 
ATOM     14  C   UNL     1      -3.155   6.116   3.579  0.00  0.00    +0.046 A 
ATOM     15  C   UNL     1      -3.992   5.019   3.507  0.00  0.00    +0.006 A 
ATOM     16  C   UNL     1      -4.199   4.230   4.623  0.00  0.00    +0.026 A 
ATOM     17  C   UNL     1      -3.565   4.538   5.819  0.00  0.00    +0.053 A 
ATOM     18  C   UNL     1      -2.728   5.643   5.895  0.00  0.00    +0.071 A 
BRANCH  13  20
ATOM     19  C   UNL     1      -1.532   8.276   3.648  0.00  0.00    +0.277 C 
ATOM     20  O   UNL     1      -1.696   7.508   4.842  0.00  0.00    -0.495 OA
ENDBRANCH  13  20
ENDBRANCH   1  17
BRANCH   8  21
ATOM     21  S   UNL     1      -1.534  -0.256   4.708  0.00  0.00    -0.078 S 
BRANCH  21  22
ATOM     22  C   UNL     1      -1.496   1.123   3.537  0.00  0.00    +0.173 C 
BRANCH  22  23
ATOM     23  C   UNL     1      -0.821   0.682   2.263  0.00  0.00    +0.226 C 
ATOM     24  O   UNL     1      -0.406  -0.452   2.158  0.00  0.00    -0.275 OA
ATOM     25  N   UNL     1      -0.678   1.549   1.241  0.00  0.00    -0.301 N 
ATOM     26  C   UNL     1      -0.013   1.086   0.008  0.00  0.00    +0.108 C 
ATOM     27  C   UNL     1      -0.731   1.583  -1.259  0.00  0.00    +0.019 C 
ATOM     28  C   UNL     1      -2.227   1.500  -1.074  0.00  0.00    +0.002 C 
ATOM     29  C   UNL     1      -2.742   2.827  -0.526  0.00  0.00    +0.002 C 
ATOM     30  C   UNL     1      -2.659   2.952   0.938  0.00  0.00    +0.019 C 
ATOM     31  C   UNL     1      -1.182   2.895   1.399  0.00  0.00    +0.108 C 
ENDBRANCH  22  23
ENDBRANCH  21  22
ENDBRANCH   8  21
TORSDOF 5
