REMARK  Name = ZINC21473158
REMARK  13 active torsions:
REMARK  status: ('A' for Active; 'I' for Inactive)
REMARK    1  A    between atoms: C_1  and  C_2
REMARK    2  A    between atoms: C_2  and  C_3
REMARK    3  A    between atoms: C_3  and  C_4
REMARK    4  A    between atoms: C_4  and  N_5
REMARK    5  A    between atoms: N_5  and  C_6
REMARK    6  A    between atoms: C_7  and  N_19
REMARK    7  A    between atoms: N_8  and  C_15
REMARK    8  A    between atoms: C_15  and  C_16
REMARK    9  A    between atoms: C_16  and  C_17
REMARK   10  A    between atoms: C_16  and  C_18
REMARK   11  A    between atoms: C_20  and  C_22
REMARK   12  A    between atoms: C_22  and  N_23
REMARK   13  A    between atoms: C_27  and  C_29
REMARK                            x       y       z     vdW  Elec       q    Type
REMARK                         _______ _______ _______ _____ _____    ______ ____
ROOT
ATOM      1  N   UNL     1      -5.194   1.240  -0.996  0.00  0.00    -0.266 N 
ATOM      2  C   UNL     1      -5.136   2.554  -1.297  0.00  0.00    +0.203 C 
ATOM      3  O   UNL     1      -4.059   3.102  -1.414  0.00  0.00    -0.277 OA
ENDROOT
BRANCH   1   4
ATOM      4  C   UNL     1      -4.008   0.480  -0.919  0.00  0.00    +0.140 A 
ATOM      5  C   UNL     1      -3.766  -0.536  -1.821  0.00  0.00    +0.127 A 
ATOM      6  N   UNL     1      -2.602  -1.262  -1.717  0.00  0.00    -0.280 N 
ATOM      7  C   UNL     1      -1.707  -0.979  -0.754  0.00  0.00    +0.331 A 
ATOM      8  O   UNL     1      -0.682  -1.630  -0.682  0.00  0.00    -0.246 OA
ATOM      9  N   UNL     1      -1.924   0.010   0.130  0.00  0.00    -0.273 N 
ATOM     10  H   UNL     1      -1.178   0.224   0.910  0.00  0.00    +0.173 HD
ATOM     11  C   UNL     1      -3.049   0.749   0.075  0.00  0.00    +0.277 A 
ATOM     12  O   UNL     1      -3.236   1.643   0.882  0.00  0.00    -0.266 OA
BRANCH   5  13
ATOM     13  N   UNL     1      -4.678  -0.822  -2.808  0.00  0.00    -0.343 N 
ATOM     14  H   UNL     1      -4.479  -1.633  -3.524  0.00  0.00    +0.144 HD
ATOM     15  H   UNL     1      -5.608  -0.239  -2.883  0.00  0.00    +0.144 HD
ENDBRANCH   5  13
BRANCH   6  16
ATOM     16  C   UNL     1      -2.334  -2.347  -2.665  0.00  0.00    +0.131 C 
BRANCH  16  17
ATOM     17  C   UNL     1      -2.895  -3.658  -2.112  0.00  0.00    +0.003 C 
ATOM     18  C   UNL     1      -2.507  -4.811  -3.040  0.00  0.00    +0.009 C 
ATOM     19  C   UNL     1      -4.420  -3.564  -2.025  0.00  0.00    +0.009 C 
ENDBRANCH  16  17
ENDBRANCH   6  16
ENDBRANCH   1   4
BRANCH   1  20
ATOM     20  C   UNL     1      -6.490   0.602  -0.750  0.00  0.00    +0.114 C 
BRANCH  20  21
ATOM     21  C   UNL     1      -6.885   0.799   0.716  0.00  0.00    +0.019 C 
BRANCH  21  23
ATOM     22  C   UNL     1      -8.633   0.331   2.438  0.00  0.00    +0.004 C 
ATOM     23  C   UNL     1      -8.238   0.134   0.973  0.00  0.00    -0.002 C 
ENDBRANCH  21  23
ENDBRANCH  20  21
ENDBRANCH   1  20
BRANCH   2  24
ATOM     24  C   UNL     1      -6.407   3.341  -1.488  0.00  0.00    +0.020 C 
BRANCH  24  25
ATOM     25  N   UNL     1      -6.075   4.736  -1.806  0.00  0.00    +0.390 N 
ATOM     26  C   UNL     1      -5.601   5.455  -0.604  0.00  0.00    -0.077 C 
ATOM     27  C   UNL     1      -6.106   6.908  -0.786  0.00  0.00    -0.020 C 
ATOM     28  C   UNL     1      -7.492   6.677  -1.445  0.00  0.00    -0.012 C 
ATOM     29  C   UNL     1      -7.248   5.448  -2.345  0.00  0.00    -0.030 C 
ATOM     30  H   UNL     1      -5.279   4.709  -2.564  0.00  0.00    -0.080 HD
BRANCH  29  31
ATOM     31  C   UNL     1      -8.453   4.543  -2.320  0.00  0.00    -0.024 A 
ATOM     32  C   UNL     1      -9.249   4.153  -3.345  0.00  0.00    +0.009 A 
ATOM     33  C   UNL     1     -10.310   3.305  -3.086  0.00  0.00    +0.008 A 
ATOM     34  C   UNL     1     -10.528   2.898  -1.812  0.00  0.00    +0.045 A 
ATOM     35  S   UNL     1      -9.208   3.714  -0.931  0.00  0.00    -0.103 S 
ENDBRANCH  29  31
ENDBRANCH  24  25
ENDBRANCH   2  24
TORSDOF 10
