REMARK  Name = ZINC02334827
REMARK  12 active torsions:
REMARK  status: ('A' for Active; 'I' for Inactive)
REMARK    1  A    between atoms: C_1  and  C_2
REMARK    2  A    between atoms: C_2  and  O_3
REMARK    3  A    between atoms: O_3  and  C_4
REMARK    4  A    between atoms: C_8  and  C_11
REMARK    5  A    between atoms: C_9  and  O_10
REMARK    6  A    between atoms: N_12  and  N_13
REMARK    7  A    between atoms: C_14  and  C_16
REMARK    8  A    between atoms: C_16  and  S_17
REMARK    9  A    between atoms: S_17  and  C_18
REMARK   10  A    between atoms: C_21  and  S_23
REMARK   11  A    between atoms: S_23  and  C_24
REMARK   12  A    between atoms: C_24  and  C_25
REMARK                            x       y       z     vdW  Elec       q    Type
REMARK                         _______ _______ _______ _____ _____    ______ ____
ROOT
ATOM      1  C   UNL     1       3.304  -1.183   6.471  0.00  0.00    +0.173 C 
ENDROOT
BRANCH   1   3
ATOM      2  N   UNL     1       4.996  -2.342   7.853  0.00  0.00    -0.206 N 
ATOM      3  C   UNL     1       3.886  -1.580   7.803  0.00  0.00    +0.242 C 
ATOM      4  O   UNL     1       3.355  -1.213   8.830  0.00  0.00    -0.273 OA
ATOM      5  H   UNL     1       5.421  -2.635   7.032  0.00  0.00    +0.177 HD
BRANCH   2   7
ATOM      6  C   UNL     1       6.606  -3.445   9.140  0.00  0.00    +0.142 C 
ATOM      7  N   UNL     1       5.537  -2.711   9.092  0.00  0.00    -0.188 NA
BRANCH   6  12
ATOM      8  C   UNL     1       7.110  -3.783  12.854  0.00  0.00    +0.162 A 
ATOM      9  C   UNL     1       8.253  -4.567  12.894  0.00  0.00    +0.049 A 
ATOM     10  C   UNL     1       8.856  -4.984  11.721  0.00  0.00    +0.004 A 
ATOM     11  C   UNL     1       8.326  -4.624  10.499  0.00  0.00    +0.013 A 
ATOM     12  C   UNL     1       7.175  -3.833  10.443  0.00  0.00    +0.040 A 
ATOM     13  C   UNL     1       6.568  -3.408  11.631  0.00  0.00    +0.167 A 
BRANCH  13  14
ATOM     14  O   UNL     1       5.452  -2.634  11.588  0.00  0.00    -0.503 OA
ATOM     15  H   UNL     1       4.625  -3.136  11.579  0.00  0.00    +0.292 HD
ENDBRANCH  13  14
BRANCH   8  16
ATOM     16  O   UNL     1       6.523  -3.377  14.012  0.00  0.00    -0.489 OA
BRANCH  16  18
ATOM     17  C   UNL     1       6.342  -3.245  16.418  0.00  0.00    +0.048 C 
ATOM     18  C   UNL     1       7.138  -3.795  15.232  0.00  0.00    +0.226 C 
ENDBRANCH  16  18
ENDBRANCH   8  16
ENDBRANCH   6  12
ENDBRANCH   2   7
ENDBRANCH   1   3
BRANCH   1  19
ATOM     19  S   UNL     1       1.825  -0.167   6.735  0.00  0.00    -0.088 S 
BRANCH  19  20
ATOM     20  C   UNL     1       1.270   0.211   5.106  0.00  0.00    +0.160 A 
ATOM     21  N   UNL     1       1.785  -0.144   3.944  0.00  0.00    -0.134 NA
ATOM     22  N   UNL     1       1.186   0.267   2.776  0.00  0.00    -0.134 NA
ATOM     23  C   UNL     1       0.099   1.013   2.823  0.00  0.00    +0.160 A 
ATOM     24  S   UNL     1      -0.135   1.184   4.586  0.00  0.00    -0.033 S 
BRANCH  23  25
ATOM     25  S   UNL     1      -0.862   1.671   1.500  0.00  0.00    -0.092 S 
BRANCH  25  26
ATOM     26  C   UNL     1      -0.013   1.086   0.008  0.00  0.00    +0.112 C 
BRANCH  26  27
ATOM     27  C   UNL     1      -0.742   1.585  -1.213  0.00  0.00    -0.029 A 
ATOM     28  C   UNL     1      -1.735   0.839  -1.769  0.00  0.00    +0.005 A 
ATOM     29  C   UNL     1      -2.425   1.287  -2.894  0.00  0.00    +0.001 A 
ATOM     30  C   UNL     1      -2.116   2.478  -3.477  0.00  0.00    +0.008 A 
ATOM     31  C   UNL     1      -1.092   3.273  -2.934  0.00  0.00    -0.018 A 
ATOM     32  C   UNL     1      -0.395   2.820  -1.786  0.00  0.00    -0.014 A 
ATOM     33  C   UNL     1       0.629   3.615  -1.244  0.00  0.00    +0.009 A 
ATOM     34  C   UNL     1       0.938   4.806  -1.827  0.00  0.00    +0.001 A 
ATOM     35  C   UNL     1       0.252   5.251  -2.956  0.00  0.00    +0.001 A 
ATOM     36  C   UNL     1      -0.745   4.508  -3.509  0.00  0.00    +0.008 A 
ENDBRANCH  26  27
ENDBRANCH  25  26
ENDBRANCH  23  25
ENDBRANCH  19  20
ENDBRANCH   1  19
TORSDOF 11
