REMARK  Name = ZINC16183249
REMARK  6 active torsions:
REMARK  status: ('A' for Active; 'I' for Inactive)
REMARK    1  A    between atoms: C_3  and  C_10
REMARK    2  A    between atoms: C_5  and  N_7
REMARK    3  A    between atoms: C_12  and  C_24
REMARK    4  A    between atoms: C_14  and  C_19
REMARK    5  A    between atoms: C_14  and  O_23
REMARK    6  A    between atoms: C_24  and  C_26
REMARK                            x       y       z     vdW  Elec       q    Type
REMARK                         _______ _______ _______ _____ _____    ______ ____
ROOT
ATOM      1  C   UNL     1       2.144   1.462  -1.361  0.00  0.00    +0.120 C 
ATOM      2  C   UNL     1       1.540   1.979  -0.051  0.00  0.00    +0.144 C 
ATOM      3  C   UNL     1       0.127   1.405   0.095  0.00  0.00    +0.243 C 
ATOM      4  N   UNL     1       0.191  -0.055   0.012  0.00  0.00    -0.264 N 
ATOM      5  C   UNL     1       1.145  -0.672  -0.701  0.00  0.00    +0.302 C 
ATOM      6  O   UNL     1       1.147  -1.887  -0.747  0.00  0.00    -0.253 OA
ATOM      7  N   UNL     1       2.098  -0.002  -1.366  0.00  0.00    -0.292 N 
ATOM      8  H   UNL     1      -0.470  -0.588   0.481  0.00  0.00    +0.153 HD
ATOM      9  H   UNL     1       2.771  -0.496  -1.860  0.00  0.00    +0.151 HD
ENDROOT
BRANCH   1  12
ATOM     10  C   UNL     1       5.896   1.613  -0.973  0.00  0.00    +0.003 A 
ATOM     11  C   UNL     1       4.583   1.194  -0.867  0.00  0.00    +0.005 A 
ATOM     12  C   UNL     1       3.575   1.921  -1.472  0.00  0.00    -0.024 A 
ATOM     13  C   UNL     1       3.878   3.073  -2.174  0.00  0.00    +0.038 A 
ATOM     14  C   UNL     1       5.191   3.494  -2.276  0.00  0.00    +0.127 A 
ATOM     15  C   UNL     1       6.200   2.764  -1.675  0.00  0.00    +0.033 A 
BRANCH  14  16
ATOM     16  N   UNL     1       5.516   4.727  -3.028  0.00  0.00    +0.056 N 
ATOM     17  O   UNL     1       4.627   5.370  -3.557  0.00  0.00    -0.126 OA
ATOM     18  O   UNL     1       6.673   5.098  -3.118  0.00  0.00    -0.126 OA
ENDBRANCH  14  16
ENDBRANCH   1  12
BRANCH   3  19
ATOM     19  C   UNL     1      -0.454   1.814   1.450  0.00  0.00    +0.436 C 
ATOM     20  F   UNL     1       0.285   1.213   2.475  0.00  0.00    -0.166 F 
ATOM     21  F   UNL     1      -0.390   3.205   1.584  0.00  0.00    -0.166 F 
ATOM     22  F   UNL     1      -1.787   1.398   1.531  0.00  0.00    -0.166 F 
ENDBRANCH   3  19
BRANCH   3  23
ATOM     23  O   UNL     1      -0.704   1.907  -0.953  0.00  0.00    -0.364 OA
ATOM     24  H   UNL     1      -1.613   1.580  -0.925  0.00  0.00    +0.212 HD
ENDBRANCH   3  23
BRANCH   2  25
ATOM     25  C   UNL     1       2.391   1.532   1.110  0.00  0.00    +0.173 C 
ATOM     26  O   UNL     1       2.642   0.355   1.259  0.00  0.00    -0.292 OA
BRANCH  25  27
ATOM     27  C   UNL     1       2.916   2.523   2.061  0.00  0.00    +0.018 A 
ATOM     28  C   UNL     1       2.726   3.890   1.829  0.00  0.00    +0.013 A 
ATOM     29  C   UNL     1       3.217   4.812   2.727  0.00  0.00    +0.020 A 
ATOM     30  C   UNL     1       3.907   4.390   3.853  0.00  0.00    +0.041 A 
ATOM     31  C   UNL     1       4.103   3.038   4.086  0.00  0.00    +0.020 A 
ATOM     32  C   UNL     1       3.613   2.104   3.199  0.00  0.00    +0.013 A 
ATOM     33 CL   UNL     1       4.528   5.560   4.975  0.00  0.00    -0.084 Cl
ENDBRANCH  25  27
ENDBRANCH   2  25
TORSDOF 6
