REMARK  Name = ZINC39194470
REMARK  10 active torsions:
REMARK  status: ('A' for Active; 'I' for Inactive)
REMARK    1  A    between atoms: C_1  and  C_2
REMARK    2  A    between atoms: C_2  and  C_3
REMARK    3  A    between atoms: C_2  and  C_4
REMARK    4  A    between atoms: C_4  and  C_6
REMARK    5  A    between atoms: C_4  and  N_26
REMARK    6  A    between atoms: C_6  and  O_8
REMARK    7  A    between atoms: O_8  and  C_9
REMARK    8  A    between atoms: C_9  and  C_10
REMARK    9  A    between atoms: N_15  and  C_16
REMARK   10  A    between atoms: C_27  and  C_29
REMARK                            x       y       z     vdW  Elec       q    Type
REMARK                         _______ _______ _______ _____ _____    ______ ____
ROOT
ATOM      1  O   UNL     1      -0.825  -2.699  -1.006  0.00  0.00    -0.454 OA
ENDROOT
BRANCH   1   2
ATOM      2  C   UNL     1      -1.400  -2.041   0.013  0.00  0.00    +0.328 C 
ATOM      3  O   UNL     1      -1.898  -2.657   0.925  0.00  0.00    -0.249 OA
BRANCH   2   4
ATOM      4  C   UNL     1      -1.423  -0.534   0.019  0.00  0.00    +0.185 C 
BRANCH   4   5
ATOM      5  N   UNL     1      -2.101  -0.062   1.229  0.00  0.00    -0.298 N 
ATOM      6  C   UNL     1      -2.689   1.151   1.242  0.00  0.00    +0.250 C 
ATOM      7  O   UNL     1      -2.656   1.853   0.250  0.00  0.00    -0.270 OA
ATOM      8  H   UNL     1      -2.127  -0.622   2.021  0.00  0.00    +0.150 HD
BRANCH   6   9
ATOM      9  C   UNL     1      -3.372   1.627   2.461  0.00  0.00    +0.107 A 
ATOM     10  C   UNL     1      -2.666   2.355   3.424  0.00  0.00    +0.138 A 
ATOM     11  C   UNL     1      -3.313   2.797   4.562  0.00  0.00    +0.039 A 
ATOM     12  C   UNL     1      -4.655   2.522   4.750  0.00  0.00    +0.006 A 
ATOM     13  C   UNL     1      -5.361   1.802   3.803  0.00  0.00    +0.039 A 
ATOM     14  C   UNL     1      -4.731   1.357   2.656  0.00  0.00    +0.138 A 
ATOM     15  F   UNL     1      -5.423   0.659   1.730  0.00  0.00    -0.205 F 
ATOM     16  F   UNL     1      -1.354   2.625   3.243  0.00  0.00    -0.205 F 
ENDBRANCH   6   9
ENDBRANCH   4   5
BRANCH   4  18
ATOM     17  C   UNL     1      -0.013   1.528   0.004  0.00  0.00    +0.009 C 
ATOM     18  C   UNL     1       0.011  -0.001  -0.002  0.00  0.00    +0.014 C 
ATOM     19  C   UNL     1       0.761  -0.505   1.232  0.00  0.00    +0.009 C 
ENDBRANCH   4  18
ENDBRANCH   2   4
ENDBRANCH   1   2
BRANCH   1  20
ATOM     20  C   UNL     1      -0.839  -4.126  -0.947  0.00  0.00    +0.328 C 
BRANCH  20  21
ATOM     21  C   UNL     1      -0.154  -4.686  -2.167  0.00  0.00    +0.258 C 
ATOM     22  O   UNL     1       0.301  -3.937  -3.005  0.00  0.00    -0.272 OA
ATOM     23  N   UNL     1      -0.047  -6.020  -2.328  0.00  0.00    -0.237 N 
ATOM     24  C   UNL     1       0.565  -6.521  -3.419  0.00  0.00    +0.310 C 
ATOM     25  O   UNL     1       1.022  -5.769  -4.258  0.00  0.00    -0.252 OA
ATOM     26  N   UNL     1       0.672  -7.855  -3.579  0.00  0.00    -0.269 N 
ATOM     27  H   UNL     1      -0.411  -6.620  -1.658  0.00  0.00    +0.159 HD
ATOM     28  H   UNL     1       0.368  -8.453  -2.879  0.00  0.00    +0.156 HD
BRANCH  26  29
ATOM     29  C   UNL     1       1.222  -8.377  -4.758  0.00  0.00    +0.038 A 
ATOM     30  C   UNL     1       0.728  -9.561  -5.288  0.00  0.00    +0.027 A 
ATOM     31  C   UNL     1       1.270 -10.077  -6.450  0.00  0.00    +0.051 A 
ATOM     32  C   UNL     1       2.308  -9.414  -7.089  0.00  0.00    +0.162 A 
ATOM     33  C   UNL     1       2.802  -8.227  -6.561  0.00  0.00    +0.164 A 
ATOM     34  C   UNL     1       2.255  -7.708  -5.397  0.00  0.00    +0.072 A 
ATOM     35  O   UNL     1       3.814  -7.558  -7.178  0.00  0.00    -0.485 OA
ATOM     36  C   UNL     1       4.582  -8.295  -8.136  0.00  0.00    +0.270 C 
ATOM     37  C   UNL     1       3.611  -9.058  -9.047  0.00  0.00    +0.270 C 
ATOM     38  O   UNL     1       2.832  -9.940  -8.231  0.00  0.00    -0.485 OA
ENDBRANCH  26  29
ENDBRANCH  20  21
ENDBRANCH   1  20
TORSDOF 8
