REMARK  Name = ZINC05945320
REMARK  14 active torsions:
REMARK  status: ('A' for Active; 'I' for Inactive)
REMARK    1  A    between atoms: C_1  and  C_2
REMARK    2  A    between atoms: C_2  and  C_31
REMARK    3  A    between atoms: C_4  and  N_10
REMARK    4  A    between atoms: C_6  and  C_8
REMARK    5  A    between atoms: C_6  and  C_9
REMARK    6  A    between atoms: N_10  and  C_11
REMARK    7  A    between atoms: N_10  and  C_20
REMARK    8  A    between atoms: C_11  and  C_12
REMARK    9  A    between atoms: C_17  and  O_18
REMARK   10  A    between atoms: O_18  and  C_19
REMARK   11  A    between atoms: C_20  and  N_22
REMARK   12  A    between atoms: N_22  and  C_23
REMARK   13  A    between atoms: C_28  and  O_29
REMARK   14  A    between atoms: O_29  and  C_30
REMARK                            x       y       z     vdW  Elec       q    Type
REMARK                         _______ _______ _______ _____ _____    ______ ____
ROOT
ATOM      1  N   UNL     1       2.337  -1.220  -2.701  0.00  0.00    -0.305 N 
ENDROOT
BRANCH   1   5
ATOM      2  C   UNL     1      -0.253   1.044   0.049  0.00  0.00    -0.010 C 
ATOM      3  C   UNL     1      -0.391  -0.466  -0.173  0.00  0.00    -0.072 C 
ATOM      4  C   UNL     1       0.235  -0.850  -1.510  0.00  0.00    +0.009 C 
ATOM      5  C   UNL     1       1.761  -0.818  -1.412  0.00  0.00    +0.073 C 
ATOM      6  C   UNL     1       2.191  -1.814  -0.335  0.00  0.00    +0.009 C 
ATOM      7  C   UNL     1       1.579  -1.438   1.011  0.00  0.00    -0.072 C 
ATOM      8  N   UNL     1       0.145  -1.216   0.949  0.00  0.00    +0.386 N 
ATOM      9  C   UNL     1       1.831  -2.617   1.978  0.00  0.00    -0.010 C 
ATOM     10  C   UNL     1       2.307  -0.219   1.588  0.00  0.00    -0.010 C 
ATOM     11  C   UNL     1      -1.903  -0.775  -0.267  0.00  0.00    -0.010 C 
ATOM     12  H   UNL     1      -0.145  -0.750   1.814  0.00  0.00    -0.084 HD
ATOM     13  H   UNL     1      -0.321  -2.129   0.976  0.00  0.00    -0.084 HD
ENDBRANCH   1   5
BRANCH   1  14
ATOM     14  C   UNL     1       2.075  -2.443  -3.204  0.00  0.00    +0.138 C 
ATOM     15  S   UNL     1       1.021  -3.504  -2.371  0.00  0.00    -0.018 S 
BRANCH  14  16
ATOM     16  N   UNL     1       2.642  -2.830  -4.364  0.00  0.00    -0.294 N 
ATOM     17  H   UNL     1       3.351  -3.492  -4.360  0.00  0.00    +0.154 HD
BRANCH  16  18
ATOM     18  C   UNL     1       2.206  -2.277  -5.576  0.00  0.00    +0.075 A 
ATOM     19  C   UNL     1       1.270  -1.253  -5.577  0.00  0.00    +0.027 A 
ATOM     20  C   UNL     1       0.843  -0.709  -6.773  0.00  0.00    +0.002 A 
ATOM     21  C   UNL     1       1.346  -1.183  -7.971  0.00  0.00    +0.004 A 
ATOM     22  C   UNL     1       2.279  -2.203  -7.978  0.00  0.00    +0.047 A 
ATOM     23  C   UNL     1       2.716  -2.751  -6.783  0.00  0.00    +0.141 A 
BRANCH  23  24
ATOM     24  O   UNL     1       3.638  -3.751  -6.788  0.00  0.00    -0.493 OA
ATOM     25  C   UNL     1       4.116  -4.185  -8.062  0.00  0.00    +0.277 C 
ENDBRANCH  23  24
ENDBRANCH  16  18
ENDBRANCH  14  16
ENDBRANCH   1  14
BRANCH   1  26
ATOM     26  C   UNL     1       3.198  -0.293  -3.440  0.00  0.00    +0.145 C 
BRANCH  26  27
ATOM     27  C   UNL     1       4.588  -0.329  -2.861  0.00  0.00    +0.011 A 
ATOM     28  C   UNL     1       5.036   0.716  -2.074  0.00  0.00    +0.009 A 
ATOM     29  C   UNL     1       6.312   0.684  -1.542  0.00  0.00    +0.001 A 
ATOM     30  C   UNL     1       7.143  -0.392  -1.796  0.00  0.00    +0.004 A 
ATOM     31  C   UNL     1       6.700  -1.438  -2.581  0.00  0.00    +0.046 A 
ATOM     32  C   UNL     1       5.418  -1.411  -3.112  0.00  0.00    +0.125 A 
BRANCH  32  33
ATOM     33  O   UNL     1       4.978  -2.442  -3.880  0.00  0.00    -0.495 OA
ATOM     34  C   UNL     1       5.843  -3.573  -4.006  0.00  0.00    +0.277 C 
ENDBRANCH  32  33
ENDBRANCH  26  27
ENDBRANCH   1  26
TORSDOF 8
