REMARK  Name = ZINC01376482
REMARK  7 active torsions:
REMARK  status: ('A' for Active; 'I' for Inactive)
REMARK    1  A    between atoms: C_1  and  C_2
REMARK    2  A    between atoms: C_2  and  C_3
REMARK    3  A    between atoms: C_2  and  C_4
REMARK    4  A    between atoms: C_17  and  S_20
REMARK    5  A    between atoms: S_20  and  C_21
REMARK    6  A    between atoms: C_21  and  C_22
REMARK    7  A    between atoms: N_24  and  C_25
REMARK                            x       y       z     vdW  Elec       q    Type
REMARK                         _______ _______ _______ _____ _____    ______ ____
ROOT
ATOM      1  C   UNL     1       8.807  -5.701   6.056  0.00  0.00    +0.121 A 
ATOM      2  N   UNL     1       9.621  -6.476   6.715  0.00  0.00    -0.226 NA
ATOM      3  C   UNL     1      10.811  -6.060   7.140  0.00  0.00    +0.114 A 
ATOM      4  C   UNL     1      11.281  -4.759   6.905  0.00  0.00    +0.056 A 
ATOM      5  C   UNL     1      12.567  -4.443   7.411  0.00  0.00    -0.024 A 
ATOM      6  C   UNL     1      13.241  -5.417   8.064  0.00  0.00    -0.004 A 
ATOM      7  S   UNL     1      12.145  -6.812   8.040  0.00  0.00    -0.073 S 
ATOM      8  C   UNL     1      14.601  -5.327   8.682  0.00  0.00    +0.043 C 
ATOM      9  C   UNL     1      15.291  -4.062   8.149  0.00  0.00    +0.005 C 
ATOM     10  C   UNL     1      14.313  -2.889   8.254  0.00  0.00    +0.005 C 
ATOM     11  C   UNL     1      13.185  -3.058   7.235  0.00  0.00    +0.037 C 
ATOM     12  C   UNL     1      10.345  -3.886   6.162  0.00  0.00    +0.173 A 
ATOM     13  N   UNL     1       9.133  -4.408   5.766  0.00  0.00    -0.257 N 
ATOM     14  C   UNL     1       8.497  -3.391   5.109  0.00  0.00    +0.198 A 
ATOM     15  N   UNL     1       9.296  -2.349   5.139  0.00  0.00    -0.122 NA
ATOM     16  N   UNL     1      10.386  -2.640   5.760  0.00  0.00    -0.128 NA
ENDROOT
BRANCH   1  18
ATOM     17  C   UNL     1       7.691  -7.538   4.820  0.00  0.00    +0.015 C 
ATOM     18  C   UNL     1       7.475  -6.244   5.606  0.00  0.00    +0.049 C 
ATOM     19  C   UNL     1       6.602  -6.531   6.829  0.00  0.00    +0.015 C 
ENDBRANCH   1  18
BRANCH  14  20
ATOM     20  S   UNL     1       6.900  -3.463   4.369  0.00  0.00    -0.076 S 
BRANCH  20  21
ATOM     21  C   UNL     1       6.657  -1.799   3.688  0.00  0.00    +0.173 C 
BRANCH  21  22
ATOM     22  C   UNL     1       5.310  -1.723   3.017  0.00  0.00    +0.227 C 
ATOM     23  O   UNL     1       4.585  -2.695   2.999  0.00  0.00    -0.275 OA
ATOM     24  N   UNL     1       4.910  -0.574   2.436  0.00  0.00    -0.285 N 
ATOM     25  H   UNL     1       5.518   0.180   2.384  0.00  0.00    +0.155 HD
BRANCH  24  26
ATOM     26  C   UNL     1       3.617  -0.469   1.907  0.00  0.00    +0.037 A 
ATOM     27  C   UNL     1       2.565  -1.148   2.506  0.00  0.00    +0.027 A 
ATOM     28  C   UNL     1       1.289  -1.045   1.986  0.00  0.00    +0.051 A 
ATOM     29  C   UNL     1       1.056  -0.266   0.865  0.00  0.00    +0.166 A 
ATOM     30  C   UNL     1       2.110   0.416   0.261  0.00  0.00    +0.168 A 
ATOM     31  C   UNL     1       3.388   0.313   0.783  0.00  0.00    +0.072 A 
ATOM     32  O   UNL     1       1.625   1.106  -0.813  0.00  0.00    -0.453 OA
ATOM     33  C   UNL     1       0.200   1.167  -0.620  0.00  0.00    +0.466 C 
ATOM     34  O   UNL     1      -0.089  -0.003   0.168  0.00  0.00    -0.453 OA
ENDBRANCH  24  26
ENDBRANCH  21  22
ENDBRANCH  20  21
ENDBRANCH  14  20
TORSDOF 5
