REMARK  Name = ZINC01974210
REMARK  9 active torsions:
REMARK  status: ('A' for Active; 'I' for Inactive)
REMARK    1  A    between atoms: C_1  and  C_2
REMARK    2  A    between atoms: C_2  and  O_3
REMARK    3  A    between atoms: O_3  and  C_4
REMARK    4  A    between atoms: C_4  and  C_6
REMARK    5  A    between atoms: C_7  and  C_23
REMARK    6  A    between atoms: C_8  and  C_22
REMARK    7  A    between atoms: C_10  and  N_11
REMARK    8  A    between atoms: C_12  and  C_14
REMARK    9  A    between atoms: C_15  and  C_16
REMARK                            x       y       z     vdW  Elec       q    Type
REMARK                         _______ _______ _______ _____ _____    ______ ____
ROOT
ATOM      1  C   UNL     1       4.907   1.378  -0.032  0.00  0.00    +0.095 A 
ATOM      2  C   UNL     1       5.980   2.355  -0.042  0.00  0.00    +0.008 A 
ATOM      3  C   UNL     1       5.614   3.663  -0.031  0.00  0.00    -0.003 A 
ATOM      4  S   UNL     1       3.836   3.591  -0.015  0.00  0.00    -0.077 S 
ATOM      5  C   UNL     1       3.610   1.875  -0.022  0.00  0.00    +0.087 A 
ATOM      6  C   UNL     1       6.501   4.881  -0.033  0.00  0.00    +0.052 C 
ENDROOT
BRANCH   2   7
ATOM      7  C   UNL     1       7.404   1.946  -0.057  0.00  0.00    -0.016 A 
ATOM      8  C   UNL     1       7.924   1.264  -1.156  0.00  0.00    +0.010 A 
ATOM      9  C   UNL     1       9.252   0.889  -1.167  0.00  0.00    +0.020 A 
ATOM     10  C   UNL     1      10.065   1.180  -0.085  0.00  0.00    +0.041 A 
ATOM     11  C   UNL     1       9.553   1.853   1.011  0.00  0.00    +0.020 A 
ATOM     12  C   UNL     1       8.227   2.237   1.030  0.00  0.00    +0.010 A 
ATOM     13 CL   UNL     1      11.733   0.700  -0.103  0.00  0.00    -0.084 Cl
ENDBRANCH   2   7
BRANCH   5  14
ATOM     14  N   UNL     1       2.421   1.167  -0.015  0.00  0.00    -0.276 N 
ATOM     15  C   UNL     1       1.245   1.825   0.000  0.00  0.00    +0.241 C 
ATOM     16  O   UNL     1       1.228   3.042   0.007  0.00  0.00    -0.270 OA
ATOM     17  H   UNL     1       2.436   0.067  -0.021  0.00  0.00    +0.156 HD
BRANCH  15  18
ATOM     18  C   UNL     1      -0.013   1.076   0.008  0.00  0.00    +0.068 C 
ATOM     19  C   UNL     1      -1.190   1.734   0.017  0.00  0.00    +0.013 C 
BRANCH  19  20
ATOM     20  C   UNL     1      -2.454   0.981   0.019  0.00  0.00    -0.025 A 
ATOM     21  C   UNL     1      -2.439  -0.417   0.005  0.00  0.00    +0.008 A 
ATOM     22  C   UNL     1      -3.628  -1.116   0.013  0.00  0.00    +0.001 A 
ATOM     23  C   UNL     1      -4.834  -0.436   0.022  0.00  0.00    +0.000 A 
ATOM     24  C   UNL     1      -4.857   0.947   0.030  0.00  0.00    +0.001 A 
ATOM     25  C   UNL     1      -3.677   1.660   0.029  0.00  0.00    +0.008 A 
ENDBRANCH  19  20
ENDBRANCH  15  18
ENDBRANCH   5  14
BRANCH   1  26
ATOM     26  C   UNL     1       5.178  -0.059  -0.035  0.00  0.00    +0.342 C 
ATOM     27  O   UNL     1       5.285  -0.655  -1.090  0.00  0.00    -0.245 OA
BRANCH  26  28
ATOM     28  O   UNL     1       5.311  -0.723   1.131  0.00  0.00    -0.461 OA
BRANCH  28  30
ATOM     29  C   UNL     1       5.693  -2.702   2.465  0.00  0.00    +0.048 C 
ATOM     30  C   UNL     1       5.575  -2.126   1.053  0.00  0.00    +0.229 C 
ENDBRANCH  28  30
ENDBRANCH  26  28
ENDBRANCH   1  26
TORSDOF 7
