REMARK  Name = ZINC58831587
REMARK  9 active torsions:
REMARK  status: ('A' for Active; 'I' for Inactive)
REMARK    1  A    between atoms: C_1  and  C_2
REMARK    2  A    between atoms: C_2  and  C_3
REMARK    3  A    between atoms: C_3  and  C_4
REMARK    4  A    between atoms: C_3  and  C_5
REMARK    5  A    between atoms: N_7  and  C_8
REMARK    6  A    between atoms: C_8  and  C_9
REMARK    7  A    between atoms: N_11  and  C_12
REMARK    8  A    between atoms: C_12  and  C_13
REMARK    9  A    between atoms: C_12  and  C_14
REMARK                            x       y       z     vdW  Elec       q    Type
REMARK                         _______ _______ _______ _____ _____    ______ ____
ROOT
ATOM      1  C   UNL     1       1.817  -4.607  -3.667  0.00  0.00    +0.231 C 
ATOM      2  O   UNL     1       2.339  -3.811  -4.419  0.00  0.00    -0.274 OA
ATOM      3  N   UNL     1       1.869  -5.926  -3.940  0.00  0.00    -0.307 N 
ATOM      4  H   UNL     1       1.451  -6.562  -3.338  0.00  0.00    +0.149 HD
ENDROOT
BRANCH   3   5
ATOM      5  C   UNL     1       2.554  -6.398  -5.145  0.00  0.00    +0.100 C 
ATOM      6  C   UNL     1       1.594  -6.339  -6.335  0.00  0.00    +0.033 C 
BRANCH   5   7
ATOM      7  C   UNL     1       3.011  -7.820  -4.939  0.00  0.00    -0.026 A 
ATOM      8  C   UNL     1       2.191  -8.721  -4.285  0.00  0.00    +0.007 A 
ATOM      9  C   UNL     1       2.608 -10.024  -4.095  0.00  0.00    +0.022 A 
ATOM     10  C   UNL     1       3.847 -10.428  -4.559  0.00  0.00    +0.059 A 
ATOM     11  C   UNL     1       4.668  -9.526  -5.215  0.00  0.00    +0.060 A 
ATOM     12  C   UNL     1       4.246  -8.223  -5.409  0.00  0.00    +0.027 A 
ATOM     13 CL   UNL     1       6.223 -10.032  -5.797  0.00  0.00    -0.082 Cl
ATOM     14 CL   UNL     1       4.373 -12.066  -4.320  0.00  0.00    -0.082 Cl
ENDBRANCH   5   7
ENDBRANCH   3   5
BRANCH   1  15
ATOM     15  C   UNL     1       1.112  -4.121  -2.427  0.00  0.00    +0.200 C 
BRANCH  15  18
ATOM     16  C   UNL     1       0.632  -2.000  -1.327  0.00  0.00    +0.216 C 
ATOM     17  O   UNL     1       0.054  -2.616  -0.457  0.00  0.00    -0.276 OA
ATOM     18  N   UNL     1       1.196  -2.660  -2.358  0.00  0.00    -0.306 N 
ATOM     19  H   UNL     1       1.658  -2.168  -3.055  0.00  0.00    +0.149 HD
BRANCH  16  20
ATOM     20  C   UNL     1       0.718  -0.497  -1.257  0.00  0.00    +0.072 C 
ATOM     21  C   UNL     1       2.187  -0.073  -1.207  0.00  0.00    +0.017 C 
BRANCH  20  23
ATOM     22  C   UNL     1      -0.019   1.526   0.010  0.00  0.00    +0.004 C 
ATOM     23  C   UNL     1       0.002  -0.004   0.002  0.00  0.00    +0.009 C 
ENDBRANCH  20  23
ENDBRANCH  16  20
ENDBRANCH  15  18
ENDBRANCH   1  15
TORSDOF 6
