REMARK  Name = ZINC43287638
REMARK  7 active torsions:
REMARK  status: ('A' for Active; 'I' for Inactive)
REMARK    1  A    between atoms: C_1  and  C_2
REMARK    2  A    between atoms: C_2  and  C_3
REMARK    3  A    between atoms: C_3  and  C_5
REMARK    4  A    between atoms: C_3  and  N_23
REMARK    5  A    between atoms: C_5  and  C_7
REMARK    6  A    between atoms: C_5  and  N_13
REMARK    7  A    between atoms: C_20  and  C_22
REMARK                            x       y       z     vdW  Elec       q    Type
REMARK                         _______ _______ _______ _____ _____    ______ ____
ROOT
ATOM      1  C   UNL     1       0.891  -2.126  -1.149  0.00  0.00    +0.079 C 
ENDROOT
BRANCH   1   2
ATOM      2  N   UNL     1       1.686  -2.573   0.003  0.00  0.00    -0.295 NA
ATOM      3  C   UNL     1       2.150  -3.946  -0.182  0.00  0.00    +0.086 C 
ATOM      4  C   UNL     1       3.526  -4.090   0.429  0.00  0.00    +0.034 C 
ATOM      5  C   UNL     1       3.397  -4.571   1.884  0.00  0.00    +0.109 C 
ATOM      6  N   UNL     1       2.270  -3.910   2.570  0.00  0.00    -0.300 N 
ATOM      7  C   UNL     1       1.982  -2.499   2.410  0.00  0.00    +0.123 C 
ATOM      8  C   UNL     1       1.017  -2.294   1.218  0.00  0.00    +0.104 C 
ATOM      9  C   UNL     1       1.478  -4.646   3.374  0.00  0.00    +0.212 C 
ATOM     10  O   UNL     1       0.545  -4.126   3.949  0.00  0.00    -0.276 OA
ATOM     11  C   UNL     1       1.752  -6.116   3.560  0.00  0.00    +0.109 C 
ENDBRANCH   1   2
BRANCH   1  12
ATOM     12  C   UNL     1       0.436  -0.707  -0.925  0.00  0.00    +0.006 A 
ATOM     13  C   UNL     1      -0.786  -0.159  -1.139  0.00  0.00    +0.028 A 
ATOM     14  C   UNL     1      -0.978   1.181  -0.858  0.00  0.00    +0.025 A 
ATOM     15  C   UNL     1       0.062   1.907  -0.378  0.00  0.00    +0.060 A 
ATOM     16  S   UNL     1       1.362   0.686  -0.302  0.00  0.00    -0.099 S 
ATOM     17 BR   UNL     1      -2.664   1.989  -1.141  0.00  0.00    -0.050 Br
ENDBRANCH   1  12
BRANCH   1  18
ATOM     18  C   UNL     1       1.748  -2.192  -2.416  0.00  0.00    -0.053 C 
BRANCH  18  19
ATOM     19  N   UNL     1       0.996  -1.629  -3.545  0.00  0.00    +0.381 N 
ATOM     20  H   UNL     1       0.762  -0.667  -3.347  0.00  0.00    -0.090 HD
ATOM     21  H   UNL     1       1.560  -1.673  -4.380  0.00  0.00    -0.090 HD
ATOM     22  H   UNL     1       0.149  -2.159  -3.683  0.00  0.00    -0.090 HD
ENDBRANCH  18  19
BRANCH  18  24
ATOM     23  C   UNL     1       3.942  -1.552  -3.425  0.00  0.00    +0.002 C 
ATOM     24  C   UNL     1       3.032  -1.388  -2.206  0.00  0.00    -0.018 C 
ENDBRANCH  18  24
ENDBRANCH   1  18
TORSDOF 5
