REMARK  Name = ZINC14546235
REMARK  8 active torsions:
REMARK  status: ('A' for Active; 'I' for Inactive)
REMARK    1  A    between atoms: C_1  and  C_2
REMARK    2  A    between atoms: C_2  and  C_3
REMARK    3  A    between atoms: C_3  and  C_4
REMARK    4  A    between atoms: C_4  and  O_5
REMARK    5  A    between atoms: O_5  and  C_6
REMARK    6  A    between atoms: C_19  and  C_22
REMARK    7  A    between atoms: C_27  and  O_28
REMARK    8  A    between atoms: O_28  and  C_29
REMARK                            x       y       z     vdW  Elec       q    Type
REMARK                         _______ _______ _______ _____ _____    ______ ____
ROOT
ATOM      1  C   UNL     1      -4.847   1.333   3.772  0.00  0.00    +0.121 A 
ATOM      2  C   UNL     1      -4.323   2.031   4.850  0.00  0.00    +0.047 A 
ATOM      3  C   UNL     1      -5.146   2.377   5.903  0.00  0.00    +0.027 A 
ATOM      4  C   UNL     1      -6.489   2.026   5.882  0.00  0.00    +0.032 A 
ATOM      5  C   UNL     1      -7.020   1.331   4.807  0.00  0.00    -0.016 A 
ATOM      6  C   UNL     1      -6.188   0.991   3.749  0.00  0.00    +0.051 A 
ATOM      7  C   UNL     1      -8.461   0.938   4.740  0.00  0.00    +0.049 C 
ATOM      8  C   UNL     1      -8.643  -0.539   4.998  0.00  0.00    -0.023 C 
ATOM      9  C   UNL     1      -9.746  -0.750   5.673  0.00  0.00    -0.030 C 
ATOM     10  C   UNL     1     -10.456   0.560   5.954  0.00  0.00    +0.033 C 
ATOM     11  C   UNL     1      -9.323   1.620   5.820  0.00  0.00    +0.029 C 
ATOM     12  C   UNL     1      -8.566   1.649   7.151  0.00  0.00    +0.108 C 
ATOM     13  N   UNL     1      -7.308   2.379   6.965  0.00  0.00    -0.336 N 
ATOM     14  H   UNL     1      -7.048   3.087   7.575  0.00  0.00    +0.147 HD
ENDROOT
BRANCH  12  15
ATOM     15  C   UNL     1      -9.405   2.343   8.194  0.00  0.00    +0.015 A 
ATOM     16  C   UNL     1     -10.019   1.607   9.189  0.00  0.00    +0.009 A 
ATOM     17  C   UNL     1     -10.789   2.242  10.146  0.00  0.00    +0.001 A 
ATOM     18  C   UNL     1     -10.946   3.616  10.109  0.00  0.00    +0.004 A 
ATOM     19  C   UNL     1     -10.334   4.356   9.116  0.00  0.00    +0.046 A 
ATOM     20  C   UNL     1      -9.557   3.721   8.158  0.00  0.00    +0.125 A 
BRANCH  20  21
ATOM     21  O   UNL     1      -8.950   4.448   7.184  0.00  0.00    -0.495 OA
ATOM     22  C   UNL     1      -9.150   5.863   7.209  0.00  0.00    +0.277 C 
ENDBRANCH  20  21
ENDBRANCH  12  15
BRANCH   1  23
ATOM     23  O   UNL     1      -4.041   0.987   2.732  0.00  0.00    -0.492 OA
BRANCH  23  24
ATOM     24  C   UNL     1      -2.669   1.377   2.817  0.00  0.00    +0.229 C 
BRANCH  24  25
ATOM     25  C   UNL     1      -1.926   0.905   1.566  0.00  0.00    +0.041 C 
BRANCH  25  27
ATOM     26  C   UNL     1       0.286   0.849   0.406  0.00  0.00    +0.004 C 
ATOM     27  C   UNL     1      -0.457   1.322   1.657  0.00  0.00    -0.000 C 
ENDBRANCH  25  27
ENDBRANCH  24  25
ENDBRANCH  23  24
ENDBRANCH   1  23
TORSDOF 6
