REMARK  Name = ZINC03670368
REMARK  13 active torsions:
REMARK  status: ('A' for Active; 'I' for Inactive)
REMARK    1  A    between atoms: C_1  and  N_66
REMARK    2  A    between atoms: C_2  and  C_3
REMARK    3  A    between atoms: C_2  and  N_66
REMARK    4  A    between atoms: C_3  and  N_4
REMARK    5  A    between atoms: C_5  and  C_7
REMARK    6  A    between atoms: C_7  and  O_28
REMARK    7  A    between atoms: N_17  and  C_18
REMARK    8  A    between atoms: C_21  and  O_26
REMARK    9  A    between atoms: C_23  and  O_24
REMARK   10  A    between atoms: O_24  and  C_25
REMARK   11  A    between atoms: O_26  and  C_27
REMARK   12  A    between atoms: C_29  and  C_30
REMARK   13  A    between atoms: C_29  and  N_66
REMARK                            x       y       z     vdW  Elec       q    Type
REMARK                         _______ _______ _______ _____ _____    ______ ____
ROOT
ATOM      1  C   UNL     1       2.460   3.922  -0.002  0.00  0.00    +0.247 C 
ATOM      2  C   UNL     1       1.145   3.178   0.008  0.00  0.00    +0.033 A 
ATOM      3  C   UNL     1      -0.056   3.849   0.023  0.00  0.00    +0.010 A 
ATOM      4  C   UNL     1      -1.242   3.135   0.032  0.00  0.00    +0.001 A 
ATOM      5  C   UNL     1      -1.217   1.752   0.017  0.00  0.00    +0.002 A 
ATOM      6  C   UNL     1      -0.013   1.076   0.008  0.00  0.00    +0.024 A 
ATOM      7  C   UNL     1       1.179   1.788   0.000  0.00  0.00    +0.043 A 
ATOM      8  N   UNL     1       2.406   1.124  -0.015  0.00  0.00    -0.269 N 
ATOM      9  C   UNL     1       3.582   1.765  -0.023  0.00  0.00    +0.314 C 
ATOM     10  O   UNL     1       4.603   1.105  -0.035  0.00  0.00    -0.252 OA
ATOM     11  N   UNL     1       3.686   3.107  -0.017  0.00  0.00    -0.211 N 
ATOM     12  H   UNL     1       2.408   0.154  -0.020  0.00  0.00    +0.156 HD
ENDROOT
BRANCH  11  13
ATOM     13  C   UNL     1       4.948   3.721  -0.027  0.00  0.00    +0.083 A 
ATOM     14  C   UNL     1       5.563   4.026  -1.232  0.00  0.00    +0.031 A 
ATOM     15  C   UNL     1       6.803   4.635  -1.242  0.00  0.00    +0.048 A 
ATOM     16  C   UNL     1       7.440   4.935  -0.046  0.00  0.00    +0.124 A 
ATOM     17  C   UNL     1       6.832   4.627   1.161  0.00  0.00    +0.093 A 
ATOM     18  C   UNL     1       5.587   4.021   1.174  0.00  0.00    +0.145 A 
BRANCH  18  19
ATOM     19  O   UNL     1       4.989   3.719   2.357  0.00  0.00    -0.493 OA
ATOM     20  C   UNL     1       5.702   4.054   3.549  0.00  0.00    +0.277 C 
ENDBRANCH  18  19
BRANCH  16  21
ATOM     21  O   UNL     1       8.663   5.530  -0.059  0.00  0.00    -0.495 OA
ATOM     22  C   UNL     1       9.230   5.819  -1.338  0.00  0.00    +0.277 C 
ENDBRANCH  16  21
ENDBRANCH  11  13
BRANCH   1  24
ATOM     23  N   UNL     1       2.522   4.274  -2.449  0.00  0.00    -0.313 N 
ATOM     24  C   UNL     1       2.480   4.815  -1.216  0.00  0.00    +0.269 C 
ATOM     25  O   UNL     1       2.459   6.020  -1.083  0.00  0.00    -0.270 OA
ATOM     26  H   UNL     1       2.539   3.310  -2.556  0.00  0.00    +0.149 HD
BRANCH  23  27
ATOM     27  C   UNL     1       2.541   5.142  -3.630  0.00  0.00    +0.086 C 
BRANCH  27  28
ATOM     28  C   UNL     1       2.588   4.282  -4.894  0.00  0.00    -0.060 C 
BRANCH  28  30
ATOM     29  C   UNL     1       1.347   5.894  -6.206  0.00  0.00    -0.096 C 
ATOM     30  N   UNL     1       2.629   5.171  -6.074  0.00  0.00    +0.382 N 
ATOM     31  H   UNL     1       3.386   5.854  -5.951  0.00  0.00    -0.082 HD
BRANCH  30  32
ATOM     32  C   UNL     1       2.891   4.380  -7.295  0.00  0.00    -0.043 C 
BRANCH  32  33
ATOM     33  C   UNL     1       3.146   5.324  -8.441  0.00  0.00    -0.064 A 
ATOM     34  C   UNL     1       2.096   5.744  -9.236  0.00  0.00    +0.002 A 
ATOM     35  C   UNL     1       2.329   6.614 -10.286  0.00  0.00    +0.000 A 
ATOM     36  C   UNL     1       3.613   7.056 -10.545  0.00  0.00    +0.000 A 
ATOM     37  C   UNL     1       4.663   6.631  -9.752  0.00  0.00    +0.000 A 
ATOM     38  C   UNL     1       4.430   5.765  -8.701  0.00  0.00    +0.002 A 
ENDBRANCH  32  33
ENDBRANCH  30  32
ENDBRANCH  28  30
ENDBRANCH  27  28
ENDBRANCH  23  27
ENDBRANCH   1  24
BRANCH   1  39
ATOM     39  O   UNL     1       2.501   4.758   1.156  0.00  0.00    -0.360 OA
ATOM     40  H   UNL     1       1.731   5.335   1.253  0.00  0.00    +0.213 HD
ENDBRANCH   1  39
TORSDOF 10
