REMARK  Name = ZINC04996046
REMARK  4 active torsions:
REMARK  status: ('A' for Active; 'I' for Inactive)
REMARK    1  A    between atoms: C_1  and  C_2
REMARK    2  A    between atoms: C_2  and  C_19
REMARK    3  A    between atoms: N_3  and  N_4
REMARK    4  A    between atoms: C_20  and  C_21
REMARK                            x       y       z     vdW  Elec       q    Type
REMARK                         _______ _______ _______ _____ _____    ______ ____
ROOT
ATOM      1  N   UNL     1       1.185   7.703   0.034  0.00  0.00    -0.204 N 
ATOM      2  C   UNL     1      -0.020   8.386   0.050  0.00  0.00    +0.256 A 
ATOM      3  N   UNL     1      -0.015   9.713   0.057  0.00  0.00    -0.192 NA
ATOM      4  C   UNL     1      -1.172  10.367   0.072  0.00  0.00    +0.163 A 
ATOM      5  C   UNL     1      -2.365   9.616   0.079  0.00  0.00    +0.137 A 
ATOM      6  C   UNL     1      -3.468  10.592   0.094  0.00  0.00    +0.029 A 
ATOM      7  C   UNL     1      -4.856  10.472   0.106  0.00  0.00    +0.012 A 
ATOM      8  C   UNL     1      -5.641  11.605   0.119  0.00  0.00    +0.001 A 
ATOM      9  C   UNL     1      -5.054  12.861   0.121  0.00  0.00    +0.002 A 
ATOM     10  C   UNL     1      -3.682  12.994   0.109  0.00  0.00    +0.026 A 
ATOM     11  C   UNL     1      -2.873  11.863   0.096  0.00  0.00    +0.050 A 
ATOM     12  N   UNL     1      -1.497  11.701   0.082  0.00  0.00    -0.338 N 
ATOM     13  H   UNL     1      -0.854  12.428   0.080  0.00  0.00    +0.167 HD
ATOM     14  N   UNL     1      -2.303   8.293   0.070  0.00  0.00    -0.142 NA
ATOM     15  N   UNL     1      -1.158   7.700   0.051  0.00  0.00    -0.111 NA
ATOM     16  H   UNL     1       2.021   8.194   0.029  0.00  0.00    +0.178 HD
ENDROOT
BRANCH   1  19
ATOM     17  C   UNL     1       3.627   6.423   0.003  0.00  0.00    +0.067 C 
ATOM     18  C   UNL     1       2.328   5.659   0.011  0.00  0.00    +0.056 C 
ATOM     19  N   UNL     1       1.195   6.302   0.026  0.00  0.00    -0.185 NA
BRANCH  18  20
ATOM     20  C   UNL     1       2.339   4.242   0.003  0.00  0.00    +0.025 C 
ATOM     21  C   UNL     1       1.176   3.558   0.010  0.00  0.00    +0.010 C 
BRANCH  21  22
ATOM     22  C   UNL     1       1.187   2.087   0.002  0.00  0.00    -0.025 A 
ATOM     23  C   UNL     1      -0.017   1.375   0.010  0.00  0.00    +0.008 A 
ATOM     24  C   UNL     1       0.002  -0.004   0.002  0.00  0.00    +0.001 A 
ATOM     25  C   UNL     1       1.208  -0.683  -0.013  0.00  0.00    +0.000 A 
ATOM     26  C   UNL     1       2.403   0.014  -0.021  0.00  0.00    +0.001 A 
ATOM     27  C   UNL     1       2.401   1.393  -0.013  0.00  0.00    +0.008 A 
ENDBRANCH  21  22
ENDBRANCH  18  20
ENDBRANCH   1  19
TORSDOF 3
