REMARK  Name = ZINC33088063
REMARK  7 active torsions:
REMARK  status: ('A' for Active; 'I' for Inactive)
REMARK    1  A    between atoms: C_1  and  C_2
REMARK    2  A    between atoms: C_7  and  C_8
REMARK    3  A    between atoms: C_8  and  O_9
REMARK    4  A    between atoms: O_9  and  C_10
REMARK    5  A    between atoms: C_11  and  C_18
REMARK    6  A    between atoms: C_15  and  O_16
REMARK    7  A    between atoms: O_16  and  C_17
REMARK                            x       y       z     vdW  Elec       q    Type
REMARK                         _______ _______ _______ _____ _____    ______ ____
ROOT
ATOM      1  C   UNL     1      -2.560  -4.208   0.013  0.00  0.00    +0.066 C 
ATOM      2  C   UNL     1      -1.397  -4.930   0.700  0.00  0.00    +0.109 C 
ATOM      3  C   UNL     1      -0.071  -4.391   0.247  0.00  0.00    +0.219 C 
ATOM      4  O   UNL     1       0.859  -5.159   0.117  0.00  0.00    -0.275 OA
ATOM      5  N   UNL     1       0.122  -3.082  -0.021  0.00  0.00    -0.270 N 
ATOM      6  C   UNL     1      -0.988  -2.239   0.000  0.00  0.00    +0.134 A 
ATOM      7  C   UNL     1      -2.267  -2.730   0.013  0.00  0.00    +0.020 A 
ATOM      8  C   UNL     1      -3.139  -1.651   0.026  0.00  0.00    +0.141 A 
ATOM      9  N   UNL     1      -2.430  -0.546   0.030  0.00  0.00    -0.171 NA
ATOM     10  N   UNL     1      -1.069  -0.890   0.008  0.00  0.00    -0.194 N 
ATOM     11  C   UNL     1       0.002  -0.004   0.002  0.00  0.00    +0.196 A 
ATOM     12  N   UNL     1       1.287  -0.266  -0.012  0.00  0.00    -0.221 NA
ATOM     13  C   UNL     1       2.227   0.704  -0.015  0.00  0.00    +0.081 A 
ATOM     14  C   UNL     1       3.633   0.557  -0.030  0.00  0.00    +0.029 A 
ATOM     15  C   UNL     1       4.451   1.656  -0.032  0.00  0.00    +0.002 A 
ATOM     16  C   UNL     1       3.936   2.944  -0.020  0.00  0.00    +0.001 A 
ATOM     17  C   UNL     1       2.565   3.125  -0.006  0.00  0.00    +0.017 A 
ATOM     18  C   UNL     1       1.737   2.030  -0.004  0.00  0.00    +0.041 A 
ATOM     19  S   UNL     1      -0.022   1.783   0.012  0.00  0.00    -0.048 S 
ATOM     20  H   UNL     1       1.132  -2.709  -0.246  0.00  0.00    +0.156 HD
ENDROOT
BRANCH   1  22
ATOM     21  C   UNL     1      -3.873  -5.298  -1.822  0.00  0.00    +0.166 A 
ATOM     22  C   UNL     1      -2.695  -4.699  -1.406  0.00  0.00    +0.006 A 
ATOM     23  C   UNL     1      -1.646  -4.546  -2.293  0.00  0.00    +0.008 A 
ATOM     24  C   UNL     1      -1.765  -4.999  -3.594  0.00  0.00    +0.004 A 
ATOM     25  C   UNL     1      -2.937  -5.598  -4.016  0.00  0.00    +0.049 A 
ATOM     26  C   UNL     1      -3.994  -5.750  -3.133  0.00  0.00    +0.162 A 
BRANCH  26  27
ATOM     27  O   UNL     1      -5.148  -6.338  -3.547  0.00  0.00    -0.491 OA
ATOM     28  C   UNL     1      -5.202  -6.777  -4.905  0.00  0.00    +0.277 C 
ENDBRANCH  26  27
BRANCH  21  29
ATOM     29  O   UNL     1      -4.907  -5.446  -0.952  0.00  0.00    -0.483 OA
BRANCH  29  30
ATOM     30  C   UNL     1      -5.856  -4.379  -0.886  0.00  0.00    +0.265 C 
BRANCH  30  37
ATOM     31  C   UNL     1      -8.008  -2.519  -0.379  0.00  0.00    +0.044 C 
ATOM     32  C   UNL     1      -7.951  -3.827   0.367  0.00  0.00    -0.044 A 
ATOM     33  C   UNL     1      -8.931  -4.139   1.291  0.00  0.00    +0.004 A 
ATOM     34  C   UNL     1      -8.877  -5.337   1.978  0.00  0.00    +0.000 A 
ATOM     35  C   UNL     1      -7.845  -6.225   1.739  0.00  0.00    +0.000 A 
ATOM     36  C   UNL     1      -6.867  -5.915   0.812  0.00  0.00    +0.007 A 
ATOM     37  C   UNL     1      -6.922  -4.717   0.124  0.00  0.00    -0.007 A 
ENDBRANCH  30  37
ENDBRANCH  29  30
ENDBRANCH  21  29
ENDBRANCH   1  22
TORSDOF 5
