REMARK  Name = ZINC11443642
REMARK  7 active torsions:
REMARK  status: ('A' for Active; 'I' for Inactive)
REMARK    1  A    between atoms: C_1  and  C_2
REMARK    2  A    between atoms: C_2  and  C_3
REMARK    3  A    between atoms: C_3  and  C_4
REMARK    4  A    between atoms: C_6  and  O_24
REMARK    5  A    between atoms: C_8  and  S_10
REMARK    6  A    between atoms: S_10  and  C_11
REMARK    7  A    between atoms: C_11  and  C_12
REMARK                            x       y       z     vdW  Elec       q    Type
REMARK                         _______ _______ _______ _____ _____    ______ ____
ROOT
ATOM      1  C   UNL     1      -2.540  -0.469   0.023  0.00  0.00    +0.113 C 
ENDROOT
BRANCH   1   2
ATOM      2  C   UNL     1      -2.506   1.037   0.030  0.00  0.00    -0.020 A 
ATOM      3  C   UNL     1      -3.654   1.761   0.044  0.00  0.00    +0.097 A 
ATOM      4  C   UNL     1      -3.595   3.171   0.051  0.00  0.00    +0.338 A 
ATOM      5  O   UNL     1      -4.632   3.808   0.063  0.00  0.00    -0.245 OA
ATOM      6  O   UNL     1      -2.424   3.827   0.044  0.00  0.00    -0.422 OA
ATOM      7  C   UNL     1      -1.246   3.167   0.030  0.00  0.00    +0.140 A 
ATOM      8  C   UNL     1      -1.231   1.761   0.017  0.00  0.00    +0.022 A 
ATOM      9  C   UNL     1      -0.013   1.076   0.008  0.00  0.00    +0.013 A 
ATOM     10  C   UNL     1       1.160   1.778   0.001  0.00  0.00    +0.016 A 
ATOM     11  C   UNL     1       1.149   3.166   0.008  0.00  0.00    +0.021 A 
ATOM     12  C   UNL     1      -0.043   3.861   0.023  0.00  0.00    +0.062 A 
ATOM     13 BR   UNL     1       2.785   4.115  -0.001  0.00  0.00    -0.050 Br
ENDBRANCH   1   2
BRANCH   1  14
ATOM     14  S   UNL     1      -2.569  -1.064  -1.687  0.00  0.00    -0.081 S 
BRANCH  14  19
ATOM     15  C   UNL     1      -2.662  -4.938  -2.271  0.00  0.00    +0.049 A 
ATOM     16  C   UNL     1      -2.662  -5.451  -0.988  0.00  0.00    +0.090 A 
ATOM     17  C   UNL     1      -2.632  -4.561   0.085  0.00  0.00    +0.216 A 
ATOM     18  N   UNL     1      -2.600  -3.256  -0.160  0.00  0.00    -0.187 NA
ATOM     19  C   UNL     1      -2.606  -2.803  -1.405  0.00  0.00    +0.192 A 
ATOM     20  N   UNL     1      -2.635  -3.626  -2.444  0.00  0.00    -0.227 NA
BRANCH  17  21
ATOM     21  O   UNL     1      -2.631  -5.021   1.360  0.00  0.00    -0.492 OA
ATOM     22  H   UNL     1      -1.748  -5.174   1.722  0.00  0.00    +0.294 HD
ENDBRANCH  17  21
BRANCH  15  23
ATOM     23  C   UNL     1      -2.694  -5.863  -3.461  0.00  0.00    +0.055 C 
BRANCH  23  25
ATOM     24  C   UNL     1      -3.907  -6.434  -5.569  0.00  0.00    +0.004 C 
ATOM     25  C   UNL     1      -3.876  -5.496  -4.361  0.00  0.00    +0.003 C 
ENDBRANCH  23  25
ENDBRANCH  15  23
ENDBRANCH  14  19
ENDBRANCH   1  14
TORSDOF 6
