REMARK  Name = ZINC04175827
REMARK  4 active torsions:
REMARK  status: ('A' for Active; 'I' for Inactive)
REMARK    1  A    between atoms: C_4  and  O_23
REMARK    2  A    between atoms: C_5  and  C_7
REMARK    3  A    between atoms: N_8  and  N_9
REMARK    4  A    between atoms: C_12  and  C_15
REMARK                            x       y       z     vdW  Elec       q    Type
REMARK                         _______ _______ _______ _____ _____    ______ ____
ROOT
ATOM      1  N   UNL     1       2.412  -4.186  -0.045  0.00  0.00    -0.215 N 
ATOM      2  C   UNL     1       3.624  -4.856  -0.061  0.00  0.00    +0.178 A 
ATOM      3  N   UNL     1       3.861  -6.155  -0.076  0.00  0.00    -0.224 NA
ATOM      4  C   UNL     1       5.098  -6.628  -0.091  0.00  0.00    +0.080 A 
ATOM      5  C   UNL     1       6.150  -5.755  -0.090  0.00  0.00    +0.077 A 
ATOM      6  S   UNL     1       5.283  -4.191  -0.074  0.00  0.00    -0.059 S 
ATOM      7  H   UNL     1       1.582  -4.686  -0.040  0.00  0.00    +0.176 HD
ENDROOT
BRANCH   4   8
ATOM      8  C   UNL     1       5.340  -8.091  -0.107  0.00  0.00    +0.002 A 
ATOM      9  C   UNL     1       6.644  -8.585  -0.116  0.00  0.00    +0.011 A 
ATOM     10  C   UNL     1       6.864  -9.947  -0.131  0.00  0.00    +0.022 A 
ATOM     11  C   UNL     1       5.793 -10.824  -0.137  0.00  0.00    +0.059 A 
ATOM     12  C   UNL     1       4.496 -10.339  -0.129  0.00  0.00    +0.060 A 
ATOM     13  C   UNL     1       4.265  -8.978  -0.108  0.00  0.00    +0.031 A 
ATOM     14 CL   UNL     1       3.158 -11.445  -0.137  0.00  0.00    -0.082 Cl
ATOM     15 CL   UNL     1       6.078 -12.536  -0.157  0.00  0.00    -0.082 Cl
ENDBRANCH   4   8
BRANCH   1  17
ATOM     16  C   UNL     1       1.250  -2.157  -0.022  0.00  0.00    +0.141 C 
ATOM     17  N   UNL     1       2.386  -2.785  -0.037  0.00  0.00    -0.188 NA
BRANCH  16  22
ATOM     18  C   UNL     1      -0.017   1.375   0.010  0.00  0.00    +0.001 A 
ATOM     19  C   UNL     1       1.169   2.089   0.002  0.00  0.00    +0.004 A 
ATOM     20  C   UNL     1       2.383   1.428  -0.013  0.00  0.00    +0.046 A 
ATOM     21  C   UNL     1       2.420   0.044  -0.021  0.00  0.00    +0.125 A 
ATOM     22  C   UNL     1       1.222  -0.684  -0.014  0.00  0.00    +0.036 A 
ATOM     23  C   UNL     1       0.002  -0.004   0.002  0.00  0.00    +0.013 A 
BRANCH  21  24
ATOM     24  O   UNL     1       3.613  -0.607  -0.037  0.00  0.00    -0.506 OA
ATOM     25  H   UNL     1       3.967  -0.800   0.842  0.00  0.00    +0.292 HD
ENDBRANCH  21  24
ENDBRANCH  16  22
ENDBRANCH   1  17
TORSDOF 4
