REMARK  Name = ZINC20064236
REMARK  7 active torsions:
REMARK  status: ('A' for Active; 'I' for Inactive)
REMARK    1  A    between atoms: C_1  and  C_2
REMARK    2  A    between atoms: C_2  and  C_3
REMARK    3  A    between atoms: C_2  and  C_4
REMARK    4  A    between atoms: C_4  and  C_5
REMARK    5  A    between atoms: C_5  and  N_6
REMARK    6  A    between atoms: C_20  and  O_26
REMARK    7  A    between atoms: O_26  and  C_27
REMARK                            x       y       z     vdW  Elec       q    Type
REMARK                         _______ _______ _______ _____ _____    ______ ____
ROOT
ATOM      1  N   UNL     1      -1.496  -1.275  -1.200  0.00  0.00    -0.269 N 
ATOM      2  C   UNL     1      -1.901  -1.320   0.122  0.00  0.00    +0.042 A 
ATOM      3  C   UNL     1      -2.988  -1.982   0.694  0.00  0.00    +0.024 A 
ATOM      4  C   UNL     1      -3.161  -1.852   2.063  0.00  0.00    +0.002 A 
ATOM      5  C   UNL     1      -2.301  -1.103   2.841  0.00  0.00    +0.000 A 
ATOM      6  C   UNL     1      -1.214  -0.439   2.283  0.00  0.00    +0.008 A 
ATOM      7  C   UNL     1      -1.035  -0.564   0.922  0.00  0.00    +0.009 A 
ATOM      8  C   UNL     1       0.002  -0.004   0.002  0.00  0.00    +0.164 C 
ATOM      9  C   UNL     1      -0.387  -0.524  -1.365  0.00  0.00    +0.251 C 
ATOM     10  O   UNL     1       0.189  -0.306  -2.410  0.00  0.00    -0.272 OA
ATOM     11  C   UNL     1      -0.018   1.502   0.010  0.00  0.00    +0.054 A 
ATOM     12  C   UNL     1       1.112   2.248   0.004  0.00  0.00    -0.015 A 
ATOM     13  C   UNL     1       0.708   3.636   0.018  0.00  0.00    +0.007 A 
ATOM     14  C   UNL     1       1.429   4.835   0.022  0.00  0.00    +0.056 A 
ATOM     15  C   UNL     1       0.690   6.008   0.038  0.00  0.00    +0.121 A 
ATOM     16  C   UNL     1      -0.699   5.999   0.049  0.00  0.00    +0.047 A 
ATOM     17  C   UNL     1      -1.428   4.824   0.045  0.00  0.00    +0.030 A 
ATOM     18  C   UNL     1      -0.711   3.630   0.030  0.00  0.00    +0.047 A 
ATOM     19  N   UNL     1      -1.113   2.322   0.019  0.00  0.00    -0.356 N 
ATOM     20  H   UNL     1      -2.124   1.890   0.018  0.00  0.00    +0.166 HD
ATOM     21  C   UNL     1       2.497   1.654  -0.016  0.00  0.00    +0.053 C 
ATOM     22  C   UNL     1       2.382   0.183  -0.439  0.00  0.00    +0.087 C 
ATOM     23  N   UNL     1       1.342  -0.479   0.362  0.00  0.00    -0.294 NA
ATOM     24  H   UNL     1       1.533  -0.267   1.424  0.00  0.00    +0.124 HD
ENDROOT
BRANCH  15  25
ATOM     25  O   UNL     1       1.344   7.201   0.042  0.00  0.00    -0.495 OA
ATOM     26  C   UNL     1       0.539   8.382   0.058  0.00  0.00    +0.277 C 
ENDBRANCH  15  25
BRANCH   1  27
ATOM     27  C   UNL     1      -2.188  -1.964  -2.292  0.00  0.00    +0.114 C 
BRANCH  27  28
ATOM     28  C   UNL     1      -3.252  -1.037  -2.885  0.00  0.00    +0.022 C 
BRANCH  28  30
ATOM     29  C   UNL     1      -4.747  -2.953  -3.467  0.00  0.00    +0.007 C 
ATOM     30  C   UNL     1      -3.975  -1.756  -4.026  0.00  0.00    -0.016 C 
ATOM     31  C   UNL     1      -4.951  -0.789  -4.700  0.00  0.00    +0.007 C 
ENDBRANCH  28  30
ENDBRANCH  27  28
ENDBRANCH   1  27
TORSDOF 4
