REMARK  Name = ZINC36483580
REMARK  7 active torsions:
REMARK  status: ('A' for Active; 'I' for Inactive)
REMARK    1  A    between atoms: C_3  and  N_8
REMARK    2  A    between atoms: N_8  and  C_9
REMARK    3  A    between atoms: C_9  and  C_11
REMARK    4  A    between atoms: C_9  and  C_18
REMARK    5  A    between atoms: C_14  and  O_17
REMARK    6  A    between atoms: N_20  and  C_21
REMARK    7  A    between atoms: C_27  and  C_29
REMARK                            x       y       z     vdW  Elec       q    Type
REMARK                         _______ _______ _______ _____ _____    ______ ____
ROOT
ATOM      1  C   UNL     1       4.568   1.238  -0.247  0.00  0.00    +0.198 C 
ENDROOT
BRANCH   1   2
ATOM      2  C   UNL     1       4.473   0.232   0.871  0.00  0.00    -0.018 A 
ATOM      3  C   UNL     1       3.243  -0.290   1.227  0.00  0.00    +0.009 A 
ATOM      4  C   UNL     1       3.154  -1.213   2.251  0.00  0.00    +0.046 A 
ATOM      5  C   UNL     1       4.299  -1.616   2.922  0.00  0.00    +0.117 A 
ATOM      6  C   UNL     1       5.532  -1.091   2.562  0.00  0.00    +0.046 A 
ATOM      7  C   UNL     1       5.617  -0.173   1.534  0.00  0.00    +0.009 A 
BRANCH   5   8
ATOM      8  O   UNL     1       4.213  -2.524   3.930  0.00  0.00    -0.507 OA
ATOM      9  H   UNL     1       4.298  -3.442   3.641  0.00  0.00    +0.292 HD
ENDBRANCH   5   8
ENDBRANCH   1   2
BRANCH   1  10
ATOM     10  C   UNL     1       4.180   0.583  -1.547  0.00  0.00    +0.239 C 
ATOM     11  O   UNL     1       3.067   0.746  -2.000  0.00  0.00    -0.273 OA
ATOM     12  N   UNL     1       5.071  -0.183  -2.208  0.00  0.00    -0.311 N 
ATOM     13  H   UNL     1       5.961  -0.313  -1.846  0.00  0.00    +0.149 HD
BRANCH  12  14
ATOM     14  C   UNL     1       4.694  -0.820  -3.472  0.00  0.00    +0.073 C 
ATOM     15  C   UNL     1       3.987  -2.146  -3.184  0.00  0.00    +0.022 C 
ATOM     16  C   UNL     1       3.593  -2.811  -4.505  0.00  0.00    +0.002 C 
ATOM     17  C   UNL     1       4.849  -3.073  -5.338  0.00  0.00    +0.000 C 
ATOM     18  C   UNL     1       5.556  -1.747  -5.626  0.00  0.00    +0.002 C 
ATOM     19  C   UNL     1       5.950  -1.082  -4.305  0.00  0.00    +0.022 C 
ENDBRANCH  12  14
ENDBRANCH   1  10
BRANCH   1  20
ATOM     20  N   UNL     1       3.662   2.357   0.026  0.00  0.00    -0.249 N 
ATOM     21  C   UNL     1       3.687   3.451  -0.761  0.00  0.00    +0.287 C 
ATOM     22  O   UNL     1       3.006   4.420  -0.478  0.00  0.00    -0.266 OA
BRANCH  20  25
ATOM     23  C   UNL     1       0.531   2.098   1.935  0.00  0.00    +0.003 A 
ATOM     24  C   UNL     1       1.408   2.165   0.870  0.00  0.00    +0.023 A 
ATOM     25  C   UNL     1       2.772   2.290   1.102  0.00  0.00    +0.039 A 
ATOM     26  C   UNL     1       3.250   2.346   2.405  0.00  0.00    +0.043 A 
ATOM     27  C   UNL     1       2.367   2.279   3.466  0.00  0.00    +0.043 A 
ATOM     28  C   UNL     1       1.009   2.155   3.231  0.00  0.00    +0.020 A 
ATOM     29 CL   UNL     1       2.962   2.349   5.095  0.00  0.00    -0.083 Cl
ENDBRANCH  20  25
BRANCH  21  30
ATOM     30  C   UNL     1       4.534   3.475  -1.958  0.00  0.00    +0.190 A 
ATOM     31  C   UNL     1       4.562   4.462  -2.901  0.00  0.00    +0.054 A 
ATOM     32  C   UNL     1       5.510   4.074  -3.861  0.00  0.00    +0.042 A 
ATOM     33  C   UNL     1       6.011   2.883  -3.467  0.00  0.00    +0.196 A 
ATOM     34  O   UNL     1       5.425   2.528  -2.317  0.00  0.00    -0.458 OA
ENDBRANCH  21  30
ENDBRANCH   1  20
TORSDOF 7
