REMARK  Name = ZINC58926593
REMARK  12 active torsions:
REMARK  status: ('A' for Active; 'I' for Inactive)
REMARK    1  A    between atoms: C_1  and  C_2
REMARK    2  A    between atoms: C_7  and  C_8
REMARK    3  A    between atoms: C_8  and  S_9
REMARK    4  A    between atoms: S_9  and  C_10
REMARK    5  A    between atoms: C_10  and  C_11
REMARK    6  A    between atoms: N_13  and  N_14
REMARK    7  A    between atoms: C_15  and  C_16
REMARK    8  A    between atoms: C_18  and  C_30
REMARK    9  A    between atoms: N_19  and  C_22
REMARK   10  A    between atoms: C_20  and  C_21
REMARK   11  A    between atoms: C_23  and  C_29
REMARK   12  A    between atoms: C_27  and  C_28
REMARK                            x       y       z     vdW  Elec       q    Type
REMARK                         _______ _______ _______ _____ _____    ______ ____
ROOT
ATOM      1  N   UNL     1      -4.259   2.453   6.871  0.00  0.00    -0.188 NA
ATOM      2  C   UNL     1      -4.372   3.092   7.995  0.00  0.00    +0.140 C 
ENDROOT
BRANCH   2   3
ATOM      3  C   UNL     1      -5.707   3.382   8.548  0.00  0.00    +0.016 A 
ATOM      4  C   UNL     1      -6.008   4.093   9.793  0.00  0.00    +0.032 A 
ATOM      5  C   UNL     1      -7.349   4.128   9.902  0.00  0.00    +0.022 A 
ATOM      6  N   UNL     1      -7.896   3.495   8.824  0.00  0.00    -0.317 N 
ATOM      7  C   UNL     1      -6.912   3.046   7.999  0.00  0.00    +0.030 A 
ATOM      8  C   UNL     1      -7.115   2.303   6.703  0.00  0.00    +0.064 C 
ATOM      9  C   UNL     1      -8.120   4.762  11.031  0.00  0.00    +0.064 C 
BRANCH   6  10
ATOM     10  C   UNL     1      -9.270   3.335   8.597  0.00  0.00    +0.052 A 
ATOM     11  C   UNL     1      -9.931   2.218   9.090  0.00  0.00    -0.026 A 
ATOM     12  C   UNL     1     -11.285   2.064   8.865  0.00  0.00    +0.005 A 
ATOM     13  C   UNL     1     -11.982   3.020   8.149  0.00  0.00    +0.001 A 
ATOM     14  C   UNL     1     -11.326   4.133   7.657  0.00  0.00    +0.005 A 
ATOM     15  C   UNL     1      -9.973   4.296   7.884  0.00  0.00    -0.026 A 
ATOM     16  C   UNL     1      -9.261   5.513   7.353  0.00  0.00    +0.046 C 
ATOM     17  C   UNL     1      -9.172   1.175   9.869  0.00  0.00    +0.046 C 
ENDBRANCH   6  10
ENDBRANCH   2   3
BRANCH   1  20
ATOM     18  C   UNL     1      -2.873   1.514   5.178  0.00  0.00    +0.242 C 
ATOM     19  O   UNL     1      -3.868   1.156   4.582  0.00  0.00    -0.273 OA
ATOM     20  N   UNL     1      -2.990   2.178   6.345  0.00  0.00    -0.206 N 
ATOM     21  H   UNL     1      -2.195   2.464   6.822  0.00  0.00    +0.177 HD
BRANCH  18  22
ATOM     22  C   UNL     1      -1.508   1.218   4.613  0.00  0.00    +0.166 C 
BRANCH  22  23
ATOM     23  S   UNL     1      -1.684   0.321   3.046  0.00  0.00    -0.147 S 
BRANCH  23  24
ATOM     24  C   UNL     1       0.025   0.045   2.504  0.00  0.00    +0.105 C 
BRANCH  24  31
ATOM     25  C   UNL     1      -0.018   1.503   0.010  0.00  0.00    +0.044 C 
ATOM     26  C   UNL     1       0.002  -0.004   0.002  0.00  0.00    -0.046 A 
ATOM     27  C   UNL     1       0.006  -0.689  -1.199  0.00  0.00    +0.003 A 
ATOM     28  C   UNL     1       0.025  -2.071  -1.207  0.00  0.00    +0.000 A 
ATOM     29  C   UNL     1       0.040  -2.768  -0.013  0.00  0.00    +0.000 A 
ATOM     30  C   UNL     1       0.037  -2.084   1.188  0.00  0.00    +0.005 A 
ATOM     31  C   UNL     1       0.023  -0.702   1.195  0.00  0.00    -0.035 A 
ENDBRANCH  24  31
ENDBRANCH  23  24
ENDBRANCH  22  23
ENDBRANCH  18  22
ENDBRANCH   1  20
TORSDOF 7
