REMARK  Name = ZINC32529579
REMARK  10 active torsions:
REMARK  status: ('A' for Active; 'I' for Inactive)
REMARK    1  A    between atoms: C_1  and  C_2
REMARK    2  A    between atoms: C_2  and  C_3
REMARK    3  A    between atoms: C_3  and  C_5
REMARK    4  A    between atoms: C_3  and  S_20
REMARK    5  A    between atoms: N_7  and  C_8
REMARK    6  A    between atoms: C_9  and  C_17
REMARK    7  A    between atoms: S_20  and  C_21
REMARK    8  A    between atoms: C_23  and  C_33
REMARK    9  A    between atoms: C_26  and  C_32
REMARK   10  A    between atoms: C_28  and  C_31
REMARK                            x       y       z     vdW  Elec       q    Type
REMARK                         _______ _______ _______ _____ _____    ______ ____
ROOT
ATOM      1  C   UNL     1       0.211   0.751   0.067  0.00  0.00    +0.231 C 
ATOM      2  O   UNL     1       0.092  -0.454   0.008  0.00  0.00    -0.274 OA
ATOM      3  N   UNL     1       1.439   1.306   0.090  0.00  0.00    -0.278 N 
ATOM      4  H   UNL     1       1.547   2.400   0.143  0.00  0.00    +0.155 HD
ENDROOT
BRANCH   3   5
ATOM      5  C   UNL     1       2.566   0.499   0.048  0.00  0.00    +0.084 A 
ATOM      6  C   UNL     1       3.900   0.880   0.057  0.00  0.00    +0.068 A 
ATOM      7  C   UNL     1       4.900  -0.173   0.008  0.00  0.00    -0.023 A 
ATOM      8  C   UNL     1       4.408  -1.430  -0.053  0.00  0.00    -0.004 A 
ATOM      9  S   UNL     1       2.649  -1.229  -0.037  0.00  0.00    -0.077 S 
ATOM     10  C   UNL     1       5.192  -2.704  -0.118  0.00  0.00    +0.043 C 
ATOM     11  C   UNL     1       6.644  -2.360  -0.484  0.00  0.00    +0.005 C 
ATOM     12  C   UNL     1       7.119  -1.210   0.408  0.00  0.00    +0.005 C 
ATOM     13  C   UNL     1       6.402   0.083   0.017  0.00  0.00    +0.037 C 
BRANCH   6  14
ATOM     14  C   UNL     1       4.287   2.293   0.117  0.00  0.00    +0.244 C 
ATOM     15  O   UNL     1       4.454   2.833   1.195  0.00  0.00    -0.270 OA
ATOM     16  N   UNL     1       4.457   2.995  -1.021  0.00  0.00    -0.325 N 
ATOM     17  H   UNL     1       4.747   4.055  -0.976  0.00  0.00    +0.145 HD
ATOM     18  H   UNL     1       4.306   2.507  -1.996  0.00  0.00    +0.145 HD
ENDBRANCH   6  14
ENDBRANCH   3   5
BRANCH   1  19
ATOM     19  C   UNL     1      -1.014   1.629   0.106  0.00  0.00    +0.139 C 
BRANCH  19  21
ATOM     20  C   UNL     1      -2.441   3.062   1.573  0.00  0.00    +0.005 C 
ATOM     21  C   UNL     1      -1.285   2.060   1.549  0.00  0.00    +0.020 C 
ENDBRANCH  19  21
BRANCH  19  22
ATOM     22  S   UNL     1      -2.437   0.707  -0.525  0.00  0.00    -0.093 S 
BRANCH  22  23
ATOM     23  C   UNL     1      -2.008   0.612  -2.232  0.00  0.00    +0.099 A 
ATOM     24  C   UNL     1      -2.790  -0.173  -3.092  0.00  0.00    +0.038 A 
ATOM     25  C   UNL     1      -2.470  -0.255  -4.413  0.00  0.00    -0.039 A 
ATOM     26  C   UNL     1      -1.348   0.463  -4.876  0.00  0.00    +0.004 A 
ATOM     27  C   UNL     1      -0.963   0.423  -6.224  0.00  0.00    +0.013 A 
ATOM     28  C   UNL     1       0.127   1.130  -6.635  0.00  0.00    -0.050 A 
ATOM     29  C   UNL     1       0.865   1.893  -5.734  0.00  0.00    +0.008 A 
ATOM     30  C   UNL     1       0.519   1.954  -4.418  0.00  0.00    -0.024 A 
ATOM     31  C   UNL     1      -0.599   1.238  -3.957  0.00  0.00    +0.075 A 
ATOM     32  N   UNL     1      -0.964   1.285  -2.671  0.00  0.00    -0.240 NA
ATOM     33  C   UNL     1       1.332   2.786  -3.461  0.00  0.00    +0.046 C 
ATOM     34  C   UNL     1       0.539   1.086  -8.084  0.00  0.00    +0.044 C 
ATOM     35  C   UNL     1      -3.295  -1.092  -5.357  0.00  0.00    +0.044 C 
ENDBRANCH  22  23
ENDBRANCH  19  22
ENDBRANCH   1  19
TORSDOF 6
