REMARK  Name = ZINC10283539
REMARK  8 active torsions:
REMARK  status: ('A' for Active; 'I' for Inactive)
REMARK    1  A    between atoms: C_9  and  O_12
REMARK    2  A    between atoms: O_12  and  C_13
REMARK    3  A    between atoms: C_13  and  C_14
REMARK    4  A    between atoms: N_16  and  C_17
REMARK    5  A    between atoms: C_20  and  S_23
REMARK    6  A    between atoms: S_23  and  N_26
REMARK    7  A    between atoms: N_26  and  C_27
REMARK    8  A    between atoms: C_27  and  C_28
REMARK                            x       y       z     vdW  Elec       q    Type
REMARK                         _______ _______ _______ _____ _____    ______ ____
ROOT
ATOM      1  C   UNL     1       0.186  -2.768  -0.507  0.00  0.00    +0.255 C 
ATOM      2  O   UNL     1      -0.741  -2.177  -1.021  0.00  0.00    -0.272 OA
ATOM      3  N   UNL     1       1.237  -2.079  -0.020  0.00  0.00    -0.283 N 
ATOM      4  H   UNL     1       2.011  -2.554   0.321  0.00  0.00    +0.155 HD
ENDROOT
BRANCH   3   5
ATOM      5  C   UNL     1       1.212  -0.681  -0.008  0.00  0.00    +0.034 A 
ATOM      6  C   UNL     1       0.013  -0.008   0.186  0.00  0.00    +0.025 A 
ATOM      7  C   UNL     1      -0.008   1.373   0.198  0.00  0.00    +0.030 A 
ATOM      8  C   UNL     1       1.163   2.086   0.018  0.00  0.00    +0.105 A 
ATOM      9  C   UNL     1       2.359   1.419  -0.175  0.00  0.00    +0.030 A 
ATOM     10  C   UNL     1       2.387   0.038  -0.189  0.00  0.00    +0.025 A 
BRANCH   8  11
ATOM     11  S   UNL     1       1.132   3.847   0.034  0.00  0.00    +0.059 S 
ATOM     12  O   UNL     1       2.269   4.281  -0.700  0.00  0.00    -0.153 OA
ATOM     13  O   UNL     1      -0.191   4.233  -0.312  0.00  0.00    -0.153 OA
BRANCH  11  14
ATOM     14  N   UNL     1       1.371   4.327   1.601  0.00  0.00    -0.183 NA
ATOM     15  H   UNL     1       0.666   4.793   2.078  0.00  0.00    +0.148 HD
BRANCH  14  16
ATOM     16  C   UNL     1       2.645   4.048   2.267  0.00  0.00    +0.180 C 
BRANCH  16  17
ATOM     17  C   UNL     1       2.753   4.883   3.516  0.00  0.00    +0.120 A 
ATOM     18  C   UNL     1       2.335   4.523   4.743  0.00  0.00    +0.046 A 
ATOM     19  C   UNL     1       2.631   5.600   5.610  0.00  0.00    +0.041 A 
ATOM     20  C   UNL     1       3.212   6.554   4.861  0.00  0.00    +0.195 A 
ATOM     21  O   UNL     1       3.289   6.113   3.595  0.00  0.00    -0.466 OA
ENDBRANCH  16  17
ENDBRANCH  14  16
ENDBRANCH  11  14
ENDBRANCH   8  11
ENDBRANCH   3   5
BRANCH   1  22
ATOM     22  C   UNL     1       0.160  -4.272  -0.412  0.00  0.00    +0.324 C 
BRANCH  22  23
ATOM     23  O   UNL     1      -1.048  -4.765  -0.993  0.00  0.00    -0.482 OA
BRANCH  23  32
ATOM     24  C   UNL     1      -2.882 -10.794  -1.492  0.00  0.00    +0.001 A 
ATOM     25  C   UNL     1      -3.863  -9.976  -2.050  0.00  0.00    +0.001 A 
ATOM     26  C   UNL     1      -3.716  -8.623  -2.073  0.00  0.00    +0.010 A 
ATOM     27  C   UNL     1      -2.560  -8.040  -1.528  0.00  0.00    -0.000 A 
ATOM     28  C   UNL     1      -1.562  -8.871  -0.960  0.00  0.00    -0.017 A 
ATOM     29  C   UNL     1      -1.750 -10.265  -0.954  0.00  0.00    +0.008 A 
ATOM     30  C   UNL     1      -0.405  -8.291  -0.412  0.00  0.00    +0.012 A 
ATOM     31  C   UNL     1      -0.251  -6.940  -0.431  0.00  0.00    +0.047 A 
ATOM     32  C   UNL     1      -1.230  -6.112  -0.989  0.00  0.00    +0.136 A 
ATOM     33  C   UNL     1      -2.378  -6.646  -1.529  0.00  0.00    +0.067 A 
ATOM     34 BR   UNL     1      -3.696  -5.514  -2.274  0.00  0.00    -0.046 Br
ENDBRANCH  23  32
ENDBRANCH  22  23
ENDBRANCH   1  22
TORSDOF 8
