REMARK  Name = ZINC08695584
REMARK  12 active torsions:
REMARK  status: ('A' for Active; 'I' for Inactive)
REMARK    1  A    between atoms: C_1  and  C_2
REMARK    2  A    between atoms: C_2  and  C_3
REMARK    3  A    between atoms: C_3  and  C_5
REMARK    4  A    between atoms: C_3  and  O_6
REMARK    5  A    between atoms: O_6  and  C_7
REMARK    6  A    between atoms: C_12  and  C_13
REMARK    7  A    between atoms: C_18  and  C_23
REMARK    8  A    between atoms: C_26  and  O_31
REMARK    9  A    between atoms: C_27  and  O_29
REMARK   10  A    between atoms: O_29  and  C_30
REMARK   11  A    between atoms: O_31  and  C_32
REMARK   12  A    between atoms: C_41  and  C_43
REMARK                            x       y       z     vdW  Elec       q    Type
REMARK                         _______ _______ _______ _____ _____    ______ ____
ROOT
ATOM      1  C   UNL     1      -5.767  -2.135  -0.224  0.00  0.00    +0.150 C 
ATOM      2  C   UNL     1      -4.565  -1.303  -0.604  0.00  0.00    +0.037 C 
ATOM      3  C   UNL     1      -4.012  -1.228  -1.826  0.00  0.00    +0.017 C 
ATOM      4  C   UNL     1      -2.774  -0.378  -2.058  0.00  0.00    +0.059 C 
ATOM      5  C   UNL     1      -2.802   0.843  -1.141  0.00  0.00    +0.032 C 
ATOM      6  C   UNL     1      -2.833   0.339   0.307  0.00  0.00    +0.088 C 
ATOM      7  C   UNL     1      -4.018  -0.565   0.472  0.00  0.00    +0.163 C 
ATOM      8  O   UNL     1      -4.528  -0.667   1.571  0.00  0.00    -0.292 OA
ATOM      9  N   UNL     1      -4.467  -1.881  -2.927  0.00  0.00    -0.316 N 
ATOM     10  C   UNL     1      -4.815  -3.226  -2.962  0.00  0.00    +0.053 A 
ATOM     11  C   UNL     1      -4.158  -4.138  -3.771  0.00  0.00    +0.025 A 
ATOM     12  C   UNL     1      -4.623  -5.439  -3.842  0.00  0.00    +0.002 A 
ATOM     13  C   UNL     1      -5.733  -5.824  -3.112  0.00  0.00    +0.002 A 
ATOM     14  C   UNL     1      -6.378  -4.919  -2.287  0.00  0.00    +0.025 A 
ATOM     15  C   UNL     1      -5.904  -3.620  -2.200  0.00  0.00    +0.058 A 
ATOM     16  N   UNL     1      -6.494  -2.684  -1.349  0.00  0.00    -0.258 N 
ATOM     17  C   UNL     1      -7.761  -2.286  -1.578  0.00  0.00    +0.218 C 
ATOM     18  O   UNL     1      -8.283  -1.474  -0.844  0.00  0.00    -0.276 OA
ATOM     19  C   UNL     1      -8.529  -2.850  -2.745  0.00  0.00    +0.110 C 
ATOM     20  H   UNL     1      -4.554  -1.371  -3.747  0.00  0.00    +0.152 HD
ENDROOT
BRANCH   1  26
ATOM     21  C   UNL     1      -6.224  -3.981   1.410  0.00  0.00    +0.126 A 
ATOM     22  C   UNL     1      -5.796  -5.028   2.213  0.00  0.00    +0.046 A 
ATOM     23  C   UNL     1      -4.457  -5.364   2.252  0.00  0.00    +0.004 A 
ATOM     24  C   UNL     1      -3.543  -4.657   1.492  0.00  0.00    +0.001 A 
ATOM     25  C   UNL     1      -3.968  -3.616   0.688  0.00  0.00    +0.009 A 
ATOM     26  C   UNL     1      -5.306  -3.273   0.649  0.00  0.00    +0.020 A 
BRANCH  21  27
ATOM     27  O   UNL     1      -7.541  -3.649   1.370  0.00  0.00    -0.489 OA
BRANCH  27  28
ATOM     28  C   UNL     1      -8.443  -4.481   2.102  0.00  0.00    +0.170 C 
ATOM     29  C   UNL     1      -8.486  -4.025   3.562  0.00  0.00    +0.052 C 
BRANCH  28  31
ATOM     30  C   UNL     1      -9.826  -4.948   0.074  0.00  0.00    +0.007 C 
ATOM     31  C   UNL     1      -9.843  -4.376   1.493  0.00  0.00    +0.041 C 
ENDBRANCH  28  31
ENDBRANCH  27  28
ENDBRANCH  21  27
ENDBRANCH   1  26
BRANCH   5  32
ATOM     32  C   UNL     1      -1.567   1.678  -1.364  0.00  0.00    -0.040 A 
ATOM     33  C   UNL     1      -0.315   1.120  -1.181  0.00  0.00    +0.008 A 
ATOM     34  C   UNL     1       0.821   1.880  -1.390  0.00  0.00    +0.049 A 
ATOM     35  C   UNL     1       0.706   3.205  -1.777  0.00  0.00    +0.161 A 
ATOM     36  C   UNL     1      -0.554   3.768  -1.956  0.00  0.00    +0.162 A 
ATOM     37  C   UNL     1      -1.688   3.001  -1.745  0.00  0.00    +0.053 A 
BRANCH  36  38
ATOM     38  O   UNL     1      -0.671   5.069  -2.336  0.00  0.00    -0.491 OA
ATOM     39  C   UNL     1      -1.996   5.579  -2.500  0.00  0.00    +0.277 C 
ENDBRANCH  36  38
BRANCH  35  40
ATOM     40  O   UNL     1       1.823   3.954  -1.983  0.00  0.00    -0.491 OA
ATOM     41  C   UNL     1       3.082   3.310  -1.781  0.00  0.00    +0.277 C 
ENDBRANCH  35  40
ENDBRANCH   5  32
TORSDOF 7
