REMARK  Name = ZINC38486921
REMARK  7 active torsions:
REMARK  status: ('A' for Active; 'I' for Inactive)
REMARK    1  A    between atoms: C_1  and  C_2
REMARK    2  A    between atoms: C_5  and  N_9
REMARK    3  A    between atoms: C_10  and  N_27
REMARK    4  A    between atoms: C_11  and  C_14
REMARK    5  A    between atoms: C_16  and  C_19
REMARK    6  A    between atoms: C_22  and  O_25
REMARK    7  A    between atoms: O_25  and  C_26
REMARK                            x       y       z     vdW  Elec       q    Type
REMARK                         _______ _______ _______ _____ _____    ______ ____
ROOT
ATOM      1  N   UNL     1       0.059  -4.174  -0.023  0.00  0.00    -0.198 N 
ATOM      2  C   UNL     1       0.697  -4.987   0.867  0.00  0.00    +0.150 A 
ATOM      3  C   UNL     1       0.438  -6.285   0.464  0.00  0.00    +0.159 A 
ATOM      4  N   UNL     1      -0.333  -6.237  -0.635  0.00  0.00    -0.125 NA
ATOM      5  N   UNL     1      -0.580  -5.014  -0.946  0.00  0.00    -0.058 NA
ENDROOT
BRANCH   1  10
ATOM      6  C   UNL     1      -0.018   1.503   0.010  0.00  0.00    +0.047 C 
ATOM      7  C   UNL     1       0.002  -0.004   0.002  0.00  0.00    -0.015 A 
ATOM      8  C   UNL     1       0.006  -0.688  -1.200  0.00  0.00    +0.008 A 
ATOM      9  C   UNL     1       0.025  -2.069  -1.211  0.00  0.00    +0.028 A 
ATOM     10  C   UNL     1       0.040  -2.772  -0.014  0.00  0.00    +0.072 A 
ATOM     11  C   UNL     1       0.037  -2.085   1.192  0.00  0.00    +0.066 A 
ATOM     12  C   UNL     1       0.023  -0.702   1.198  0.00  0.00    +0.128 A 
ATOM     13  F   UNL     1       0.024  -0.031   2.371  0.00  0.00    -0.205 F 
ENDBRANCH   1  10
BRANCH   3  14
ATOM     14  C   UNL     1       0.924  -7.511   1.126  0.00  0.00    +0.132 A 
ATOM     15  N   UNL     1       0.723  -8.778   0.797  0.00  0.00    -0.237 NA
ATOM     16  C   UNL     1       1.242  -9.762   1.512  0.00  0.00    +0.079 A 
ATOM     17  C   UNL     1       1.999  -9.466   2.612  0.00  0.00    +0.075 A 
ATOM     18  S   UNL     1       1.949  -7.679   2.581  0.00  0.00    -0.073 S 
BRANCH  16  19
ATOM     19  C   UNL     1       1.003 -11.174   1.125  0.00  0.00    +0.001 A 
ATOM     20  C   UNL     1       1.546 -12.208   1.886  0.00  0.00    +0.013 A 
ATOM     21  C   UNL     1       1.323 -13.520   1.524  0.00  0.00    +0.046 A 
ATOM     22  C   UNL     1       0.558 -13.811   0.403  0.00  0.00    +0.120 A 
ATOM     23  C   UNL     1       0.016 -12.784  -0.357  0.00  0.00    +0.046 A 
ATOM     24  C   UNL     1       0.230 -11.470   0.004  0.00  0.00    +0.013 A 
BRANCH  22  25
ATOM     25  O   UNL     1       0.340 -15.105   0.048  0.00  0.00    -0.495 OA
ATOM     26  C   UNL     1      -0.456 -15.333  -1.117  0.00  0.00    +0.277 C 
ENDBRANCH  22  25
ENDBRANCH  16  19
ENDBRANCH   3  14
BRANCH   2  27
ATOM     27  N   UNL     1       1.455  -4.591   1.958  0.00  0.00    -0.341 N 
ATOM     28  H   UNL     1       1.573  -3.647   2.150  0.00  0.00    +0.144 HD
ATOM     29  H   UNL     1       1.868  -5.258   2.530  0.00  0.00    +0.144 HD
ENDBRANCH   2  27
TORSDOF 5
