REMARK  Name = ZINC16024820
REMARK  7 active torsions:
REMARK  status: ('A' for Active; 'I' for Inactive)
REMARK    1  A    between atoms: C_1  and  C_2
REMARK    2  A    between atoms: C_2  and  C_3
REMARK    3  A    between atoms: C_2  and  C_4
REMARK    4  A    between atoms: C_4  and  C_5
REMARK    5  A    between atoms: N_13  and  C_16
REMARK    6  A    between atoms: C_16  and  C_17
REMARK    7  A    between atoms: C_17  and  C_18
REMARK                            x       y       z     vdW  Elec       q    Type
REMARK                         _______ _______ _______ _____ _____    ______ ____
ROOT
ATOM      1  C   UNL     1       2.187  -0.073  -1.207  0.00  0.00    +0.068 C 
ATOM      2  C   UNL     1       2.910  -0.485  -2.508  0.00  0.00    +0.107 C 
ATOM      3  C   UNL     1       4.331  -0.919  -2.053  0.00  0.00    +0.122 C 
ATOM      4  C   UNL     1       5.231   0.123  -2.678  0.00  0.00    +0.228 C 
ATOM      5  O   UNL     1       6.437   0.163  -2.571  0.00  0.00    -0.275 OA
ATOM      6  N   UNL     1       4.487   0.995  -3.369  0.00  0.00    -0.241 N 
ATOM      7  C   UNL     1       3.157   0.747  -3.349  0.00  0.00    +0.227 C 
ATOM      8  O   UNL     1       2.300   1.397  -3.908  0.00  0.00    -0.275 OA
ATOM      9  C   UNL     1       4.314  -0.762  -0.528  0.00  0.00    +0.136 C 
ATOM     10  N   UNL     1       2.901  -0.802  -0.125  0.00  0.00    -0.295 NA
ATOM     11  C   UNL     1       5.126  -1.833   0.145  0.00  0.00    +0.004 A 
ATOM     12  C   UNL     1       5.062  -3.208   0.151  0.00  0.00    +0.023 A 
ATOM     13  C   UNL     1       5.976  -3.941   0.888  0.00  0.00    +0.018 A 
ATOM     14  C   UNL     1       6.953  -3.287   1.619  0.00  0.00    +0.017 A 
ATOM     15  C   UNL     1       7.020  -1.909   1.615  0.00  0.00    +0.025 A 
ATOM     16  C   UNL     1       6.104  -1.165   0.875  0.00  0.00    +0.039 A 
ATOM     17  N   UNL     1       5.971   0.216   0.711  0.00  0.00    -0.283 N 
ATOM     18  C   UNL     1       4.944   0.535  -0.100  0.00  0.00    +0.243 C 
ATOM     19  O   UNL     1       4.595   1.651  -0.422  0.00  0.00    -0.273 OA
ATOM     20 BR   UNL     1       5.891  -5.830   0.898  0.00  0.00    -0.050 Br
ATOM     21  H   UNL     1       2.760  -0.353   0.767  0.00  0.00    +0.123 HD
ATOM     22  H   UNL     1       6.551   0.870   1.133  0.00  0.00    +0.155 HD
ENDROOT
BRANCH   1  23
ATOM     23  C   UNL     1       0.718  -0.497  -1.257  0.00  0.00    +0.022 C 
BRANCH  23  25
ATOM     24  C   UNL     1      -0.019   1.526   0.010  0.00  0.00    +0.007 C 
ATOM     25  C   UNL     1       0.002  -0.004   0.002  0.00  0.00    -0.016 C 
ATOM     26  C   UNL     1      -1.433  -0.534   0.013  0.00  0.00    +0.007 C 
ENDBRANCH  23  25
ENDBRANCH   1  23
BRANCH   6  27
ATOM     27  C   UNL     1       5.066   2.128  -4.096  0.00  0.00    +0.121 C 
BRANCH  27  28
ATOM     28  C   UNL     1       5.397   1.700  -5.527  0.00  0.00    +0.054 C 
BRANCH  28  29
ATOM     29  C   UNL     1       5.992   2.865  -6.275  0.00  0.00    -0.046 A 
ATOM     30  C   UNL     1       5.170   3.735  -6.966  0.00  0.00    +0.004 A 
ATOM     31  C   UNL     1       5.716   4.803  -7.653  0.00  0.00    +0.000 A 
ATOM     32  C   UNL     1       7.084   5.002  -7.647  0.00  0.00    +0.000 A 
ATOM     33  C   UNL     1       7.906   4.133  -6.955  0.00  0.00    +0.000 A 
ATOM     34  C   UNL     1       7.360   3.067  -6.265  0.00  0.00    +0.004 A 
ENDBRANCH  28  29
ENDBRANCH  27  28
ENDBRANCH   6  27
TORSDOF 5
