REMARK  Name = ZINC39544801
REMARK  9 active torsions:
REMARK  status: ('A' for Active; 'I' for Inactive)
REMARK    1  A    between atoms: C_1  and  C_2
REMARK    2  A    between atoms: C_2  and  C_3
REMARK    3  A    between atoms: C_2  and  C_4
REMARK    4  A    between atoms: C_4  and  N_5
REMARK    5  A    between atoms: N_5  and  C_6
REMARK    6  A    between atoms: C_11  and  O_12
REMARK    7  A    between atoms: C_13  and  C_15
REMARK    8  A    between atoms: C_18  and  S_29
REMARK    9  A    between atoms: S_29  and  C_32
REMARK                            x       y       z     vdW  Elec       q    Type
REMARK                         _______ _______ _______ _____ _____    ______ ____
ROOT
ATOM      1  C   UNL     1      -2.854   1.784  -0.066  0.00  0.00    +0.150 C 
ATOM      2  C   UNL     1      -1.510   2.489   0.206  0.00  0.00    +0.088 C 
ATOM      3  C   UNL     1      -1.837   3.961   0.095  0.00  0.00    +0.107 C 
ATOM      4  C   UNL     1      -3.109   4.105  -0.176  0.00  0.00    +0.097 C 
ATOM      5  N   UNL     1      -3.776   5.326  -0.389  0.00  0.00    -0.302 N 
ATOM      6  C   UNL     1      -4.778   5.288  -1.374  0.00  0.00    +0.037 A 
ATOM      7  C   UNL     1      -5.421   6.458  -1.749  0.00  0.00    +0.023 A 
ATOM      8  C   UNL     1      -6.413   6.419  -2.710  0.00  0.00    +0.002 A 
ATOM      9  C   UNL     1      -6.758   5.214  -3.294  0.00  0.00    +0.000 A 
ATOM     10  C   UNL     1      -6.114   4.049  -2.924  0.00  0.00    +0.007 A 
ATOM     11  C   UNL     1      -5.116   4.078  -1.964  0.00  0.00    -0.010 A 
ATOM     12  C   UNL     1      -4.415   2.796  -1.600  0.00  0.00    +0.124 C 
ATOM     13  N   UNL     1      -3.805   2.889  -0.269  0.00  0.00    -0.369 NA
ATOM     14  H   UNL     1      -3.561   6.131   0.107  0.00  0.00    +0.153 HD
ATOM     15  H   UNL     1      -4.524   2.852   0.438  0.00  0.00    +0.129 HD
ENDROOT
BRANCH   1  17
ATOM     16  N   UNL     1      -3.186  -0.346  -1.279  0.00  0.00    -0.267 N 
ATOM     17  C   UNL     1      -2.761   0.933  -1.306  0.00  0.00    +0.239 C 
ATOM     18  O   UNL     1      -2.305   1.398  -2.329  0.00  0.00    -0.273 OA
BRANCH  16  19
ATOM     19  C   UNL     1      -3.651  -0.904  -0.080  0.00  0.00    +0.078 A 
ATOM     20  C   UNL     1      -2.767  -1.540   0.779  0.00  0.00    +0.027 A 
ATOM     21  C   UNL     1      -3.227  -2.090   1.960  0.00  0.00    +0.002 A 
ATOM     22  C   UNL     1      -4.568  -2.008   2.289  0.00  0.00    +0.004 A 
ATOM     23  C   UNL     1      -5.455  -1.376   1.437  0.00  0.00    +0.047 A 
ATOM     24  C   UNL     1      -5.000  -0.817   0.254  0.00  0.00    +0.138 A 
BRANCH  24  25
ATOM     25  O   UNL     1      -5.870  -0.189  -0.582  0.00  0.00    -0.505 OA
ATOM     26  H   UNL     1      -6.274  -0.772  -1.239  0.00  0.00    +0.292 HD
ENDBRANCH  24  25
ENDBRANCH  16  19
BRANCH  16  27
ATOM     27  C   UNL     1      -3.162  -1.152  -2.502  0.00  0.00    +0.116 C 
BRANCH  27  29
ATOM     28  C   UNL     1      -4.558   0.486  -3.771  0.00  0.00    +0.009 C 
ATOM     29  C   UNL     1      -4.472  -0.956  -3.268  0.00  0.00    +0.001 C 
ATOM     30  C   UNL     1      -4.515  -1.915  -4.459  0.00  0.00    +0.009 C 
ENDBRANCH  27  29
ENDBRANCH  16  27
ENDBRANCH   1  17
BRANCH   3  31
ATOM     31  S   UNL     1      -0.684   5.278   0.300  0.00  0.00    +0.024 S 
ATOM     32  O   UNL     1       0.444   4.958  -0.502  0.00  0.00    -0.165 OA
ATOM     33  O   UNL     1      -1.415   6.486   0.139  0.00  0.00    -0.165 OA
BRANCH  31  34
ATOM     34  C   UNL     1      -0.140   5.237   1.975  0.00  0.00    +0.093 A 
ATOM     35  C   UNL     1      -0.823   5.951   2.941  0.00  0.00    +0.027 A 
ATOM     36  C   UNL     1      -0.395   5.920   4.255  0.00  0.00    +0.002 A 
ATOM     37  C   UNL     1       0.715   5.174   4.603  0.00  0.00    +0.000 A 
ATOM     38  C   UNL     1       1.398   4.459   3.637  0.00  0.00    +0.002 A 
ATOM     39  C   UNL     1       0.968   4.487   2.323  0.00  0.00    +0.027 A 
ENDBRANCH  31  34
ENDBRANCH   3  31
TORSDOF 7
