REMARK  Name = ZINC40010035
REMARK  3 active torsions:
REMARK  status: ('A' for Active; 'I' for Inactive)
REMARK    1  A    between atoms: C_3  and  C_6
REMARK    2  A    between atoms: C_8  and  C_11
REMARK    3  A    between atoms: C_11  and  N_12
REMARK                            x       y       z     vdW  Elec       q    Type
REMARK                         _______ _______ _______ _____ _____    ______ ____
ROOT
ATOM      1  N   UNL     1       7.673   0.571   1.295  0.00  0.00    -0.218 N 
ATOM      2  C   UNL     1       8.450   1.319   2.106  0.00  0.00    +0.247 C 
ATOM      3  O   UNL     1       8.961   2.389   1.851  0.00  0.00    -0.273 OA
ATOM      4  C   UNL     1       8.550   0.543   3.399  0.00  0.00    +0.113 C 
ATOM      5  C   UNL     1      10.001   0.171   3.685  0.00  0.00    +0.035 C 
ATOM      6  C   UNL     1      10.076  -0.640   4.981  0.00  0.00    +0.003 C 
ATOM      7  C   UNL     1       9.507   0.189   6.134  0.00  0.00    +0.000 C 
ATOM      8  C   UNL     1       8.045   0.534   5.843  0.00  0.00    +0.003 C 
ATOM      9  C   UNL     1       7.962   1.350   4.551  0.00  0.00    +0.035 C 
ATOM     10  N   UNL     1       7.748  -0.663   3.153  0.00  0.00    -0.285 N 
ATOM     11  C   UNL     1       7.272  -0.554   1.898  0.00  0.00    +0.310 C 
ATOM     12  O   UNL     1       6.560  -1.386   1.371  0.00  0.00    -0.252 OA
ATOM     13  H   UNL     1       7.591  -1.392   3.773  0.00  0.00    +0.151 HD
ENDROOT
BRANCH   1  14
ATOM     14  C   UNL     1       7.309   0.948  -0.073  0.00  0.00    +0.173 C 
BRANCH  14  17
ATOM     15  C   UNL     1       3.734   1.821  -0.024  0.00  0.00    +0.115 A 
ATOM     16  N   UNL     1       4.872   1.137  -0.044  0.00  0.00    -0.242 NA
ATOM     17  C   UNL     1       6.033   1.750  -0.051  0.00  0.00    +0.067 A 
ATOM     18  C   UNL     1       6.084   3.107  -0.037  0.00  0.00    +0.072 A 
ATOM     19  S   UNL     1       4.340   3.503  -0.021  0.00  0.00    -0.075 S 
BRANCH  15  22
ATOM     20  C   UNL     1      -0.016   1.355   0.009  0.00  0.00    +0.008 A 
ATOM     21  C   UNL     1       1.176   2.042   0.002  0.00  0.00    +0.018 A 
ATOM     22  C   UNL     1       2.348   1.328  -0.013  0.00  0.00    +0.044 A 
ATOM     23  S   UNL     1       1.752  -0.355  -0.017  0.00  0.00    -0.095 S 
ATOM     24  C   UNL     1       0.002  -0.004   0.002  0.00  0.00    +0.046 A 
ENDBRANCH  15  22
ENDBRANCH  14  17
ENDBRANCH   1  14
TORSDOF 3
