REMARK  Name = ZINC67081462
REMARK  9 active torsions:
REMARK  status: ('A' for Active; 'I' for Inactive)
REMARK    1  A    between atoms: C_1  and  C_2
REMARK    2  A    between atoms: C_2  and  C_3
REMARK    3  A    between atoms: C_2  and  C_4
REMARK    4  A    between atoms: C_4  and  C_5
REMARK    5  A    between atoms: C_5  and  C_6
REMARK    6  A    between atoms: N_8  and  N_9
REMARK    7  A    between atoms: N_12  and  C_13
REMARK    8  A    between atoms: C_16  and  C_18
REMARK    9  A    between atoms: C_23  and  C_24
REMARK                            x       y       z     vdW  Elec       q    Type
REMARK                         _______ _______ _______ _____ _____    ______ ____
ROOT
ATOM      1  N   UNL     1      -5.676  -0.903  -2.314  0.00  0.00    -0.218 N 
ATOM      2  C   UNL     1      -6.489  -0.667  -3.363  0.00  0.00    +0.316 C 
ATOM      3  O   UNL     1      -7.630  -1.088  -3.354  0.00  0.00    -0.251 OA
ATOM      4  N   UNL     1      -6.038   0.034  -4.421  0.00  0.00    -0.295 N 
ATOM      5  H   UNL     1      -6.001  -1.408  -1.552  0.00  0.00    +0.174 HD
ATOM      6  H   UNL     1      -5.128   0.370  -4.428  0.00  0.00    +0.151 HD
ENDROOT
BRANCH   1   9
ATOM      7  C   UNL     1      -3.549  -0.653  -1.275  0.00  0.00    +0.229 C 
ATOM      8  O   UNL     1      -3.955  -1.284  -0.323  0.00  0.00    -0.274 OA
ATOM      9  N   UNL     1      -4.362  -0.418  -2.324  0.00  0.00    -0.233 N 
ATOM     10  H   UNL     1      -4.037   0.087  -3.086  0.00  0.00    +0.173 HD
BRANCH   7  11
ATOM     11  C   UNL     1      -2.135  -0.131  -1.286  0.00  0.00    +0.097 C 
BRANCH  11  12
ATOM     12  C   UNL     1      -1.433  -0.534   0.013  0.00  0.00    +0.012 C 
BRANCH  12  14
ATOM     13  C   UNL     1      -0.019   1.526   0.010  0.00  0.00    +0.007 C 
ATOM     14  C   UNL     1       0.002  -0.004   0.002  0.00  0.00    -0.017 C 
ATOM     15  C   UNL     1       0.742  -0.511   1.242  0.00  0.00    +0.007 C 
ENDBRANCH  12  14
ENDBRANCH  11  12
ENDBRANCH   7  11
ENDBRANCH   1   9
BRANCH   4  16
ATOM     16  C   UNL     1      -6.922   0.290  -5.561  0.00  0.00    +0.083 C 
ATOM     17  C   UNL     1      -6.918   1.700  -6.156  0.00  0.00    +0.033 C 
ATOM     18  C   UNL     1      -6.266   0.544  -6.920  0.00  0.00    +0.042 C 
BRANCH  18  19
ATOM     19  C   UNL     1      -6.979   0.030  -8.144  0.00  0.00    -0.031 A 
ATOM     20  C   UNL     1      -8.253   0.478  -8.441  0.00  0.00    +0.004 A 
ATOM     21  C   UNL     1      -8.907   0.006  -9.564  0.00  0.00    +0.000 A 
ATOM     22  C   UNL     1      -8.287  -0.914 -10.389  0.00  0.00    +0.001 A 
ATOM     23  C   UNL     1      -7.013  -1.360 -10.093  0.00  0.00    +0.012 A 
ATOM     24  C   UNL     1      -6.358  -0.885  -8.973  0.00  0.00    +0.058 A 
BRANCH  24  25
ATOM     25  C   UNL     1      -4.967  -1.368  -8.652  0.00  0.00    +0.418 C 
ATOM     26  F   UNL     1      -4.554  -2.282  -9.628  0.00  0.00    -0.166 F 
ATOM     27  F   UNL     1      -4.088  -0.280  -8.631  0.00  0.00    -0.166 F 
ATOM     28  F   UNL     1      -4.966  -1.992  -7.399  0.00  0.00    -0.166 F 
ENDBRANCH  24  25
ENDBRANCH  18  19
ENDBRANCH   4  16
TORSDOF 7
