REMARK  Name = ZINC02858911
REMARK  11 active torsions:
REMARK  status: ('A' for Active; 'I' for Inactive)
REMARK    1  A    between atoms: C_1  and  C_2
REMARK    2  A    between atoms: C_2  and  O_3
REMARK    3  A    between atoms: O_3  and  C_4
REMARK    4  A    between atoms: C_4  and  C_6
REMARK    5  A    between atoms: C_7  and  C_31
REMARK    6  A    between atoms: C_12  and  C_14
REMARK    7  A    between atoms: C_17  and  O_22
REMARK    8  A    between atoms: C_18  and  O_20
REMARK    9  A    between atoms: O_20  and  C_21
REMARK   10  A    between atoms: O_22  and  C_23
REMARK   11  A    between atoms: C_23  and  C_24
REMARK                            x       y       z     vdW  Elec       q    Type
REMARK                         _______ _______ _______ _____ _____    ______ ____
ROOT
ATOM      1  C   UNL     1      -0.798   1.954   3.763  0.00  0.00    +0.083 C 
ATOM      2  C   UNL     1      -0.549   1.502   5.028  0.00  0.00    +0.052 C 
ATOM      3  N   UNL     1      -1.417   1.780   6.056  0.00  0.00    -0.296 N 
ATOM      4  C   UNL     1      -2.546   2.483   5.902  0.00  0.00    +0.135 C 
ATOM      5  S   UNL     1      -3.544   2.751   7.267  0.00  0.00    -0.019 S 
ATOM      6  N   UNL     1      -2.924   2.987   4.712  0.00  0.00    -0.315 N 
ATOM      7  C   UNL     1      -2.064   2.755   3.540  0.00  0.00    +0.141 C 
ATOM      8  H   UNL     1      -1.202   1.445   6.941  0.00  0.00    +0.154 HD
ATOM      9  H   UNL     1      -3.748   3.494   4.629  0.00  0.00    +0.149 HD
ENDROOT
BRANCH   7  10
ATOM     10  C   UNL     1      -1.671   4.098   2.979  0.00  0.00    -0.019 A 
ATOM     11  C   UNL     1      -1.099   5.048   3.803  0.00  0.00    +0.009 A 
ATOM     12  C   UNL     1      -0.732   6.279   3.293  0.00  0.00    +0.050 A 
ATOM     13  C   UNL     1      -0.947   6.566   1.954  0.00  0.00    +0.162 A 
ATOM     14  C   UNL     1      -1.529   5.611   1.126  0.00  0.00    +0.162 A 
ATOM     15  C   UNL     1      -1.890   4.378   1.643  0.00  0.00    +0.055 A 
BRANCH  14  16
ATOM     16  O   UNL     1      -1.742   5.888  -0.188  0.00  0.00    -0.491 OA
ATOM     17  C   UNL     1      -2.443   4.905  -0.953  0.00  0.00    +0.277 C 
ENDBRANCH  14  16
BRANCH  13  18
ATOM     18  O   UNL     1      -0.592   7.779   1.452  0.00  0.00    -0.484 OA
BRANCH  18  19
ATOM     19  C   UNL     1      -0.000   8.710   2.360  0.00  0.00    +0.267 C 
BRANCH  19  20
ATOM     20  C   UNL     1       0.325   9.987   1.630  0.00  0.00    +0.025 A 
ATOM     21  C   UNL     1       0.044  10.103   0.281  0.00  0.00    +0.010 A 
ATOM     22  C   UNL     1       0.337  11.277  -0.388  0.00  0.00    +0.001 A 
ATOM     23  C   UNL     1       0.921  12.332   0.289  0.00  0.00    +0.003 A 
ATOM     24  C   UNL     1       1.207  12.217   1.636  0.00  0.00    +0.039 A 
ATOM     25  C   UNL     1       0.909  11.043   2.308  0.00  0.00    +0.130 A 
ATOM     26  F   UNL     1       1.189  10.929   3.625  0.00  0.00    -0.205 F 
ENDBRANCH  19  20
ENDBRANCH  18  19
ENDBRANCH  13  18
ENDBRANCH   7  10
BRANCH   2  27
ATOM     27  C   UNL     1       0.669   0.711   5.295  0.00  0.00    -0.003 A 
ATOM     28  C   UNL     1       0.999  -0.368   4.472  0.00  0.00    +0.010 A 
ATOM     29  C   UNL     1       2.143  -1.098   4.723  0.00  0.00    +0.001 A 
ATOM     30  C   UNL     1       2.954  -0.771   5.794  0.00  0.00    +0.000 A 
ATOM     31  C   UNL     1       2.630   0.293   6.618  0.00  0.00    +0.001 A 
ATOM     32  C   UNL     1       1.494   1.036   6.375  0.00  0.00    +0.010 A 
ENDBRANCH   2  27
BRANCH   1  33
ATOM     33  C   UNL     1       0.088   1.679   2.703  0.00  0.00    +0.339 C 
ATOM     34  O   UNL     1      -0.212   0.859   1.856  0.00  0.00    -0.245 OA
BRANCH  33  35
ATOM     35  O   UNL     1       1.271   2.327   2.627  0.00  0.00    -0.462 OA
BRANCH  35  37
ATOM     36  C   UNL     1       3.414   2.802   1.617  0.00  0.00    +0.048 C 
ATOM     37  C   UNL     1       2.076   2.073   1.475  0.00  0.00    +0.229 C 
ENDBRANCH  35  37
ENDBRANCH  33  35
ENDBRANCH   1  33
TORSDOF 9
