REMARK  Name = ZINC40759086
REMARK  4 active torsions:
REMARK  status: ('A' for Active; 'I' for Inactive)
REMARK    1  A    between atoms: C_10  and  N_11
REMARK    2  A    between atoms: C_13  and  N_26
REMARK    3  A    between atoms: C_14  and  O_18
REMARK    4  A    between atoms: O_18  and  C_19
REMARK                            x       y       z     vdW  Elec       q    Type
REMARK                         _______ _______ _______ _____ _____    ______ ____
ROOT
ATOM      1  N   UNL     1       4.868   0.093  -0.028  0.00  0.00    -0.297 N 
ATOM      2  C   UNL     1       6.081  -0.580   0.063  0.00  0.00    +0.151 A 
ATOM      3  C   UNL     1       7.282   0.129   0.156  0.00  0.00    +0.128 A 
ATOM      4  C   UNL     1       8.469  -0.596   0.244  0.00  0.00    +0.246 A 
ATOM      5  N   UNL     1       8.416  -1.924   0.236  0.00  0.00    -0.199 NA
ATOM      6  C   UNL     1       7.263  -2.556   0.147  0.00  0.00    +0.227 A 
ATOM      7  N   UNL     1       6.117  -1.910   0.067  0.00  0.00    -0.218 NA
ATOM      8  H   UNL     1       4.855   1.059  -0.115  0.00  0.00    +0.154 HD
ENDROOT
BRANCH   1  18
ATOM      9  C   UNL     1       0.190   0.927  -1.725  0.00  0.00    +0.001 A 
ATOM     10  C   UNL     1       1.376   1.656  -1.770  0.00  0.00    +0.001 A 
ATOM     11  C   UNL     1       2.519   1.170  -1.213  0.00  0.00    +0.010 A 
ATOM     12  C   UNL     1       2.506  -0.084  -0.582  0.00  0.00    +0.003 A 
ATOM     13  C   UNL     1       1.300  -0.826  -0.534  0.00  0.00    -0.016 A 
ATOM     14  C   UNL     1       0.140  -0.292  -1.121  0.00  0.00    +0.008 A 
ATOM     15  C   UNL     1       1.285  -2.081   0.098  0.00  0.00    +0.008 A 
ATOM     16  C   UNL     1       2.424  -2.574   0.658  0.00  0.00    +0.002 A 
ATOM     17  C   UNL     1       3.614  -1.855   0.618  0.00  0.00    +0.024 A 
ATOM     18  C   UNL     1       3.671  -0.619   0.007  0.00  0.00    +0.040 A 
ENDBRANCH   1  18
BRANCH   3  19
ATOM     19  N   UNL     1       7.292   1.532   0.160  0.00  0.00    -0.351 N 
ATOM     20  H   UNL     1       6.457   2.023   0.098  0.00  0.00    +0.143 HD
ATOM     21  H   UNL     1       8.133   2.011   0.226  0.00  0.00    +0.143 HD
ENDBRANCH   3  19
BRANCH   4  22
ATOM     22  O   UNL     1       9.662   0.045   0.336  0.00  0.00    -0.436 OA
BRANCH  22  23
ATOM     23  C   UNL     1      10.793  -0.707   0.314  0.00  0.00    +0.130 A 
ATOM     24  C   UNL     1      11.136  -1.413  -0.830  0.00  0.00    +0.047 A 
ATOM     25  C   UNL     1      12.287  -2.176  -0.851  0.00  0.00    +0.019 A 
ATOM     26  C   UNL     1      13.098  -2.238   0.268  0.00  0.00    +0.018 A 
ATOM     27  C   UNL     1      12.758  -1.535   1.410  0.00  0.00    +0.019 A 
ATOM     28  C   UNL     1      11.611  -0.766   1.433  0.00  0.00    +0.047 A 
ATOM     29 BR   UNL     1      14.673  -3.284   0.237  0.00  0.00    -0.050 Br
ENDBRANCH  22  23
ENDBRANCH   4  22
TORSDOF 4
