REMARK  Name = ZINC66898290
REMARK  5 active torsions:
REMARK  status: ('A' for Active; 'I' for Inactive)
REMARK    1  A    between atoms: C_4  and  C_7
REMARK    2  A    between atoms: N_12  and  C_15
REMARK    3  A    between atoms: C_15  and  C_16
REMARK    4  A    between atoms: N_21  and  C_22
REMARK    5  A    between atoms: C_22  and  C_23
REMARK                            x       y       z     vdW  Elec       q    Type
REMARK                         _______ _______ _______ _____ _____    ______ ____
ROOT
ATOM      1  C   UNL     1       3.711  -0.707  -0.038  0.00  0.00    +0.017 C 
ATOM      2  C   UNL     1       3.792  -1.573  -1.319  0.00  0.00    +0.006 C 
ATOM      3  C   UNL     1       5.224  -1.987  -1.537  0.00  0.00    -0.018 C 
ATOM      4  C   UNL     1       5.578  -3.336  -0.887  0.00  0.00    -0.078 C 
ATOM      5  N   UNL     1       5.023  -3.501   0.474  0.00  0.00    +0.385 N 
ATOM      6  C   UNL     1       5.146  -2.295   1.255  0.00  0.00    -0.078 C 
ATOM      7  C   UNL     1       3.813  -1.534   1.159  0.00  0.00    -0.011 C 
ATOM      8  H   UNL     1       4.048  -3.749   0.403  0.00  0.00    -0.081 HD
ENDROOT
BRANCH   1  12
ATOM      9  C   UNL     1      -0.017   1.378   0.010  0.00  0.00    +0.000 A 
ATOM     10  C   UNL     1       1.171   2.086   0.002  0.00  0.00    +0.000 A 
ATOM     11  C   UNL     1       2.377   1.411  -0.013  0.00  0.00    +0.004 A 
ATOM     12  C   UNL     1       2.396   0.029  -0.020  0.00  0.00    -0.044 A 
ATOM     13  C   UNL     1       1.208  -0.679  -0.012  0.00  0.00    +0.004 A 
ATOM     14  C   UNL     1       0.002  -0.004   0.002  0.00  0.00    +0.000 A 
ENDBRANCH   1  12
BRANCH   5  15
ATOM     15  C   UNL     1       5.742  -4.587   1.155  0.00  0.00    +0.019 C 
BRANCH  15  16
ATOM     16  C   UNL     1       5.471  -5.889   0.447  0.00  0.00    +0.204 C 
ATOM     17  O   UNL     1       4.751  -5.912  -0.528  0.00  0.00    -0.277 OA
ATOM     18  N   UNL     1       6.030  -7.030   0.898  0.00  0.00    -0.242 N 
ATOM     19  C   UNL     1       5.788  -8.195   0.266  0.00  0.00    +0.306 C 
ATOM     20  O   UNL     1       5.066  -8.217  -0.712  0.00  0.00    -0.252 OA
ATOM     21  N   UNL     1       6.347  -9.335   0.717  0.00  0.00    -0.291 N 
ATOM     22  H   UNL     1       6.606  -7.012   1.679  0.00  0.00    +0.159 HD
ATOM     23  H   UNL     1       6.923  -9.318   1.497  0.00  0.00    +0.151 HD
BRANCH  21  24
ATOM     24  C   UNL     1       6.084 -10.602   0.029  0.00  0.00    +0.219 C 
BRANCH  24  25
ATOM     25  C   UNL     1       6.832 -11.732   0.738  0.00  0.00    +0.405 C 
ATOM     26  F   UNL     1       6.394 -11.822   2.064  0.00  0.00    -0.169 F 
ATOM     27  F   UNL     1       6.581 -12.942   0.081  0.00  0.00    -0.169 F 
ATOM     28  F   UNL     1       8.206 -11.467   0.718  0.00  0.00    -0.169 F 
ENDBRANCH  24  25
ENDBRANCH  21  24
ENDBRANCH  15  16
ENDBRANCH   5  15
TORSDOF 5
