REMARK  Name = ZINC16051337
REMARK  9 active torsions:
REMARK  status: ('A' for Active; 'I' for Inactive)
REMARK    1  A    between atoms: C_1  and  C_2
REMARK    2  A    between atoms: C_2  and  C_3
REMARK    3  A    between atoms: C_2  and  O_4
REMARK    4  A    between atoms: O_4  and  C_5
REMARK    5  A    between atoms: C_7  and  O_41
REMARK    6  A    between atoms: C_10  and  C_11
REMARK    7  A    between atoms: C_13  and  C_34
REMARK    8  A    between atoms: C_15  and  C_27
REMARK    9  A    between atoms: O_41  and  C_42
REMARK                            x       y       z     vdW  Elec       q    Type
REMARK                         _______ _______ _______ _____ _____    ______ ____
ROOT
ATOM      1  C   UNL     1       1.972  -1.591   3.253  0.00  0.00    +0.136 C 
ATOM      2  N   UNL     1       2.768  -1.284   2.282  0.00  0.00    -0.258 NA
ATOM      3  C   UNL     1       4.159  -1.574   2.656  0.00  0.00    +0.162 C 
ATOM      4  C   UNL     1       4.056  -2.134   4.088  0.00  0.00    +0.143 C 
ATOM      5  N   UNL     1       2.610  -2.093   4.365  0.00  0.00    -0.230 N 
ATOM      6  C   UNL     1       2.014  -2.482   5.510  0.00  0.00    +0.311 C 
ATOM      7  O   UNL     1       0.802  -2.561   5.568  0.00  0.00    -0.252 OA
ATOM      8  N   UNL     1       2.761  -2.784   6.590  0.00  0.00    -0.275 N 
ATOM      9  C   UNL     1       2.149  -3.303   7.825  0.00  0.00    +0.128 C 
ATOM     10  C   UNL     1       2.717  -4.698   8.090  0.00  0.00    +0.123 C 
ATOM     11  N   UNL     1       4.166  -4.703   7.942  0.00  0.00    -0.313 N 
ATOM     12  C   UNL     1       4.858  -3.805   7.239  0.00  0.00    +0.231 C 
ATOM     13  O   UNL     1       6.055  -3.959   7.123  0.00  0.00    -0.274 OA
ATOM     14  C   UNL     1       4.222  -2.615   6.581  0.00  0.00    +0.205 C 
ATOM     15  H   UNL     1       4.663  -5.408   8.385  0.00  0.00    +0.149 HD
ENDROOT
BRANCH   4  16
ATOM     16  C   UNL     1       4.576  -3.548   4.145  0.00  0.00    -0.024 A 
ATOM     17  C   UNL     1       3.720  -4.608   3.910  0.00  0.00    +0.007 A 
ATOM     18  C   UNL     1       4.197  -5.905   3.962  0.00  0.00    +0.020 A 
ATOM     19  C   UNL     1       5.529  -6.141   4.248  0.00  0.00    +0.041 A 
ATOM     20  C   UNL     1       6.385  -5.079   4.484  0.00  0.00    +0.020 A 
ATOM     21  C   UNL     1       5.909  -3.783   4.426  0.00  0.00    +0.007 A 
ATOM     22 CL   UNL     1       6.128  -7.769   4.314  0.00  0.00    -0.084 Cl
ENDBRANCH   4  16
BRANCH   3  23
ATOM     23  C   UNL     1       4.984  -0.313   2.638  0.00  0.00    -0.021 A 
ATOM     24  C   UNL     1       4.441   0.874   3.093  0.00  0.00    +0.007 A 
ATOM     25  C   UNL     1       5.197   2.031   3.077  0.00  0.00    +0.020 A 
ATOM     26  C   UNL     1       6.497   2.001   2.605  0.00  0.00    +0.041 A 
ATOM     27  C   UNL     1       7.040   0.813   2.149  0.00  0.00    +0.020 A 
ATOM     28  C   UNL     1       6.285  -0.345   2.171  0.00  0.00    +0.007 A 
ATOM     29 CL   UNL     1       7.447   3.454   2.583  0.00  0.00    -0.084 Cl
ENDBRANCH   3  23
BRANCH   1  35
ATOM     30  C   UNL     1      -0.343  -2.517   3.319  0.00  0.00    +0.135 A 
ATOM     31  C   UNL     1      -1.715  -2.340   3.253  0.00  0.00    +0.092 A 
ATOM     32  C   UNL     1      -2.243  -1.075   3.043  0.00  0.00    +0.124 A 
ATOM     33  C   UNL     1      -1.399   0.021   2.898  0.00  0.00    +0.046 A 
ATOM     34  C   UNL     1      -0.033  -0.143   2.961  0.00  0.00    +0.018 A 
ATOM     35  C   UNL     1       0.508  -1.412   3.178  0.00  0.00    +0.057 A 
BRANCH  32  36
ATOM     36  O   UNL     1      -3.588  -0.906   2.979  0.00  0.00    -0.495 OA
ATOM     37  C   UNL     1      -4.065   0.423   2.761  0.00  0.00    +0.277 C 
ENDBRANCH  32  36
BRANCH  30  38
ATOM     38  O   UNL     1       0.175  -3.754   3.524  0.00  0.00    -0.489 OA
BRANCH  38  40
ATOM     39  C   UNL     1      -1.050  -5.312   2.142  0.00  0.00    +0.051 C 
ATOM     40  C   UNL     1      -0.747  -4.845   3.567  0.00  0.00    +0.167 C 
ATOM     41  C   UNL     1      -0.135  -5.999   4.362  0.00  0.00    +0.051 C 
ENDBRANCH  38  40
ENDBRANCH  30  38
ENDBRANCH   1  35
TORSDOF 6
