REMARK  Name = ZINC65134373
REMARK  7 active torsions:
REMARK  status: ('A' for Active; 'I' for Inactive)
REMARK    1  A    between atoms: C_1  and  C_2
REMARK    2  A    between atoms: C_5  and  S_8
REMARK    3  A    between atoms: S_8  and  C_11
REMARK    4  A    between atoms: C_16  and  N_17
REMARK    5  A    between atoms: N_18  and  C_19
REMARK    6  A    between atoms: N_18  and  C_20
REMARK    7  A    between atoms: C_20  and  C_21
REMARK                            x       y       z     vdW  Elec       q    Type
REMARK                         _______ _______ _______ _____ _____    ______ ____
ROOT
ATOM      1  C   UNL     1       1.848  -4.809  -0.070  0.00  0.00    +0.151 A 
ATOM      2  C   UNL     1       2.444  -5.596   0.897  0.00  0.00    +0.145 A 
ATOM      3  N   UNL     1       3.611  -6.168   0.638  0.00  0.00    -0.221 NA
ATOM      4  C   UNL     1       4.209  -5.995  -0.531  0.00  0.00    +0.220 A 
ATOM      5  N   UNL     1       3.672  -5.249  -1.484  0.00  0.00    -0.198 NA
ATOM      6  C   UNL     1       2.500  -4.650  -1.294  0.00  0.00    +0.147 A 
ATOM      7  N   UNL     1       5.427  -6.610  -0.763  0.00  0.00    -0.298 N 
ATOM      8  C   UNL     1       6.105  -6.432  -2.049  0.00  0.00    +0.132 C 
ENDROOT
BRANCH   1   9
ATOM      9  S   UNL     1       0.297  -4.030   0.233  0.00  0.00    +0.030 S 
ATOM     10  O   UNL     1      -0.076  -4.370   1.562  0.00  0.00    -0.164 OA
ATOM     11  O   UNL     1      -0.528  -4.319  -0.887  0.00  0.00    -0.164 OA
BRANCH   9  16
ATOM     12  C   UNL     1       1.248   1.928   0.181  0.00  0.00    +0.044 C 
ATOM     13  C   UNL     1       1.010   0.440   0.194  0.00  0.00    -0.050 A 
ATOM     14  C   UNL     1       0.581  -0.202  -0.953  0.00  0.00    +0.005 A 
ATOM     15  C   UNL     1       0.363  -1.567  -0.941  0.00  0.00    +0.027 A 
ATOM     16  C   UNL     1       0.575  -2.291   0.218  0.00  0.00    +0.094 A 
ATOM     17  C   UNL     1       1.006  -1.649   1.364  0.00  0.00    +0.027 A 
ATOM     18  C   UNL     1       1.228  -0.285   1.351  0.00  0.00    +0.005 A 
ENDBRANCH   9  16
ENDBRANCH   1   9
BRANCH   6  19
ATOM     19  N   UNL     1       1.937  -3.874  -2.294  0.00  0.00    -0.341 N 
ATOM     20  H   UNL     1       1.037  -3.529  -2.192  0.00  0.00    +0.144 HD
ATOM     21  H   UNL     1       2.444  -3.676  -3.097  0.00  0.00    +0.144 HD
ENDBRANCH   6  19
BRANCH   7  22
ATOM     22  C   UNL     1       6.039  -7.440   0.279  0.00  0.00    +0.142 C 
BRANCH  22  23
ATOM     23  C   UNL     1       5.575  -8.865   0.122  0.00  0.00    -0.030 A 
ATOM     24  C   UNL     1       4.431  -9.294   0.769  0.00  0.00    +0.005 A 
ATOM     25  C   UNL     1       4.005 -10.602   0.625  0.00  0.00    +0.000 A 
ATOM     26  C   UNL     1       4.724 -11.480  -0.165  0.00  0.00    +0.000 A 
ATOM     27  C   UNL     1       5.867 -11.050  -0.812  0.00  0.00    +0.000 A 
ATOM     28  C   UNL     1       6.290  -9.742  -0.672  0.00  0.00    +0.005 A 
ENDBRANCH  22  23
ENDBRANCH   7  22
TORSDOF 5
