REMARK  Name = ZINC13163965
REMARK  6 active torsions:
REMARK  status: ('A' for Active; 'I' for Inactive)
REMARK    1  A    between atoms: C_1  and  C_2
REMARK    2  A    between atoms: C_2  and  C_3
REMARK    3  A    between atoms: C_3  and  C_25
REMARK    4  A    between atoms: N_6  and  C_10
REMARK    5  A    between atoms: C_10  and  C_11
REMARK    6  A    between atoms: N_13  and  C_14
REMARK                            x       y       z     vdW  Elec       q    Type
REMARK                         _______ _______ _______ _____ _____    ______ ____
ROOT
ATOM      1  C   UNL     1      -0.388   3.922   0.017  0.00  0.00    +0.138 C 
ATOM      2  C   UNL     1       1.102   3.643   0.038  0.00  0.00    +0.251 C 
ATOM      3  O   UNL     1       1.998   4.458   0.097  0.00  0.00    -0.272 OA
ATOM      4  N   UNL     1       1.223   2.303  -0.024  0.00  0.00    -0.215 N 
ATOM      5  C   UNL     1       0.029   1.701  -0.081  0.00  0.00    +0.310 C 
ATOM      6  O   UNL     1      -0.118   0.497  -0.142  0.00  0.00    -0.252 OA
ATOM      7  N   UNL     1      -0.990   2.580  -0.067  0.00  0.00    -0.281 N 
ATOM      8  H   UNL     1      -1.936   2.370  -0.104  0.00  0.00    +0.152 HD
ENDROOT
BRANCH   1   9
ATOM      9  C   UNL     1      -0.814   4.624   1.280  0.00  0.00    -0.015 A 
ATOM     10  C   UNL     1      -0.812   6.005   1.337  0.00  0.00    +0.009 A 
ATOM     11  C   UNL     1      -1.208   6.651   2.493  0.00  0.00    +0.039 A 
ATOM     12  C   UNL     1      -1.595   5.913   3.599  0.00  0.00    +0.123 A 
ATOM     13  C   UNL     1      -1.590   4.530   3.543  0.00  0.00    +0.039 A 
ATOM     14  C   UNL     1      -1.200   3.887   2.384  0.00  0.00    +0.009 A 
ATOM     15  F   UNL     1      -1.975   6.543   4.732  0.00  0.00    -0.205 F 
ENDBRANCH   1   9
BRANCH   1  17
ATOM     16  C   UNL     1      -0.484   3.943  -2.480  0.00  0.00    +0.007 C 
ATOM     17  C   UNL     1      -0.763   4.753  -1.212  0.00  0.00    +0.037 C 
ENDBRANCH   1  17
BRANCH   4  18
ATOM     18  C   UNL     1       2.504   1.591  -0.029  0.00  0.00    +0.214 C 
BRANCH  18  19
ATOM     19  C   UNL     1       2.976   1.416  -1.449  0.00  0.00    +0.235 C 
ATOM     20  O   UNL     1       2.309   1.843  -2.367  0.00  0.00    -0.274 OA
ATOM     21  N   UNL     1       4.140   0.784  -1.699  0.00  0.00    -0.284 N 
ATOM     22  H   UNL     1       4.711   0.511  -0.964  0.00  0.00    +0.155 HD
BRANCH  21  23
ATOM     23  C   UNL     1       4.526   0.523  -3.020  0.00  0.00    +0.037 A 
ATOM     24  C   UNL     1       3.564   0.243  -3.982  0.00  0.00    +0.027 A 
ATOM     25  C   UNL     1       3.943  -0.010  -5.286  0.00  0.00    +0.051 A 
ATOM     26  C   UNL     1       5.283   0.005  -5.636  0.00  0.00    +0.173 A 
ATOM     27  C   UNL     1       6.251   0.280  -4.673  0.00  0.00    +0.174 A 
ATOM     28  C   UNL     1       5.870   0.538  -3.367  0.00  0.00    +0.073 A 
ATOM     29  O   UNL     1       7.480   0.234  -5.264  0.00  0.00    -0.395 OA
ATOM     30  C   UNL     1       7.231   0.332  -6.678  0.00  0.00    +0.589 C 
ATOM     31  O   UNL     1       5.908  -0.213  -6.832  0.00  0.00    -0.395 OA
ATOM     32  F   UNL     1       7.263   1.669  -7.091  0.00  0.00    -0.125 F 
ATOM     33  F   UNL     1       8.164  -0.424  -7.396  0.00  0.00    -0.125 F 
ENDBRANCH  21  23
ENDBRANCH  18  19
ENDBRANCH   4  18
TORSDOF 5
