REMARK  Name = ZINC41078090
REMARK  10 active torsions:
REMARK  status: ('A' for Active; 'I' for Inactive)
REMARK    1  A    between atoms: C_1  and  C_2
REMARK    2  A    between atoms: C_2  and  C_3
REMARK    3  A    between atoms: C_3  and  N_4
REMARK    4  A    between atoms: N_4  and  C_5
REMARK    5  A    between atoms: C_5  and  C_6
REMARK    6  A    between atoms: C_15  and  C_19
REMARK    7  A    between atoms: C_17  and  C_18
REMARK    8  A    between atoms: N_22  and  C_23
REMARK    9  A    between atoms: C_26  and  C_30
REMARK   10  A    between atoms: C_27  and  C_29
REMARK                            x       y       z     vdW  Elec       q    Type
REMARK                         _______ _______ _______ _____ _____    ______ ____
ROOT
ATOM      1  N   UNL     1       0.731  -2.082   1.282  0.00  0.00    -0.281 N 
ATOM      2  C   UNL     1      -0.141  -2.922   1.874  0.00  0.00    +0.307 C 
ATOM      3  O   UNL     1      -0.016  -4.124   1.738  0.00  0.00    -0.252 OA
ATOM      4  N   UNL     1      -1.153  -2.430   2.616  0.00  0.00    -0.269 N 
ATOM      5  H   UNL     1      -1.216  -1.476   2.779  0.00  0.00    +0.156 HD
ENDROOT
BRANCH   4   6
ATOM      6  C   UNL     1      -2.114  -3.296   3.150  0.00  0.00    +0.035 A 
ATOM      7  C   UNL     1      -3.439  -2.891   3.245  0.00  0.00    +0.023 A 
ATOM      8  C   UNL     1      -4.385  -3.747   3.773  0.00  0.00    +0.005 A 
ATOM      9  C   UNL     1      -4.014  -5.007   4.207  0.00  0.00    -0.047 A 
ATOM     10  C   UNL     1      -2.696  -5.413   4.114  0.00  0.00    -0.046 A 
ATOM     11  C   UNL     1      -1.746  -4.563   3.582  0.00  0.00    +0.027 A 
ATOM     12  C   UNL     1      -2.295  -6.786   4.589  0.00  0.00    +0.044 C 
ATOM     13  C   UNL     1      -5.049  -5.939   4.783  0.00  0.00    +0.044 C 
ENDBRANCH   4   6
BRANCH   1  14
ATOM     14  C   UNL     1       0.580  -0.634   1.446  0.00  0.00    +0.109 C 
BRANCH  14  16
ATOM     15  C   UNL     1      -0.370   1.445   0.437  0.00  0.00    +0.005 C 
ATOM     16  C   UNL     1      -0.212  -0.067   0.266  0.00  0.00    +0.016 C 
ENDBRANCH  14  16
ENDBRANCH   1  14
BRANCH   1  17
ATOM     17  C   UNL     1       1.831  -2.617   0.476  0.00  0.00    +0.145 C 
BRANCH  17  18
ATOM     18  C   UNL     1       2.990  -2.966   1.375  0.00  0.00    -0.016 A 
ATOM     19  C   UNL     1       3.138  -4.224   1.857  0.00  0.00    +0.076 A 
ATOM     20  C   UNL     1       4.227  -4.539   2.698  0.00  0.00    +0.249 A 
ATOM     21  O   UNL     1       4.342  -5.677   3.120  0.00  0.00    -0.268 OA
ATOM     22  N   UNL     1       5.141  -3.616   3.044  0.00  0.00    -0.322 N 
ATOM     23  H   UNL     1       5.877  -3.867   3.624  0.00  0.00    +0.169 HD
ATOM     24  C   UNL     1       5.047  -2.319   2.587  0.00  0.00    +0.052 A 
ATOM     25  C   UNL     1       3.983  -1.954   1.741  0.00  0.00    +0.004 A 
ATOM     26  C   UNL     1       3.886  -0.641   1.270  0.00  0.00    +0.013 A 
ATOM     27  C   UNL     1       4.830   0.279   1.630  0.00  0.00    -0.050 A 
ATOM     28  C   UNL     1       5.884  -0.078   2.460  0.00  0.00    +0.008 A 
ATOM     29  C   UNL     1       5.993  -1.364   2.945  0.00  0.00    -0.026 A 
ATOM     30  C   UNL     1       7.142  -1.737   3.846  0.00  0.00    +0.046 C 
ATOM     31  C   UNL     1       4.726   1.694   1.122  0.00  0.00    +0.044 C 
ENDBRANCH  17  18
ENDBRANCH   1  17
TORSDOF 5
