REMARK  Name = ZINC24578547
REMARK  12 active torsions:
REMARK  status: ('A' for Active; 'I' for Inactive)
REMARK    1  A    between atoms: C_1  and  O_2
REMARK    2  A    between atoms: O_2  and  C_3
REMARK    3  A    between atoms: C_5  and  N_11
REMARK    4  A    between atoms: C_7  and  O_9
REMARK    5  A    between atoms: O_9  and  C_10
REMARK    6  A    between atoms: C_12  and  C_14
REMARK    7  A    between atoms: C_14  and  C_16
REMARK    8  A    between atoms: C_14  and  N_27
REMARK    9  A    between atoms: C_16  and  C_17
REMARK   10  A    between atoms: C_28  and  O_30
REMARK   11  A    between atoms: O_30  and  C_31
REMARK   12  A    between atoms: C_31  and  C_32
REMARK                            x       y       z     vdW  Elec       q    Type
REMARK                         _______ _______ _______ _____ _____    ______ ____
ROOT
ATOM      1  C   UNL     1      -0.173   1.195   4.823  0.00  0.00    +0.167 C 
ENDROOT
BRANCH   1   3
ATOM      2  N   UNL     1      -0.950   0.884   7.151  0.00  0.00    -0.284 N 
ATOM      3  C   UNL     1      -1.248   1.216   5.879  0.00  0.00    +0.238 C 
ATOM      4  O   UNL     1      -2.382   1.531   5.584  0.00  0.00    -0.273 OA
ATOM      5  H   UNL     1       0.058   0.525   7.403  0.00  0.00    +0.155 HD
BRANCH   2   8
ATOM      6  C   UNL     1      -4.218   0.837   8.846  0.00  0.00    +0.125 A 
ATOM      7  C   UNL     1      -3.254   0.726   7.856  0.00  0.00    +0.069 A 
ATOM      8  C   UNL     1      -1.924   0.996   8.149  0.00  0.00    +0.040 A 
ATOM      9  C   UNL     1      -1.559   1.371   9.435  0.00  0.00    +0.069 A 
ATOM     10  C   UNL     1      -2.525   1.487  10.423  0.00  0.00    +0.125 A 
ATOM     11  C   UNL     1      -3.854   1.218  10.129  0.00  0.00    +0.091 A 
BRANCH   6  13
ATOM     12  C   UNL     1      -6.459   0.709   9.627  0.00  0.00    +0.277 C 
ATOM     13  O   UNL     1      -5.520   0.574   8.559  0.00  0.00    -0.495 OA
ENDBRANCH   6  13
BRANCH  10  14
ATOM     14  O   UNL     1      -2.170   1.860  11.680  0.00  0.00    -0.495 OA
ATOM     15  C   UNL     1      -3.216   1.954  12.649  0.00  0.00    +0.277 C 
ENDBRANCH  10  14
ENDBRANCH   2   8
ENDBRANCH   1   3
BRANCH   1  16
ATOM     16  N   UNL     1      -0.747   1.592   3.534  0.00  0.00    -0.269 N 
ATOM     17  C   UNL     1      -0.169   1.186   2.386  0.00  0.00    +0.401 C 
ATOM     18  O   UNL     1       0.827   0.491   2.420  0.00  0.00    -0.226 OA
ATOM     19  H   UNL     1      -1.648   2.221   3.504  0.00  0.00    +0.153 HD
BRANCH  17  20
ATOM     20  O   UNL     1      -0.696   1.551   1.202  0.00  0.00    -0.446 OA
BRANCH  20  21
ATOM     21  C   UNL     1      -0.022   1.077   0.007  0.00  0.00    +0.269 C 
BRANCH  21  22
ATOM     22  C   UNL     1      -0.749   1.582  -1.213  0.00  0.00    -0.010 A 
ATOM     23  C   UNL     1      -1.763   0.829  -1.774  0.00  0.00    +0.007 A 
ATOM     24  C   UNL     1      -2.433   1.294  -2.890  0.00  0.00    +0.000 A 
ATOM     25  C   UNL     1      -2.082   2.507  -3.452  0.00  0.00    +0.000 A 
ATOM     26  C   UNL     1      -1.063   3.257  -2.894  0.00  0.00    +0.000 A 
ATOM     27  C   UNL     1      -0.397   2.795  -1.775  0.00  0.00    +0.007 A 
ENDBRANCH  21  22
ENDBRANCH  20  21
ENDBRANCH  17  20
ENDBRANCH   1  16
BRANCH   1  28
ATOM     28  C   UNL     1       0.939   2.172   5.209  0.00  0.00    +0.069 C 
BRANCH  28  29
ATOM     29  C   UNL     1       2.070   2.062   4.218  0.00  0.00    -0.020 A 
ATOM     30  C   UNL     1       3.177   1.314   4.350  0.00  0.00    +0.087 A 
ATOM     31  N   UNL     1       3.976   1.466   3.250  0.00  0.00    -0.360 N 
ATOM     32  H   UNL     1       4.928   0.918   3.182  0.00  0.00    +0.165 HD
ATOM     33  C   UNL     1       3.392   2.344   2.365  0.00  0.00    +0.047 A 
ATOM     34  C   UNL     1       2.173   2.756   2.933  0.00  0.00    +0.003 A 
ATOM     35  C   UNL     1       1.355   3.658   2.249  0.00  0.00    +0.010 A 
ATOM     36  C   UNL     1       1.745   4.137   1.030  0.00  0.00    +0.001 A 
ATOM     37  C   UNL     1       2.947   3.734   0.465  0.00  0.00    +0.002 A 
ATOM     38  C   UNL     1       3.769   2.844   1.123  0.00  0.00    +0.026 A 
ENDBRANCH  28  29
ENDBRANCH   1  28
TORSDOF 10
