REMARK  Name = ZINC41513561
REMARK  19 active torsions:
REMARK  status: ('A' for Active; 'I' for Inactive)
REMARK    1  A    between atoms: C_1  and  C_2
REMARK    2  A    between atoms: C_4  and  O_35
REMARK    3  A    between atoms: C_5  and  C_25
REMARK    4  A    between atoms: C_11  and  C_12
REMARK    5  A    between atoms: C_14  and  O_22
REMARK    6  A    between atoms: C_15  and  O_20
REMARK    7  A    between atoms: C_16  and  O_18
REMARK    8  A    between atoms: O_18  and  C_19
REMARK    9  A    between atoms: O_20  and  C_21
REMARK   10  A    between atoms: O_22  and  C_23
REMARK   11  A    between atoms: C_25  and  N_26
REMARK   12  A    between atoms: N_26  and  C_27
REMARK   13  A    between atoms: N_26  and  C_31
REMARK   14  A    between atoms: C_27  and  C_28
REMARK   15  A    between atoms: C_28  and  C_29
REMARK   16  A    between atoms: C_28  and  C_30
REMARK   17  A    between atoms: C_31  and  C_32
REMARK   18  A    between atoms: C_32  and  C_33
REMARK   19  A    between atoms: C_32  and  C_34
REMARK                            x       y       z     vdW  Elec       q    Type
REMARK                         _______ _______ _______ _____ _____    ______ ____
ROOT
ATOM      1  C   UNL     1      -1.548   1.070   0.872  0.00  0.00    +0.045 C 
ATOM      2  C   UNL     1      -1.208  -0.378   0.630  0.00  0.00    -0.033 A 
ATOM      3  C   UNL     1      -0.792  -0.786  -0.606  0.00  0.00    +0.050 A 
ATOM      4  C   UNL     1      -0.477  -2.123  -0.832  0.00  0.00    +0.122 A 
ATOM      5  C   UNL     1      -0.581  -3.054   0.189  0.00  0.00    +0.020 A 
ATOM      6  C   UNL     1      -1.002  -2.655   1.452  0.00  0.00    +0.145 A 
ATOM      7  C   UNL     1      -1.311  -1.303   1.669  0.00  0.00    +0.071 A 
ATOM      8  C   UNL     1      -1.713  -1.190   3.083  0.00  0.00    +0.232 C 
ATOM      9  O   UNL     1      -2.065  -0.188   3.681  0.00  0.00    -0.283 OA
ATOM     10  C   UNL     1      -1.595  -2.558   3.609  0.00  0.00    +0.176 C 
ATOM     11  C   UNL     1      -1.863  -2.954   4.880  0.00  0.00    +0.058 C 
ATOM     12  O   UNL     1      -1.183  -3.353   2.594  0.00  0.00    -0.451 OA
ENDROOT
BRANCH  11  13
ATOM     13  C   UNL     1      -2.483  -2.017   5.825  0.00  0.00    -0.014 A 
ATOM     14  C   UNL     1      -3.494  -1.150   5.393  0.00  0.00    +0.057 A 
ATOM     15  C   UNL     1      -4.075  -0.270   6.286  0.00  0.00    +0.166 A 
ATOM     16  C   UNL     1      -3.657  -0.246   7.615  0.00  0.00    +0.204 A 
ATOM     17  C   UNL     1      -2.652  -1.107   8.049  0.00  0.00    +0.166 A 
ATOM     18  C   UNL     1      -2.069  -1.993   7.163  0.00  0.00    +0.057 A 
BRANCH  17  19
ATOM     19  O   UNL     1      -2.247  -1.079   9.347  0.00  0.00    -0.491 OA
ATOM     20  C   UNL     1      -1.212  -1.989   9.723  0.00  0.00    +0.277 C 
ENDBRANCH  17  19
BRANCH  16  21
ATOM     21  O   UNL     1      -4.231   0.621   8.490  0.00  0.00    -0.488 OA
ATOM     22  C   UNL     1      -5.382   0.160   9.200  0.00  0.00    +0.277 C 
ENDBRANCH  16  21
BRANCH  15  23
ATOM     23  O   UNL     1      -5.057   0.573   5.867  0.00  0.00    -0.491 OA
ATOM     24  C   UNL     1      -5.436   0.494   4.492  0.00  0.00    +0.277 C 
ENDBRANCH  15  23
ENDBRANCH  11  13
BRANCH   4  25
ATOM     25  O   UNL     1      -0.066  -2.518  -2.064  0.00  0.00    -0.506 OA
ATOM     26  H   UNL     1       0.892  -2.474  -2.191  0.00  0.00    +0.292 HD
ENDBRANCH   4  25
BRANCH   5  27
ATOM     27  C   UNL     1      -0.238  -4.498  -0.070  0.00  0.00    -0.036 C 
BRANCH  27  28
ATOM     28  N   UNL     1       1.222  -4.650  -0.137  0.00  0.00    +0.383 N 
ATOM     29  H   UNL     1       1.598  -3.999  -0.809  0.00  0.00    -0.081 HD
BRANCH  28  30
ATOM     30  C   UNL     1       1.803  -4.378   1.185  0.00  0.00    -0.075 C 
BRANCH  30  31
ATOM     31  C   UNL     1       1.992  -2.870   1.359  0.00  0.00    -0.034 C 
ATOM     32  C   UNL     1       2.500  -2.579   2.772  0.00  0.00    +0.005 C 
ATOM     33  C   UNL     1       3.011  -2.362   0.336  0.00  0.00    +0.005 C 
ENDBRANCH  30  31
ENDBRANCH  28  30
BRANCH  28  34
ATOM     34  C   UNL     1       1.553  -6.021  -0.545  0.00  0.00    -0.075 C 
BRANCH  34  35
ATOM     35  C   UNL     1       3.060  -6.131  -0.788  0.00  0.00    -0.034 C 
ATOM     36  C   UNL     1       3.415  -7.576  -1.146  0.00  0.00    +0.005 C 
ATOM     37  C   UNL     1       3.460  -5.207  -1.939  0.00  0.00    +0.005 C 
ENDBRANCH  34  35
ENDBRANCH  28  34
ENDBRANCH  27  28
ENDBRANCH   5  27
TORSDOF 11
