REMARK  Name = ZINC13500138
REMARK  10 active torsions:
REMARK  status: ('A' for Active; 'I' for Inactive)
REMARK    1  A    between atoms: C_1  and  C_2
REMARK    2  A    between atoms: C_2  and  C_3
REMARK    3  A    between atoms: C_3  and  C_4
REMARK    4  A    between atoms: C_4  and  C_6
REMARK    5  A    between atoms: C_4  and  N_72
REMARK    6  A    between atoms: N_10  and  C_11
REMARK    7  A    between atoms: C_17  and  C_18
REMARK    8  A    between atoms: C_17  and  N_72
REMARK    9  A    between atoms: C_22  and  C_30
REMARK   10  A    between atoms: C_31  and  N_72
REMARK                            x       y       z     vdW  Elec       q    Type
REMARK                         _______ _______ _______ _____ _____    ______ ____
ROOT
ATOM      1  N   UNL     1      -2.846   0.759  -0.976  0.00  0.00    +0.391 N 
ATOM      2  H   UNL     1      -2.722   1.635  -1.498  0.00  0.00    -0.080 HD
ENDROOT
BRANCH   1   3
ATOM      3  C   UNL     1      -1.700  -0.132  -1.256  0.00  0.00    -0.067 C 
ATOM      4  C   UNL     1      -1.921  -1.529  -0.640  0.00  0.00    -0.015 C 
ATOM      5  C   UNL     1      -0.513  -1.956  -0.153  0.00  0.00    -0.002 C 
ATOM      6  C   UNL     1       0.081  -0.629   0.383  0.00  0.00    -0.002 C 
ATOM      7  C   UNL     1      -0.428   0.440  -0.606  0.00  0.00    -0.015 C 
ENDBRANCH   1   3
BRANCH   1   8
ATOM      8  C   UNL     1      -4.104   0.115  -1.409  0.00  0.00    +0.003 C 
BRANCH   8   9
ATOM      9  C   UNL     1      -3.852  -0.679  -2.664  0.00  0.00    +0.138 A 
ATOM     10  N   UNL     1      -3.129  -0.310  -3.693  0.00  0.00    -0.115 NA
ATOM     11  N   UNL     1      -3.156  -1.261  -4.561  0.00  0.00    -0.023 NA
ATOM     12  N   UNL     1      -3.884  -2.225  -4.116  0.00  0.00    -0.044 NA
ATOM     13  N   UNL     1      -4.332  -1.904  -2.950  0.00  0.00    -0.228 N 
BRANCH  13  14
ATOM     14  C   UNL     1      -5.198  -2.720  -2.095  0.00  0.00    +0.111 C 
ATOM     15  C   UNL     1      -4.497  -4.041  -1.771  0.00  0.00    +0.027 C 
ATOM     16  C   UNL     1      -5.402  -4.893  -0.879  0.00  0.00    +0.002 C 
ATOM     17  C   UNL     1      -6.715  -5.179  -1.610  0.00  0.00    +0.000 C 
ATOM     18  C   UNL     1      -7.417  -3.859  -1.935  0.00  0.00    +0.002 C 
ATOM     19  C   UNL     1      -6.511  -3.006  -2.827  0.00  0.00    +0.027 C 
ENDBRANCH  13  14
ENDBRANCH   8   9
BRANCH   8  20
ATOM     20  C   UNL     1      -5.138   1.207  -1.695  0.00  0.00    -0.008 C 
BRANCH  20  22
ATOM     21  C   UNL     1      -6.206   3.283  -0.805  0.00  0.00    +0.004 C 
ATOM     22  C   UNL     1      -5.104   2.247  -0.573  0.00  0.00    -0.005 C 
ENDBRANCH  20  22
ENDBRANCH   8  20
ENDBRANCH   1   8
BRANCH   1  23
ATOM     23  C   UNL     1      -2.906   1.066   0.469  0.00  0.00    -0.036 C 
BRANCH  23  24
ATOM     24  C   UNL     1      -3.287  -0.163   1.254  0.00  0.00    +0.001 A 
ATOM     25  C   UNL     1      -2.351  -0.812   1.990  0.00  0.00    +0.017 A 
ATOM     26  C   UNL     1      -2.752  -2.005   2.737  0.00  0.00    -0.001 A 
ATOM     27  C   UNL     1      -1.830  -2.718   3.511  0.00  0.00    +0.013 A 
ATOM     28  C   UNL     1      -2.237  -3.826   4.198  0.00  0.00    -0.050 A 
ATOM     29  C   UNL     1      -3.557  -4.252   4.134  0.00  0.00    +0.005 A 
ATOM     30  C   UNL     1      -4.482  -3.566   3.378  0.00  0.00    +0.026 A 
ATOM     31  C   UNL     1      -4.091  -2.433   2.671  0.00  0.00    +0.049 A 
ATOM     32  N   UNL     1      -4.996  -1.726   1.908  0.00  0.00    -0.322 N 
ATOM     33  H   UNL     1      -5.918  -2.023   1.863  0.00  0.00    +0.169 HD
ATOM     34  C   UNL     1      -4.618  -0.631   1.225  0.00  0.00    +0.251 A 
ATOM     35  O   UNL     1      -5.445  -0.031   0.560  0.00  0.00    -0.268 OA
ATOM     36  C   UNL     1      -1.243  -4.594   5.031  0.00  0.00    +0.044 C 
ENDBRANCH  23  24
ENDBRANCH   1  23
TORSDOF 8
