REMARK  Name = ZINC39851329
REMARK  11 active torsions:
REMARK  status: ('A' for Active; 'I' for Inactive)
REMARK    1  A    between atoms: C_1  and  C_2
REMARK    2  A    between atoms: C_2  and  N_3
REMARK    3  A    between atoms: C_4  and  N_28
REMARK    4  A    between atoms: C_5  and  C_13
REMARK    5  A    between atoms: C_6  and  C_12
REMARK    6  A    between atoms: C_7  and  C_10
REMARK    7  A    between atoms: N_17  and  C_21
REMARK    8  A    between atoms: C_21  and  C_22
REMARK    9  A    between atoms: N_28  and  C_29
REMARK   10  A    between atoms: C_29  and  C_30
REMARK   11  A    between atoms: C_30  and  C_31
REMARK                            x       y       z     vdW  Elec       q    Type
REMARK                         _______ _______ _______ _____ _____    ______ ____
ROOT
ATOM      1  N   UNL     1      -1.269  -0.608   0.062  0.00  0.00    -0.296 N 
ATOM      2  C   UNL     1      -1.948  -0.700   1.235  0.00  0.00    +0.109 A 
ATOM      3  C   UNL     1      -3.122  -1.467   1.321  0.00  0.00    +0.019 A 
ATOM      4  C   UNL     1      -3.591  -2.142   0.181  0.00  0.00    -0.017 A 
ATOM      5  C   UNL     1      -2.877  -2.032  -1.008  0.00  0.00    +0.120 A 
ATOM      6  C   UNL     1      -1.700  -1.240  -1.044  0.00  0.00    +0.270 A 
ATOM      7  O   UNL     1      -1.073  -1.136  -2.083  0.00  0.00    -0.266 OA
ATOM      8  C   UNL     1      -4.847  -2.972   0.246  0.00  0.00    +0.046 C 
ENDROOT
BRANCH   3   9
ATOM      9  C   UNL     1      -3.850  -1.562   2.588  0.00  0.00    +0.032 C 
ATOM     10  C   UNL     1      -5.093  -1.020   2.701  0.00  0.00    +0.077 C 
ATOM     11  C   UNL     1      -5.875  -0.330   1.726  0.00  0.00    +0.259 C 
ATOM     12  O   UNL     1      -5.454  -0.149   0.597  0.00  0.00    -0.269 OA
ATOM     13  N   UNL     1      -7.070   0.106   2.084  0.00  0.00    -0.251 N 
ATOM     14  C   UNL     1      -7.537  -0.095   3.337  0.00  0.00    +0.121 C 
ATOM     15  S   UNL     1      -9.037   0.379   4.011  0.00  0.00    -0.027 S 
ATOM     16  S   UNL     1      -6.195  -0.986   4.108  0.00  0.00    -0.061 S 
BRANCH  13  17
ATOM     17  C   UNL     1      -7.900   0.819   1.111  0.00  0.00    +0.150 C 
BRANCH  17  18
ATOM     18  C   UNL     1      -8.759  -0.169   0.364  0.00  0.00    -0.030 A 
ATOM     19  C   UNL     1      -8.291  -0.751  -0.799  0.00  0.00    +0.005 A 
ATOM     20  C   UNL     1      -9.079  -1.657  -1.484  0.00  0.00    +0.000 A 
ATOM     21  C   UNL     1     -10.334  -1.982  -1.005  0.00  0.00    +0.000 A 
ATOM     22  C   UNL     1     -10.802  -1.401   0.159  0.00  0.00    +0.000 A 
ATOM     23  C   UNL     1     -10.012  -0.497   0.846  0.00  0.00    +0.005 A 
ENDBRANCH  17  18
ENDBRANCH  13  17
ENDBRANCH   3   9
BRANCH   1  25
ATOM     24  C   UNL     1      -0.414   1.661  -0.261  0.00  0.00    +0.027 C 
ATOM     25  C   UNL     1      -0.047   0.198   0.000  0.00  0.00    +0.123 C 
ENDBRANCH   1  25
BRANCH   5  26
ATOM     26  C   UNL     1      -3.328  -2.708  -2.187  0.00  0.00    +0.105 C 
ATOM     27  N   UNL     1      -3.687  -3.244  -3.122  0.00  0.00    -0.191 NA
ENDBRANCH   5  26
BRANCH   2  28
ATOM     28  N   UNL     1      -1.487  -0.042   2.337  0.00  0.00    -0.330 N 
ATOM     29  H   UNL     1      -1.708   0.893   2.471  0.00  0.00    +0.147 HD
BRANCH  28  30
ATOM     30  C   UNL     1      -0.660  -0.748   3.319  0.00  0.00    +0.107 C 
BRANCH  30  31
ATOM     31  C   UNL     1      -0.383   0.173   4.509  0.00  0.00    +0.054 C 
BRANCH  31  32
ATOM     32  C   UNL     1       0.469  -0.553   5.518  0.00  0.00    -0.046 A 
ATOM     33  C   UNL     1      -0.128  -1.294   6.520  0.00  0.00    +0.004 A 
ATOM     34  C   UNL     1       0.653  -1.960   7.446  0.00  0.00    +0.000 A 
ATOM     35  C   UNL     1       2.031  -1.885   7.370  0.00  0.00    +0.000 A 
ATOM     36  C   UNL     1       2.628  -1.144   6.367  0.00  0.00    +0.000 A 
ATOM     37  C   UNL     1       1.847  -0.481   5.439  0.00  0.00    +0.004 A 
ENDBRANCH  31  32
ENDBRANCH  30  31
ENDBRANCH  28  30
ENDBRANCH   2  28
TORSDOF 9
