REMARK  Name = ZINC49021636
REMARK  5 active torsions:
REMARK  status: ('A' for Active; 'I' for Inactive)
REMARK    1  A    between atoms: C_1  and  C_2
REMARK    2  A    between atoms: C_10  and  C_11
REMARK    3  A    between atoms: C_11  and  C_13
REMARK    4  A    between atoms: C_11  and  N_14
REMARK    5  A    between atoms: C_17  and  C_22
REMARK                            x       y       z     vdW  Elec       q    Type
REMARK                         _______ _______ _______ _____ _____    ______ ____
ROOT
ATOM      1  C   UNL     1       0.030  -0.352   2.503  0.00  0.00    +0.146 C 
ATOM      2  C   UNL     1      -1.354  -0.570   3.116  0.00  0.00    +0.037 C 
ENDROOT
BRANCH   1  12
ATOM      3  C   UNL     1      -0.018   1.503   0.010  0.00  0.00    +0.048 C 
ATOM      4  C   UNL     1       0.002  -0.004   0.002  0.00  0.00    +0.000 A 
ATOM      5  C   UNL     1       0.009  -0.879  -1.177  0.00  0.00    +0.023 A 
ATOM      6  C   UNL     1       0.000  -0.660  -2.553  0.00  0.00    +0.012 A 
ATOM      7  C   UNL     1       0.011  -1.726  -3.409  0.00  0.00    +0.001 A 
ATOM      8  C   UNL     1       0.031  -3.023  -2.916  0.00  0.00    +0.004 A 
ATOM      9  C   UNL     1       0.040  -3.259  -1.558  0.00  0.00    +0.047 A 
ATOM     10  C   UNL     1       0.029  -2.190  -0.671  0.00  0.00    +0.136 A 
ATOM     11  O   UNL     1       0.033  -2.100   0.674  0.00  0.00    -0.458 OA
ATOM     12  C   UNL     1       0.023  -0.814   1.069  0.00  0.00    +0.130 A 
ENDBRANCH   1  12
BRANCH   1  13
ATOM     13  N   UNL     1       1.025  -1.119   3.258  0.00  0.00    -0.242 N 
ATOM     14  C   UNL     1       2.077  -0.571   3.898  0.00  0.00    +0.242 C 
ATOM     15  O   UNL     1       2.368   0.605   3.956  0.00  0.00    -0.273 OA
ATOM     16  C   UNL     1       2.820  -1.730   4.532  0.00  0.00    +0.155 C 
ATOM     17  N   UNL     1       2.026  -2.907   4.139  0.00  0.00    -0.315 N 
ATOM     18  C   UNL     1       0.998  -2.449   3.402  0.00  0.00    +0.140 C 
ATOM     19  S   UNL     1      -0.208  -3.455   2.722  0.00  0.00    -0.018 S 
ATOM     20  C   UNL     1       2.851  -1.581   6.055  0.00  0.00    +0.038 C 
ATOM     21  H   UNL     1       2.208  -3.831   4.369  0.00  0.00    +0.148 HD
ENDBRANCH   1  13
TORSDOF 2
