REMARK  Name = ZINC59816516
REMARK  9 active torsions:
REMARK  status: ('A' for Active; 'I' for Inactive)
REMARK    1  A    between atoms: C_1  and  O_2
REMARK    2  A    between atoms: O_2  and  C_3
REMARK    3  A    between atoms: C_6  and  O_9
REMARK    4  A    between atoms: O_9  and  C_10
REMARK    5  A    between atoms: C_10  and  C_12
REMARK    6  A    between atoms: C_12  and  S_13
REMARK    7  A    between atoms: S_13  and  C_14
REMARK    8  A    between atoms: N_19  and  N_20
REMARK    9  A    between atoms: C_21  and  C_22
REMARK                            x       y       z     vdW  Elec       q    Type
REMARK                         _______ _______ _______ _____ _____    ______ ____
ROOT
ATOM      1  C   UNL     1       4.271  -6.939  -6.345  0.00  0.00    +0.211 A 
ATOM      2  N   UNL     1       4.504  -8.239  -6.553  0.00  0.00    -0.186 NA
ATOM      3  C   UNL     1       5.200  -8.394  -7.659  0.00  0.00    +0.232 A 
ATOM      4  N   UNL     1       5.426  -7.170  -8.184  0.00  0.00    -0.245 N 
ATOM      5  N   UNL     1       4.812  -6.248  -7.321  0.00  0.00    -0.144 NA
ATOM      6  N   UNL     1       5.625  -9.597  -8.191  0.00  0.00    -0.205 N 
ATOM      7  H   UNL     1       6.136  -9.609  -9.015  0.00  0.00    +0.177 HD
ATOM      8  H   UNL     1       5.913  -6.968  -8.998  0.00  0.00    +0.192 HD
ENDROOT
BRANCH   6   9
ATOM      9  N   UNL     1       5.318 -10.798  -7.539  0.00  0.00    -0.188 NA
ATOM     10  C   UNL     1       5.719 -11.932  -8.040  0.00  0.00    +0.139 C 
BRANCH  10  11
ATOM     11  C   UNL     1       5.397 -13.188  -7.358  0.00  0.00    +0.010 A 
ATOM     12  C   UNL     1       5.934 -14.408  -7.820  0.00  0.00    -0.009 A 
ATOM     13  C   UNL     1       6.786 -14.450  -8.937  0.00  0.00    +0.009 A 
ATOM     14  C   UNL     1       7.287 -15.642  -9.356  0.00  0.00    +0.001 A 
ATOM     15  C   UNL     1       6.979 -16.835  -8.704  0.00  0.00    +0.001 A 
ATOM     16  C   UNL     1       6.162 -16.863  -7.619  0.00  0.00    +0.008 A 
ATOM     17  C   UNL     1       5.609 -15.659  -7.133  0.00  0.00    -0.017 A 
ATOM     18  C   UNL     1       4.768 -15.654  -6.020  0.00  0.00    +0.017 A 
ATOM     19  C   UNL     1       4.232 -14.452  -5.556  0.00  0.00    -0.017 A 
ATOM     20  C   UNL     1       4.552 -13.192  -6.229  0.00  0.00    -0.009 A 
ATOM     21  C   UNL     1       3.999 -11.998  -5.733  0.00  0.00    +0.009 A 
ATOM     22  C   UNL     1       3.188 -12.036  -4.642  0.00  0.00    +0.001 A 
ATOM     23  C   UNL     1       2.886 -13.234  -3.997  0.00  0.00    +0.001 A 
ATOM     24  C   UNL     1       3.378 -14.422  -4.433  0.00  0.00    +0.008 A 
ENDBRANCH  10  11
ENDBRANCH   6   9
BRANCH   1  25
ATOM     25  S   UNL     1       3.377  -6.263  -4.986  0.00  0.00    -0.073 S 
BRANCH  25  26
ATOM     26  C   UNL     1       3.408  -4.474  -5.285  0.00  0.00    +0.198 C 
BRANCH  26  27
ATOM     27  C   UNL     1       2.667  -3.767  -4.180  0.00  0.00    +0.323 C 
ATOM     28  O   UNL     1       2.169  -4.404  -3.282  0.00  0.00    -0.249 OA
BRANCH  27  29
ATOM     29  O   UNL     1       2.561  -2.429  -4.193  0.00  0.00    -0.425 OA
BRANCH  29  33
ATOM     30  C   UNL     1       0.789  -0.594  -0.947  0.00  0.00    +0.120 A 
ATOM     31  C   UNL     1       1.994  -1.263  -0.793  0.00  0.00    +0.049 A 
ATOM     32  C   UNL     1       2.587  -1.877  -1.879  0.00  0.00    +0.050 A 
ATOM     33  C   UNL     1       1.977  -1.825  -3.124  0.00  0.00    +0.132 A 
ATOM     34  C   UNL     1       0.772  -1.156  -3.278  0.00  0.00    +0.050 A 
ATOM     35  C   UNL     1       0.176  -0.547  -2.191  0.00  0.00    +0.049 A 
BRANCH  30  37
ATOM     36  C   UNL     1       0.891  -0.079   1.372  0.00  0.00    +0.277 C 
ATOM     37  O   UNL     1       0.205   0.009   0.122  0.00  0.00    -0.495 OA
ENDBRANCH  30  37
ENDBRANCH  29  33
ENDBRANCH  27  29
ENDBRANCH  26  27
ENDBRANCH  25  26
ENDBRANCH   1  25
TORSDOF 8
