REMARK  Name = ZINC63270498
REMARK  10 active torsions:
REMARK  status: ('A' for Active; 'I' for Inactive)
REMARK    1  A    between atoms: C_1  and  C_2
REMARK    2  A    between atoms: C_7  and  O_16
REMARK    3  A    between atoms: C_13  and  C_15
REMARK    4  A    between atoms: O_16  and  C_17
REMARK    5  A    between atoms: C_17  and  C_18
REMARK    6  A    between atoms: N_20  and  C_21
REMARK    7  A    between atoms: C_21  and  C_22
REMARK    8  A    between atoms: N_24  and  C_25
REMARK    9  A    between atoms: C_25  and  C_26
REMARK   10  A    between atoms: C_26  and  C_27
REMARK                            x       y       z     vdW  Elec       q    Type
REMARK                         _______ _______ _______ _____ _____    ______ ____
ROOT
ATOM      1  C   UNL     1       2.554  -2.259  -7.073  0.00  0.00    +0.251 C 
ATOM      2  O   UNL     1       3.710  -2.584  -6.900  0.00  0.00    -0.272 OA
ATOM      3  N   UNL     1       2.008  -2.340  -8.302  0.00  0.00    -0.304 N 
ATOM      4  H   UNL     1       1.084  -2.080  -8.441  0.00  0.00    +0.149 HD
ENDROOT
BRANCH   1   5
ATOM      5  C   UNL     1       1.728  -1.766  -5.912  0.00  0.00    +0.324 C 
BRANCH   5   6
ATOM      6  O   UNL     1       2.524  -1.772  -4.725  0.00  0.00    -0.483 OA
BRANCH   6  12
ATOM      7  C   UNL     1      -0.019   1.526   0.010  0.00  0.00    +0.013 C 
ATOM      8  C   UNL     1       0.002  -0.004   0.002  0.00  0.00    +0.033 C 
ATOM      9  C   UNL     1       0.705  -0.489  -1.241  0.00  0.00    -0.001 A 
ATOM     10  C   UNL     1      -0.004  -0.514  -2.432  0.00  0.00    +0.011 A 
ATOM     11  C   UNL     1       0.599  -0.943  -3.596  0.00  0.00    +0.046 A 
ATOM     12  C   UNL     1       1.925  -1.353  -3.580  0.00  0.00    +0.125 A 
ATOM     13  C   UNL     1       2.636  -1.332  -2.392  0.00  0.00    +0.092 A 
ATOM     14  C   UNL     1       2.025  -0.903  -1.219  0.00  0.00    +0.139 A 
ATOM     15  O   UNL     1       2.754  -0.916  -0.069  0.00  0.00    -0.425 OA
ATOM     16  C   UNL     1       2.223  -0.312   1.012  0.00  0.00    +0.316 C 
ATOM     17  O   UNL     1       2.898   0.355   1.760  0.00  0.00    -0.250 OA
ATOM     18  C   UNL     1       0.740  -0.510   1.245  0.00  0.00    +0.102 C 
ATOM     19  C   UNL     1       0.441  -1.995   1.458  0.00  0.00    +0.020 C 
ENDBRANCH   6  12
ENDBRANCH   5   6
ENDBRANCH   1   5
BRANCH   3  20
ATOM     20  C   UNL     1       2.811  -2.819  -9.430  0.00  0.00    +0.200 C 
BRANCH  20  21
ATOM     21  C   UNL     1       1.972  -2.813 -10.682  0.00  0.00    +0.230 C 
ATOM     22  O   UNL     1       0.818  -2.444 -10.637  0.00  0.00    -0.274 OA
ATOM     23  N   UNL     1       2.505  -3.217 -11.852  0.00  0.00    -0.314 N 
ATOM     24  H   UNL     1       3.429  -3.512 -11.889  0.00  0.00    +0.149 HD
BRANCH  23  25
ATOM     25  C   UNL     1       1.690  -3.211 -13.069  0.00  0.00    +0.108 C 
BRANCH  25  26
ATOM     26  C   UNL     1       2.528  -3.712 -14.247  0.00  0.00    +0.052 C 
BRANCH  26  27
ATOM     27  C   UNL     1       1.690  -3.705 -15.499  0.00  0.00    -0.040 C 
ATOM     28  C   UNL     1       1.629  -2.728 -16.433  0.00  0.00    -0.001 A 
ATOM     29  C   UNL     1       2.299  -1.428 -16.556  0.00  0.00    +0.010 A 
ATOM     30  C   UNL     1       2.028  -0.649 -17.628  0.00  0.00    +0.001 A 
ATOM     31  C   UNL     1       1.125  -1.052 -18.622  0.00  0.00    +0.002 A 
ATOM     32  C   UNL     1       0.472  -2.232 -18.579  0.00  0.00    +0.026 A 
ATOM     33  C   UNL     1       0.681  -3.131 -17.496  0.00  0.00    +0.043 A 
ATOM     34  N   UNL     1       0.175  -4.311 -17.231  0.00  0.00    -0.380 N 
ATOM     35  C   UNL     1       0.751  -4.794 -15.970  0.00  0.00    +0.144 C 
ATOM     36  H   UNL     1      -0.469  -4.787 -17.778  0.00  0.00    +0.160 HD
ENDBRANCH  26  27
ENDBRANCH  25  26
ENDBRANCH  23  25
ENDBRANCH  20  21
ENDBRANCH   3  20
TORSDOF 8
