REMARK  Name = ZINC33040006
REMARK  4 active torsions:
REMARK  status: ('A' for Active; 'I' for Inactive)
REMARK    1  A    between atoms: C_1  and  C_2
REMARK    2  A    between atoms: C_9  and  C_11
REMARK    3  A    between atoms: C_11  and  C_12
REMARK    4  A    between atoms: C_15  and  N_18
REMARK                            x       y       z     vdW  Elec       q    Type
REMARK                         _______ _______ _______ _____ _____    ______ ____
ROOT
ATOM      1  C   UNL     1      -2.866  -5.616   3.023  0.00  0.00    -0.039 A 
ATOM      2  C   UNL     1      -2.300  -4.767   3.956  0.00  0.00    +0.006 A 
ATOM      3  C   UNL     1      -2.152  -3.424   3.669  0.00  0.00    +0.023 A 
ATOM      4  C   UNL     1      -2.572  -2.927   2.443  0.00  0.00    +0.035 A 
ATOM      5  C   UNL     1      -3.145  -3.781   1.510  0.00  0.00    +0.023 A 
ATOM      6  C   UNL     1      -3.285  -5.124   1.800  0.00  0.00    +0.006 A 
ENDROOT
BRANCH   4   7
ATOM      7  N   UNL     1      -2.424  -1.566   2.149  0.00  0.00    -0.269 N 
ATOM      8  C   UNL     1      -1.353  -0.891   2.609  0.00  0.00    +0.311 C 
ATOM      9  O   UNL     1      -0.559  -1.440   3.348  0.00  0.00    -0.252 OA
ATOM     10  N   UNL     1      -1.161   0.394   2.250  0.00  0.00    -0.255 N 
ATOM     11  C   UNL     1       0.002   1.153   2.739  0.00  0.00    +0.115 C 
ATOM     12  C   UNL     1      -0.379   1.975   3.948  0.00  0.00    +0.020 C 
ATOM     13  C   UNL     1      -1.414   3.052   3.653  0.00  0.00    +0.006 C 
ATOM     14  C   UNL     1      -2.779   2.439   3.357  0.00  0.00    +0.037 C 
ATOM     15  C   UNL     1      -2.855   2.075   1.884  0.00  0.00    -0.026 A 
ATOM     16  C   UNL     1      -2.061   1.047   1.402  0.00  0.00    +0.041 A 
ATOM     17  C   UNL     1      -2.156   0.675   0.067  0.00  0.00    +0.024 A 
ATOM     18  C   UNL     1      -3.026   1.351  -0.772  0.00  0.00    +0.002 A 
ATOM     19  C   UNL     1      -3.793   2.395  -0.289  0.00  0.00    +0.000 A 
ATOM     20  C   UNL     1      -3.708   2.757   1.045  0.00  0.00    +0.005 A 
ATOM     21  H   UNL     1      -3.182  -1.048   1.544  0.00  0.00    +0.156 HD
ENDBRANCH   4   7
BRANCH   1  22
ATOM     22  C   UNL     1      -3.026  -7.081   3.338  0.00  0.00    +0.131 C 
BRANCH  22  30
ATOM     23  C   UNL     1      -6.933  -7.554   4.747  0.00  0.00    +0.028 C 
ATOM     24  C   UNL     1      -6.078  -8.816   4.880  0.00  0.00    +0.073 C 
ATOM     25  C   UNL     1      -6.708  -9.951   4.065  0.00  0.00    +0.022 C 
ATOM     26  C   UNL     1      -5.779 -11.167   4.088  0.00  0.00    +0.003 C 
ATOM     27  C   UNL     1      -4.439 -10.799   3.448  0.00  0.00    +0.019 C 
ATOM     28  C   UNL     1      -3.785  -9.675   4.250  0.00  0.00    +0.108 C 
ATOM     29  N   UNL     1      -4.729  -8.555   4.361  0.00  0.00    -0.298 N 
ATOM     30  C   UNL     1      -4.365  -7.311   3.989  0.00  0.00    +0.220 C 
ATOM     31  O   UNL     1      -5.117  -6.378   4.178  0.00  0.00    -0.275 OA
ENDBRANCH  22  30
ENDBRANCH   1  22
TORSDOF 3
