REMARK  Name = ZINC22729375
REMARK  7 active torsions:
REMARK  status: ('A' for Active; 'I' for Inactive)
REMARK    1  A    between atoms: C_1  and  C_2
REMARK    2  A    between atoms: C_2  and  C_4
REMARK    3  A    between atoms: C_2  and  N_14
REMARK    4  A    between atoms: C_7  and  S_10
REMARK    5  A    between atoms: S_10  and  N_13
REMARK    6  A    between atoms: C_15  and  C_16
REMARK    7  A    between atoms: C_20  and  N_23
REMARK                            x       y       z     vdW  Elec       q    Type
REMARK                         _______ _______ _______ _____ _____    ______ ____
ROOT
ATOM      1  C   UNL     1      -2.259   2.891   6.150  0.00  0.00    +0.035 C 
ATOM      2  C   UNL     1      -3.131   3.072   4.906  0.00  0.00    +0.106 C 
ENDROOT
BRANCH   2   3
ATOM      3  C   UNL     1      -2.353   2.659   3.683  0.00  0.00    -0.025 A 
ATOM      4  C   UNL     1      -2.559   1.412   3.122  0.00  0.00    +0.007 A 
ATOM      5  C   UNL     1      -1.846   1.033   2.000  0.00  0.00    +0.029 A 
ATOM      6  C   UNL     1      -0.927   1.900   1.439  0.00  0.00    +0.105 A 
ATOM      7  C   UNL     1      -0.717   3.145   2.004  0.00  0.00    +0.029 A 
ATOM      8  C   UNL     1      -1.435   3.526   3.122  0.00  0.00    +0.007 A 
BRANCH   6   9
ATOM      9  S   UNL     1      -0.017   1.417   0.010  0.00  0.00    +0.056 S 
ATOM     10  O   UNL     1       0.002  -0.004   0.002  0.00  0.00    -0.153 OA
ATOM     11  O   UNL     1       1.172   2.195   0.003  0.00  0.00    -0.153 OA
BRANCH   9  12
ATOM     12  N   UNL     1      -0.897   1.885  -1.312  0.00  0.00    -0.204 NA
ATOM     13  H   UNL     1      -0.361   1.601  -2.229  0.00  0.00    +0.144 HD
ATOM     14  H   UNL     1      -1.036   2.977  -1.292  0.00  0.00    +0.144 HD
ENDBRANCH   9  12
ENDBRANCH   6   9
ENDBRANCH   2   3
BRANCH   2  15
ATOM     15  N   UNL     1      -3.522   4.478   4.784  0.00  0.00    -0.383 N 
ATOM     16  C   UNL     1      -4.774   4.805   4.794  0.00  0.00    +0.090 C 
ATOM     17  H   UNL     1      -2.751   5.257   4.684  0.00  0.00    +0.160 HD
BRANCH  16  18
ATOM     18  C   UNL     1      -5.167   6.220   4.671  0.00  0.00    +0.041 A 
ATOM     19  C   UNL     1      -6.518   6.578   4.682  0.00  0.00    +0.033 A 
ATOM     20  C   UNL     1      -6.879   7.904   4.567  0.00  0.00    +0.044 A 
ATOM     21  C   UNL     1      -5.907   8.884   4.440  0.00  0.00    +0.056 A 
ATOM     22  C   UNL     1      -4.569   8.543   4.429  0.00  0.00    +0.175 A 
ATOM     23  C   UNL     1      -4.188   7.216   4.549  0.00  0.00    +0.217 A 
ATOM     24  O   UNL     1      -2.873   6.881   4.543  0.00  0.00    -0.285 OA
ATOM     25 CL   UNL     1      -8.557   8.347   4.580  0.00  0.00    -0.083 Cl
BRANCH  22  26
ATOM     26  N   UNL     1      -3.539   9.598   4.294  0.00  0.00    +0.060 N 
ATOM     27  O   UNL     1      -3.872  10.765   4.193  0.00  0.00    -0.126 OA
ATOM     28  O   UNL     1      -2.358   9.299   4.283  0.00  0.00    -0.126 OA
ENDBRANCH  22  26
ENDBRANCH  16  18
ENDBRANCH   2  15
TORSDOF 6
