REMARK  Name = ZINC03485965
REMARK  5 active torsions:
REMARK  status: ('A' for Active; 'I' for Inactive)
REMARK    1  A    between atoms: C_1  and  C_2
REMARK    2  A    between atoms: C_5  and  C_26
REMARK    3  A    between atoms: C_10  and  C_12
REMARK    4  A    between atoms: C_12  and  S_13
REMARK    5  A    between atoms: S_13  and  C_14
REMARK                            x       y       z     vdW  Elec       q    Type
REMARK                         _______ _______ _______ _____ _____    ______ ____
ROOT
ATOM      1  S   UNL     1       0.002  -0.004   0.002  0.00  0.00    -0.096 S 
ENDROOT
BRANCH   1   2
ATOM      2  C   UNL     1      -0.022   1.758   0.012  0.00  0.00    +0.109 A 
ATOM      3  C   UNL     1       1.194   2.497   0.004  0.00  0.00    +0.043 A 
ATOM      4  C   UNL     1       2.574   1.986  -0.012  0.00  0.00    -0.025 A 
ATOM      5  C   UNL     1       3.559   2.899  -0.015  0.00  0.00    -0.004 A 
ATOM      6  S   UNL     1       2.731   4.473   0.001  0.00  0.00    -0.073 S 
ATOM      7  C   UNL     1       1.055   3.896   0.013  0.00  0.00    +0.113 A 
ATOM      8  N   UNL     1      -0.133   4.471   0.027  0.00  0.00    -0.228 NA
ATOM      9  C   UNL     1      -1.227   3.735   0.034  0.00  0.00    +0.223 A 
ATOM     10  N   UNL     1      -1.172   2.415   0.021  0.00  0.00    -0.229 NA
ATOM     11  C   UNL     1       4.923   2.264  -0.028  0.00  0.00    +0.043 C 
ATOM     12  C   UNL     1       4.674   0.801   0.402  0.00  0.00    +0.010 C 
ATOM     13  C   UNL     1       3.210   0.593  -0.032  0.00  0.00    +0.037 C 
ENDBRANCH   1   2
BRANCH   1  14
ATOM     14  C   UNL     1      -1.776  -0.343   0.017  0.00  0.00    +0.171 C 
BRANCH  14  22
ATOM     15  C   UNL     1      -4.637  -1.512  -2.452  0.00  0.00    +0.009 C 
ATOM     16  C   UNL     1      -5.346  -1.784  -1.123  0.00  0.00    +0.004 C 
ATOM     17  C   UNL     1      -5.709  -3.268  -1.031  0.00  0.00    +0.009 C 
ATOM     18  C   UNL     1      -4.438  -4.113  -1.145  0.00  0.00    +0.004 C 
ATOM     19  C   UNL     1      -3.497  -3.772   0.015  0.00  0.00    +0.111 C 
ATOM     20  N   UNL     1      -3.259  -2.322   0.021  0.00  0.00    -0.300 N 
ATOM     21  C   UNL     1      -4.416  -1.416   0.043  0.00  0.00    +0.111 C 
ATOM     22  C   UNL     1      -2.004  -1.832   0.011  0.00  0.00    +0.226 C 
ATOM     23  O   UNL     1      -1.057  -2.590  -0.002  0.00  0.00    -0.275 OA
ATOM     24  C   UNL     1      -4.805  -5.597  -1.086  0.00  0.00    +0.009 C 
ENDBRANCH  14  22
ENDBRANCH   1  14
TORSDOF 3
