REMARK  Name = ZINC19892682
REMARK  15 active torsions:
REMARK  status: ('A' for Active; 'I' for Inactive)
REMARK    1  A    between atoms: C_1  and  C_2
REMARK    2  A    between atoms: C_2  and  C_3
REMARK    3  A    between atoms: C_3  and  C_4
REMARK    4  A    between atoms: C_4  and  O_5
REMARK    5  A    between atoms: O_5  and  C_6
REMARK    6  A    between atoms: C_6  and  C_8
REMARK    7  A    between atoms: C_9  and  C_39
REMARK    8  A    between atoms: C_13  and  C_15
REMARK    9  A    between atoms: C_18  and  S_21
REMARK   10  A    between atoms: S_21  and  C_22
REMARK   11  A    between atoms: C_26  and  C_29
REMARK   12  A    between atoms: C_32  and  O_37
REMARK   13  A    between atoms: C_33  and  O_35
REMARK   14  A    between atoms: O_35  and  C_36
REMARK   15  A    between atoms: O_37  and  C_38
REMARK                            x       y       z     vdW  Elec       q    Type
REMARK                         _______ _______ _______ _____ _____    ______ ____
ROOT
ATOM      1  C   UNL     1      -0.655  -0.513   1.252  0.00  0.00    +0.065 C 
ATOM      2  C   UNL     1      -1.909  -0.997   1.232  0.00  0.00    +0.016 C 
ATOM      3  N   UNL     1      -2.616  -1.042   0.064  0.00  0.00    -0.321 N 
ATOM      4  C   UNL     1      -1.973  -0.984  -1.144  0.00  0.00    +0.016 C 
ATOM      5  C   UNL     1      -0.715  -0.502  -1.228  0.00  0.00    +0.024 C 
ATOM      6  C   UNL     1       0.002  -0.004   0.002  0.00  0.00    +0.092 C 
ATOM      7  C   UNL     1      -0.038  -0.452  -2.458  0.00  0.00    +0.162 C 
ATOM      8  O   UNL     1       1.091  -0.003  -2.500  0.00  0.00    -0.292 OA
ATOM      9  C   UNL     1      -0.684  -0.944  -3.724  0.00  0.00    +0.088 C 
ATOM     10  C   UNL     1      -1.695  -2.041  -3.374  0.00  0.00    +0.032 C 
ATOM     11  C   UNL     1      -2.702  -1.472  -2.372  0.00  0.00    +0.059 C 
ATOM     12  C   UNL     1      -2.539  -1.493   2.508  0.00  0.00    +0.061 C 
ATOM     13  H   UNL     1      -3.713  -1.127   0.087  0.00  0.00    +0.152 HD
ENDROOT
BRANCH   6  14
ATOM     14  C   UNL     1      -0.018   1.503   0.010  0.00  0.00    -0.035 A 
ATOM     15  C   UNL     1      -1.226   2.176   0.020  0.00  0.00    +0.005 A 
ATOM     16  C   UNL     1      -1.249   3.557   0.032  0.00  0.00    +0.015 A 
ATOM     17  C   UNL     1      -0.056   4.270   0.025  0.00  0.00    +0.008 A 
ATOM     18  C   UNL     1       1.156   3.590   0.010  0.00  0.00    +0.015 A 
ATOM     19  C   UNL     1       1.171   2.209   0.003  0.00  0.00    +0.005 A 
BRANCH  17  20
ATOM     20  S   UNL     1      -0.080   6.032   0.033  0.00  0.00    -0.129 S 
ATOM     21  C   UNL     1      -1.846   6.446   0.052  0.00  0.00    +0.090 C 
ENDBRANCH  17  20
ENDBRANCH   6  14
BRANCH  10  22
ATOM     22  C   UNL     1      -2.417  -2.481  -4.622  0.00  0.00    -0.040 A 
ATOM     23  C   UNL     1      -3.144  -1.565  -5.358  0.00  0.00    +0.008 A 
ATOM     24  C   UNL     1      -3.804  -1.962  -6.506  0.00  0.00    +0.049 A 
ATOM     25  C   UNL     1      -3.745  -3.285  -6.915  0.00  0.00    +0.161 A 
ATOM     26  C   UNL     1      -3.018  -4.209  -6.171  0.00  0.00    +0.162 A 
ATOM     27  C   UNL     1      -2.355  -3.802  -5.024  0.00  0.00    +0.053 A 
BRANCH  26  28
ATOM     28  O   UNL     1      -2.957  -5.508  -6.569  0.00  0.00    -0.491 OA
ATOM     29  C   UNL     1      -2.192  -6.400  -5.757  0.00  0.00    +0.277 C 
ENDBRANCH  26  28
BRANCH  25  30
ATOM     30  O   UNL     1      -4.398  -3.679  -8.041  0.00  0.00    -0.491 OA
ATOM     31  C   UNL     1      -5.125  -2.677  -8.754  0.00  0.00    +0.277 C 
ENDBRANCH  25  30
ENDBRANCH  10  22
BRANCH   1  32
ATOM     32  C   UNL     1       0.058  -0.482   2.472  0.00  0.00    +0.338 C 
ATOM     33  O   UNL     1      -0.464  -0.892   3.493  0.00  0.00    -0.245 OA
BRANCH  32  34
ATOM     34  O   UNL     1       1.318   0.001   2.506  0.00  0.00    -0.461 OA
BRANCH  34  35
ATOM     35  C   UNL     1       1.979   0.002   3.773  0.00  0.00    +0.232 C 
BRANCH  35  36
ATOM     36  C   UNL     1       3.386   0.582   3.614  0.00  0.00    +0.041 C 
BRANCH  36  38
ATOM     37  C   UNL     1       5.501   1.162   4.811  0.00  0.00    +0.004 C 
ATOM     38  C   UNL     1       4.094   0.582   4.970  0.00  0.00    -0.000 C 
ENDBRANCH  36  38
ENDBRANCH  35  36
ENDBRANCH  34  35
ENDBRANCH  32  34
ENDBRANCH   1  32
TORSDOF 10
