REMARK  Name = ZINC43560162
REMARK  5 active torsions:
REMARK  status: ('A' for Active; 'I' for Inactive)
REMARK    1  A    between atoms: C_1  and  C_2
REMARK    2  A    between atoms: C_7  and  C_8
REMARK    3  A    between atoms: C_8  and  C_9
REMARK    4  A    between atoms: C_11  and  C_14
REMARK    5  A    between atoms: C_18  and  N_20
REMARK                            x       y       z     vdW  Elec       q    Type
REMARK                         _______ _______ _______ _____ _____    ______ ____
ROOT
ATOM      1  C   UNL     1      -1.391   0.382   2.893  0.00  0.00    +0.176 A 
ATOM      2  N   UNL     1      -2.044   1.495   2.551  0.00  0.00    -0.191 NA
ATOM      3  C   UNL     1      -3.259   1.476   3.052  0.00  0.00    +0.259 A 
ATOM      4  O   UNL     1      -3.407   0.328   3.736  0.00  0.00    -0.333 OA
ATOM      5  N   UNL     1      -2.177  -0.369   3.612  0.00  0.00    -0.061 NA
ENDROOT
BRANCH   3   6
ATOM      6  C   UNL     1      -4.281   2.531   2.892  0.00  0.00    +0.041 A 
ATOM      7  C   UNL     1      -3.995   3.676   2.147  0.00  0.00    +0.015 A 
ATOM      8  C   UNL     1      -4.951   4.660   1.998  0.00  0.00    +0.022 A 
ATOM      9  C   UNL     1      -6.195   4.516   2.586  0.00  0.00    +0.062 A 
ATOM     10  C   UNL     1      -6.490   3.378   3.330  0.00  0.00    +0.044 A 
ATOM     11  C   UNL     1      -5.537   2.382   3.480  0.00  0.00    +0.037 A 
ATOM     12 CL   UNL     1      -7.392   5.759   2.395  0.00  0.00    -0.082 Cl
BRANCH  10  13
ATOM     13  N   UNL     1      -7.748   3.237   3.923  0.00  0.00    -0.357 N 
ATOM     14  H   UNL     1      -8.415   3.932   3.815  0.00  0.00    +0.142 HD
ATOM     15  H   UNL     1      -7.953   2.443   4.441  0.00  0.00    +0.142 HD
ENDBRANCH  10  13
ENDBRANCH   3   6
BRANCH   1  16
ATOM     16  C   UNL     1       0.025   0.045   2.504  0.00  0.00    +0.115 C 
BRANCH  16  23
ATOM     17  C   UNL     1      -0.018   1.503   0.010  0.00  0.00    +0.044 C 
ATOM     18  C   UNL     1       0.002  -0.004   0.002  0.00  0.00    -0.047 A 
ATOM     19  C   UNL     1       0.006  -0.689  -1.199  0.00  0.00    +0.003 A 
ATOM     20  C   UNL     1       0.025  -2.071  -1.207  0.00  0.00    +0.000 A 
ATOM     21  C   UNL     1       0.040  -2.768  -0.013  0.00  0.00    +0.000 A 
ATOM     22  C   UNL     1       0.037  -2.084   1.188  0.00  0.00    +0.004 A 
ATOM     23  C   UNL     1       0.023  -0.702   1.195  0.00  0.00    -0.037 A 
ENDBRANCH  16  23
ENDBRANCH   1  16
TORSDOF 4
