REMARK  Name = ZINC39666678
REMARK  8 active torsions:
REMARK  status: ('A' for Active; 'I' for Inactive)
REMARK    1  A    between atoms: C_1  and  C_2
REMARK    2  A    between atoms: C_2  and  C_3
REMARK    3  A    between atoms: C_3  and  C_4
REMARK    4  A    between atoms: C_3  and  C_6
REMARK    5  A    between atoms: C_4  and  C_5
REMARK    6  A    between atoms: C_6  and  N_7
REMARK    7  A    between atoms: C_8  and  C_10
REMARK    8  A    between atoms: C_21  and  C_23
REMARK                            x       y       z     vdW  Elec       q    Type
REMARK                         _______ _______ _______ _____ _____    ______ ____
ROOT
ATOM      1  C   UNL     1      -2.959  -4.193  -1.410  0.00  0.00    +0.100 C 
ATOM      2  C   UNL     1      -3.681  -3.723  -2.692  0.00  0.00    +0.121 C 
ATOM      3  N   UNL     1      -3.530  -4.850  -3.642  0.00  0.00    -0.296 N 
ATOM      4  C   UNL     1      -3.702  -6.062  -2.806  0.00  0.00    +0.115 C 
ATOM      5  C   UNL     1      -2.977  -5.729  -1.487  0.00  0.00    -0.004 C 
ATOM      6  C   UNL     1      -1.552  -6.274  -1.517  0.00  0.00    -0.010 C 
ATOM      7  C   UNL     1      -1.596  -7.804  -1.536  0.00  0.00    -0.082 C 
ATOM      8  N   UNL     1      -2.303  -8.290  -0.345  0.00  0.00    +0.379 N 
ATOM      9  C   UNL     1      -3.699  -7.838  -0.371  0.00  0.00    -0.082 C 
ATOM     10  C   UNL     1      -3.744  -6.309  -0.302  0.00  0.00    -0.010 C 
ATOM     11  C   UNL     1      -3.290  -4.787  -4.967  0.00  0.00    +0.248 C 
ATOM     12  O   UNL     1      -3.078  -3.713  -5.496  0.00  0.00    -0.270 OA
ATOM     13  H   UNL     1      -2.277  -9.299  -0.328  0.00  0.00    -0.086 HD
ATOM     14  H   UNL     1      -1.850  -7.932   0.483  0.00  0.00    -0.086 HD
ENDROOT
BRANCH  11  15
ATOM     15  C   UNL     1      -3.286  -6.023  -5.776  0.00  0.00    +0.055 A 
ATOM     16  C   UNL     1      -4.168  -7.063  -5.473  0.00  0.00    +0.016 A 
ATOM     17  C   UNL     1      -4.159  -8.213  -6.231  0.00  0.00    +0.021 A 
ATOM     18  C   UNL     1      -3.278  -8.341  -7.293  0.00  0.00    +0.042 A 
ATOM     19  C   UNL     1      -2.401  -7.315  -7.600  0.00  0.00    +0.040 A 
ATOM     20  C   UNL     1      -2.404  -6.154  -6.852  0.00  0.00    +0.054 A 
ATOM     21 CL   UNL     1      -1.309  -4.864  -7.242  0.00  0.00    -0.083 Cl
ATOM     22 CL   UNL     1      -3.274  -9.794  -8.243  0.00  0.00    -0.083 Cl
ENDBRANCH  11  15
BRANCH   1  24
ATOM     23  N   UNL     1      -0.868  -3.606  -0.225  0.00  0.00    -0.315 N 
ATOM     24  C   UNL     1      -1.540  -3.686  -1.391  0.00  0.00    +0.218 C 
ATOM     25  O   UNL     1      -1.002  -3.349  -2.425  0.00  0.00    -0.275 OA
ATOM     26  H   UNL     1      -1.298  -3.875   0.602  0.00  0.00    +0.149 HD
BRANCH  23  27
ATOM     27  C   UNL     1       0.511  -3.112  -0.207  0.00  0.00    +0.107 C 
BRANCH  27  28
ATOM     28  C   UNL     1       1.038  -3.122   1.229  0.00  0.00    +0.006 C 
BRANCH  28  30
ATOM     29  C   UNL     1       1.505  -4.567   3.214  0.00  0.00    +0.004 C 
ATOM     30  C   UNL     1       1.117  -4.564   1.734  0.00  0.00    +0.002 C 
ENDBRANCH  28  30
BRANCH  28  31
ATOM     31  C   UNL     1       2.431  -2.491   1.266  0.00  0.00    +0.002 C 
ATOM     32  C   UNL     1       2.330  -1.010   0.898  0.00  0.00    +0.004 C 
ENDBRANCH  28  31
ENDBRANCH  27  28
ENDBRANCH  23  27
ENDBRANCH   1  24
TORSDOF 6
