REMARK  Name = ZINC21581223
REMARK  8 active torsions:
REMARK  status: ('A' for Active; 'I' for Inactive)
REMARK    1  A    between atoms: C_1  and  C_2
REMARK    2  A    between atoms: C_2  and  O_3
REMARK    3  A    between atoms: O_3  and  C_4
REMARK    4  A    between atoms: C_4  and  C_6
REMARK    5  A    between atoms: C_7  and  C_19
REMARK    6  A    between atoms: C_12  and  C_14
REMARK    7  A    between atoms: C_19  and  N_20
REMARK    8  A    between atoms: C_24  and  C_26
REMARK                            x       y       z     vdW  Elec       q    Type
REMARK                         _______ _______ _______ _____ _____    ______ ____
ROOT
ATOM      1  C   UNL     1      -1.658   0.792  -1.810  0.00  0.00    +0.079 C 
ATOM      2  C   UNL     1      -0.720   1.573  -1.232  0.00  0.00    +0.008 C 
ATOM      3  N   UNL     1      -0.439   2.817  -1.719  0.00  0.00    -0.274 N 
ATOM      4  C   UNL     1      -1.056   3.356  -2.779  0.00  0.00    +0.304 C 
ATOM      5  O   UNL     1      -0.737   4.472  -3.140  0.00  0.00    -0.252 OA
ATOM      6  N   UNL     1      -2.018   2.701  -3.458  0.00  0.00    -0.285 N 
ATOM      7  C   UNL     1      -2.396   1.349  -3.011  0.00  0.00    +0.179 C 
ATOM      8  H   UNL     1       0.332   3.436  -1.237  0.00  0.00    +0.156 HD
ATOM      9  H   UNL     1      -2.519   3.152  -4.327  0.00  0.00    +0.151 HD
ENDROOT
BRANCH   7  10
ATOM     10  C   UNL     1      -3.869   1.359  -2.693  0.00  0.00    +0.130 A 
ATOM     11  C   UNL     1      -4.743   0.380  -2.985  0.00  0.00    +0.047 A 
ATOM     12  C   UNL     1      -6.005   0.802  -2.508  0.00  0.00    +0.041 A 
ATOM     13  C   UNL     1      -5.828   2.018  -1.961  0.00  0.00    +0.195 A 
ATOM     14  O   UNL     1      -4.532   2.351  -2.076  0.00  0.00    -0.466 OA
ENDBRANCH   7  10
BRANCH   1  15
ATOM     15  C   UNL     1      -1.945  -0.499  -1.309  0.00  0.00    +0.339 C 
ATOM     16  O   UNL     1      -1.431  -0.878  -0.273  0.00  0.00    -0.245 OA
BRANCH  15  17
ATOM     17  O   UNL     1      -2.789  -1.310  -1.980  0.00  0.00    -0.462 OA
BRANCH  17  19
ATOM     18  C   UNL     1      -4.008  -3.371  -2.310  0.00  0.00    +0.048 C 
ATOM     19  C   UNL     1      -3.034  -2.600  -1.416  0.00  0.00    +0.229 C 
ENDBRANCH  17  19
ENDBRANCH  15  17
ENDBRANCH   1  15
BRANCH   2  20
ATOM     20  C   UNL     1       0.035   1.060  -0.032  0.00  0.00    -0.026 C 
BRANCH  20  21
ATOM     21  N   UNL     1      -0.684   1.432   1.194  0.00  0.00    +0.388 N 
ATOM     22  C   UNL     1      -0.515   2.878   1.492  0.00  0.00    -0.078 C 
ATOM     23  C   UNL     1      -0.827   3.004   2.999  0.00  0.00    -0.020 C 
ATOM     24  C   UNL     1      -0.559   1.601   3.582  0.00  0.00    -0.013 C 
ATOM     25  C   UNL     1      -0.108   0.746   2.379  0.00  0.00    -0.037 C 
ATOM     26  H   UNL     1      -1.733   1.155   1.010  0.00  0.00    -0.080 HD
BRANCH  25  27
ATOM     27  C   UNL     1      -0.656  -0.654   2.493  0.00  0.00    -0.057 A 
ATOM     28  C   UNL     1      -1.991  -0.895   2.231  0.00  0.00    +0.006 A 
ATOM     29  C   UNL     1      -2.497  -2.178   2.331  0.00  0.00    +0.049 A 
ATOM     30  C   UNL     1      -1.667  -3.224   2.706  0.00  0.00    +0.162 A 
ATOM     31  C   UNL     1      -0.325  -2.981   2.973  0.00  0.00    +0.162 A 
ATOM     32  C   UNL     1       0.177  -1.692   2.866  0.00  0.00    +0.051 A 
ATOM     33  O   UNL     1       0.508  -3.994   3.334  0.00  0.00    -0.485 OA
ATOM     34  C   UNL     1      -0.108  -5.203   3.792  0.00  0.00    +0.270 C 
ATOM     35  C   UNL     1      -1.243  -5.561   2.822  0.00  0.00    +0.270 C 
ATOM     36  O   UNL     1      -2.182  -4.480   2.812  0.00  0.00    -0.485 OA
ENDBRANCH  25  27
ENDBRANCH  20  21
ENDBRANCH   2  20
TORSDOF 7
