REMARK  Name = ZINC38789827
REMARK  9 active torsions:
REMARK  status: ('A' for Active; 'I' for Inactive)
REMARK    1  A    between atoms: C_1  and  C_2
REMARK    2  A    between atoms: C_2  and  C_3
REMARK    3  A    between atoms: C_10  and  C_15
REMARK    4  A    between atoms: C_15  and  N_16
REMARK    5  A    between atoms: N_16  and  C_17
REMARK    6  A    between atoms: C_20  and  N_23
REMARK    7  A    between atoms: C_27  and  C_29
REMARK    8  A    between atoms: C_29  and  O_31
REMARK    9  A    between atoms: O_31  and  C_32
REMARK                            x       y       z     vdW  Elec       q    Type
REMARK                         _______ _______ _______ _____ _____    ______ ____
ROOT
ATOM      1  N   UNL     1       6.230  -3.572  -4.571  0.00  0.00    -0.343 N 
ATOM      2  H   UNL     1       6.283  -2.985  -5.341  0.00  0.00    +0.146 HD
ENDROOT
BRANCH   1   3
ATOM      3  C   UNL     1       6.971  -4.760  -4.544  0.00  0.00    +0.027 A 
ATOM      4  C   UNL     1       6.891  -5.603  -3.444  0.00  0.00    +0.025 A 
ATOM      5  C   UNL     1       7.621  -6.774  -3.417  0.00  0.00    +0.025 A 
ATOM      6  C   UNL     1       8.436  -7.109  -4.491  0.00  0.00    +0.030 A 
ATOM      7  C   UNL     1       8.516  -6.266  -5.591  0.00  0.00    +0.025 A 
ATOM      8  C   UNL     1       7.781  -5.097  -5.620  0.00  0.00    +0.025 A 
BRANCH   6   9
ATOM      9  N   UNL     1       9.177  -8.296  -4.464  0.00  0.00    -0.317 N 
ATOM     10  C   UNL     1       9.182  -9.281  -3.367  0.00  0.00    +0.106 C 
ATOM     11  C   UNL     1       9.604 -10.615  -4.033  0.00  0.00    +0.021 C 
ATOM     12  C   UNL     1      10.651 -10.127  -5.069  0.00  0.00    +0.035 C 
ATOM     13  C   UNL     1      10.075  -8.771  -5.527  0.00  0.00    +0.182 C 
BRANCH  13  14
ATOM     14  C   UNL     1      11.196  -7.784  -5.729  0.00  0.00    +0.328 C 
ATOM     15  O   UNL     1      11.247  -6.781  -5.057  0.00  0.00    -0.249 OA
BRANCH  14  16
ATOM     16  O   UNL     1      12.137  -8.018  -6.657  0.00  0.00    -0.467 OA
ATOM     17  C   UNL     1      13.170  -7.040  -6.795  0.00  0.00    +0.280 C 
ENDBRANCH  14  16
ENDBRANCH  13  14
ENDBRANCH   6   9
ENDBRANCH   1   3
BRANCH   1  18
ATOM     18  C   UNL     1       5.375  -3.216  -3.436  0.00  0.00    +0.118 C 
BRANCH  18  26
ATOM     19  C   UNL     1       0.707  -0.490  -1.238  0.00  0.00    -0.047 A 
ATOM     20  C   UNL     1      -0.031  -0.716  -2.400  0.00  0.00    +0.005 A 
ATOM     21  C   UNL     1       0.535  -1.153  -3.555  0.00  0.00    +0.024 A 
ATOM     22  C   UNL     1       1.918  -1.400  -3.623  0.00  0.00    +0.040 A 
ATOM     23  N   UNL     1       2.463  -1.829  -4.762  0.00  0.00    -0.284 N 
ATOM     24  C   UNL     1       3.754  -2.080  -4.895  0.00  0.00    +0.226 C 
ATOM     25  O   UNL     1       4.194  -2.469  -5.960  0.00  0.00    -0.275 OA
ATOM     26  C   UNL     1       4.682  -1.881  -3.718  0.00  0.00    +0.115 C 
ATOM     27  C   UNL     1       4.068  -1.393  -2.421  0.00  0.00    -0.003 C 
ATOM     28  C   UNL     1       2.723  -1.170  -2.411  0.00  0.00    -0.007 A 
ATOM     29  C   UNL     1       2.050  -0.694  -1.202  0.00  0.00    +0.013 A 
ATOM     30  H   UNL     1       1.884  -1.962  -5.529  0.00  0.00    +0.155 HD
BRANCH  19  32
ATOM     31  C   UNL     1      -0.019   1.526   0.010  0.00  0.00    +0.009 C 
ATOM     32  C   UNL     1       0.002  -0.004   0.002  0.00  0.00    +0.032 C 
ENDBRANCH  19  32
ENDBRANCH  18  26
ENDBRANCH   1  18
TORSDOF 7
