REMARK  Name = ZINC39143319
REMARK  5 active torsions:
REMARK  status: ('A' for Active; 'I' for Inactive)
REMARK    1  A    between atoms: C_1  and  C_2
REMARK    2  A    between atoms: C_4  and  C_20
REMARK    3  A    between atoms: N_12  and  C_13
REMARK    4  A    between atoms: C_13  and  C_14
REMARK    5  A    between atoms: C_21  and  C_22
REMARK                            x       y       z     vdW  Elec       q    Type
REMARK                         _______ _______ _______ _____ _____    ______ ____
ROOT
ATOM      1  C   UNL     1      -0.019   1.526   0.010  0.00  0.00    +0.029 C 
ATOM      2  C   UNL     1       0.002  -0.004   0.002  0.00  0.00    +0.082 C 
ATOM      3  C   UNL     1       0.748  -0.521  -1.239  0.00  0.00    +0.064 C 
ATOM      4  C   UNL     1       1.915  -1.304  -0.682  0.00  0.00    -0.018 A 
ATOM      5  C   UNL     1       2.929  -1.994  -1.317  0.00  0.00    +0.006 A 
ATOM      6  C   UNL     1       3.900  -2.642  -0.576  0.00  0.00    +0.000 A 
ATOM      7  C   UNL     1       3.853  -2.597   0.806  0.00  0.00    +0.002 A 
ATOM      8  C   UNL     1       2.844  -1.909   1.444  0.00  0.00    +0.023 A 
ATOM      9  C   UNL     1       1.860  -1.252   0.702  0.00  0.00    +0.034 A 
ATOM     10  N   UNL     1       0.764  -0.508   1.148  0.00  0.00    -0.322 N 
ENDROOT
BRANCH   3  11
ATOM     11  C   UNL     1      -0.147  -1.416  -2.056  0.00  0.00    -0.013 C 
ATOM     12  C   UNL     1      -0.434  -1.100  -3.316  0.00  0.00    +0.043 C 
BRANCH  12  13
ATOM     13  C   UNL     1      -1.308  -1.975  -4.113  0.00  0.00    +0.134 A 
ATOM     14  N   UNL     1      -1.578  -1.622  -5.408  0.00  0.00    -0.307 N 
ATOM     15  H   UNL     1      -1.194  -0.811  -5.778  0.00  0.00    +0.170 HD
ATOM     16  C   UNL     1      -2.377  -2.399  -6.177  0.00  0.00    +0.259 A 
ATOM     17  O   UNL     1      -2.627  -2.101  -7.330  0.00  0.00    -0.267 OA
ATOM     18  C   UNL     1      -2.931  -3.616  -5.566  0.00  0.00    +0.065 A 
ATOM     19  C   UNL     1      -3.763  -4.481  -6.274  0.00  0.00    +0.015 A 
ATOM     20  C   UNL     1      -4.254  -5.609  -5.652  0.00  0.00    +0.001 A 
ATOM     21  C   UNL     1      -3.926  -5.887  -4.331  0.00  0.00    +0.002 A 
ATOM     22  C   UNL     1      -3.112  -5.052  -3.618  0.00  0.00    +0.028 A 
ATOM     23  C   UNL     1      -2.598  -3.901  -4.221  0.00  0.00    +0.078 A 
ATOM     24  N   UNL     1      -1.788  -3.057  -3.552  0.00  0.00    -0.230 NA
ENDBRANCH  12  13
ENDBRANCH   3  11
BRANCH  10  25
ATOM     25  C   UNL     1       0.425  -0.267   2.553  0.00  0.00    +0.140 C 
BRANCH  25  26
ATOM     26  C   UNL     1      -0.486  -1.362   3.045  0.00  0.00    -0.030 A 
ATOM     27  C   UNL     1      -1.857  -1.226   2.926  0.00  0.00    +0.005 A 
ATOM     28  C   UNL     1      -2.693  -2.230   3.377  0.00  0.00    +0.000 A 
ATOM     29  C   UNL     1      -2.158  -3.370   3.947  0.00  0.00    +0.000 A 
ATOM     30  C   UNL     1      -0.788  -3.506   4.065  0.00  0.00    +0.000 A 
ATOM     31  C   UNL     1       0.048  -2.504   3.610  0.00  0.00    +0.005 A 
ENDBRANCH  25  26
ENDBRANCH  10  25
TORSDOF 4
