REMARK  Name = ZINC14461756
REMARK  10 active torsions:
REMARK  status: ('A' for Active; 'I' for Inactive)
REMARK    1  A    between atoms: C_1  and  C_2
REMARK    2  A    between atoms: C_2  and  N_3
REMARK    3  A    between atoms: N_3  and  C_4
REMARK    4  A    between atoms: N_3  and  C_6
REMARK    5  A    between atoms: C_4  and  C_5
REMARK    6  A    between atoms: C_9  and  C_12
REMARK    7  A    between atoms: C_23  and  S_28
REMARK    8  A    between atoms: S_28  and  N_31
REMARK    9  A    between atoms: N_31  and  C_32
REMARK   10  A    between atoms: C_32  and  C_33
REMARK                            x       y       z     vdW  Elec       q    Type
REMARK                         _______ _______ _______ _____ _____    ______ ____
ROOT
ATOM      1  C   UNL     1       1.238   2.179   0.002  0.00  0.00    +0.105 C 
ATOM      2  C   UNL     1       2.219   1.372  -0.830  0.00  0.00    +0.029 C 
ATOM      3  C   UNL     1       3.673   1.859  -0.865  0.00  0.00    +0.033 C 
ATOM      4  C   UNL     1       4.431   0.547  -1.081  0.00  0.00    -0.030 C 
ATOM      5  C   UNL     1       3.719  -0.471  -0.615  0.00  0.00    -0.023 C 
ATOM      6  C   UNL     1       2.462   0.059  -0.026  0.00  0.00    +0.049 C 
ATOM      7  C   UNL     1       1.204  -0.719  -0.039  0.00  0.00    -0.018 A 
ATOM      8  C   UNL     1       1.187  -2.097  -0.069  0.00  0.00    +0.034 A 
ATOM      9  C   UNL     1      -0.015  -2.780  -0.045  0.00  0.00    +0.106 A 
ATOM     10  C   UNL     1      -1.207  -2.080   0.008  0.00  0.00    +0.030 A 
ATOM     11  C   UNL     1      -1.200  -0.701   0.032  0.00  0.00    +0.025 A 
ATOM     12  C   UNL     1       0.002  -0.004   0.002  0.00  0.00    +0.031 A 
ATOM     13  N   UNL     1      -0.017   1.396   0.010  0.00  0.00    -0.336 N 
ATOM     14  H   UNL     1      -0.868   1.861   0.016  0.00  0.00    +0.147 HD
ENDROOT
BRANCH   1  18
ATOM     15  C   UNL     1       0.580   6.003  -1.790  0.00  0.00    +0.030 A 
ATOM     16  C   UNL     1       1.393   5.890  -0.669  0.00  0.00    +0.023 A 
ATOM     17  C   UNL     1       1.603   4.653  -0.093  0.00  0.00    +0.007 A 
ATOM     18  C   UNL     1       1.006   3.527  -0.630  0.00  0.00    -0.027 A 
ATOM     19  C   UNL     1       0.201   3.636  -1.749  0.00  0.00    +0.007 A 
ATOM     20  C   UNL     1      -0.018   4.871  -2.327  0.00  0.00    +0.023 A 
BRANCH  15  21
ATOM     21  N   UNL     1       0.365   7.253  -2.375  0.00  0.00    -0.330 N 
BRANCH  21  23
ATOM     22  C   UNL     1      -1.938   7.613  -3.117  0.00  0.00    +0.024 C 
ATOM     23  C   UNL     1      -0.493   7.370  -3.557  0.00  0.00    +0.102 C 
ENDBRANCH  21  23
BRANCH  21  24
ATOM     24  C   UNL     1       0.997   8.447  -1.807  0.00  0.00    +0.102 C 
ATOM     25  C   UNL     1       2.363   8.661  -2.461  0.00  0.00    +0.024 C 
ENDBRANCH  21  24
ENDBRANCH  15  21
ENDBRANCH   1  18
BRANCH   9  26
ATOM     26  S   UNL     1      -0.028  -4.542  -0.084  0.00  0.00    +0.059 S 
ATOM     27  O   UNL     1       1.231  -4.968   0.417  0.00  0.00    -0.153 OA
ATOM     28  O   UNL     1      -1.258  -4.951   0.498  0.00  0.00    -0.153 OA
BRANCH  26  29
ATOM     29  N   UNL     1      -0.083  -4.996  -1.675  0.00  0.00    -0.186 NA
ATOM     30  H   UNL     1      -0.859  -5.465  -2.020  0.00  0.00    +0.148 HD
BRANCH  29  31
ATOM     31  C   UNL     1       1.041  -4.689  -2.564  0.00  0.00    +0.141 C 
BRANCH  31  32
ATOM     32  C   UNL     1       0.923  -5.506  -3.824  0.00  0.00    -0.032 A 
ATOM     33  C   UNL     1       1.513  -6.754  -3.897  0.00  0.00    +0.005 A 
ATOM     34  C   UNL     1       1.401  -7.505  -5.052  0.00  0.00    +0.000 A 
ATOM     35  C   UNL     1       0.706  -7.005  -6.138  0.00  0.00    +0.000 A 
ATOM     36  C   UNL     1       0.120  -5.755  -6.066  0.00  0.00    +0.000 A 
ATOM     37  C   UNL     1       0.229  -5.005  -4.910  0.00  0.00    +0.005 A 
ENDBRANCH  31  32
ENDBRANCH  29  31
ENDBRANCH  26  29
ENDBRANCH   9  26
TORSDOF 8
