REMARK  Name = ZINC12601521
REMARK  9 active torsions:
REMARK  status: ('A' for Active; 'I' for Inactive)
REMARK    1  A    between atoms: C_1  and  C_2
REMARK    2  A    between atoms: C_2  and  C_3
REMARK    3  A    between atoms: C_3  and  O_4
REMARK    4  A    between atoms: O_4  and  C_5
REMARK    5  A    between atoms: C_6  and  O_32
REMARK    6  A    between atoms: C_8  and  C_12
REMARK    7  A    between atoms: C_13  and  C_14
REMARK    8  A    between atoms: C_20  and  C_22
REMARK    9  A    between atoms: O_32  and  C_33
REMARK                            x       y       z     vdW  Elec       q    Type
REMARK                         _______ _______ _______ _____ _____    ______ ____
ROOT
ATOM      1  C   UNL     1       0.112  -4.312  -0.021  0.00  0.00    +0.240 C 
ATOM      2  O   UNL     1       1.175  -4.904  -0.034  0.00  0.00    -0.271 OA
ATOM      3  N   UNL     1      -1.044  -5.004  -0.013  0.00  0.00    -0.288 N 
ATOM      4  C   UNL     1      -2.397  -4.418   0.003  0.00  0.00    +0.109 C 
ATOM      5  C   UNL     1      -3.299  -5.517   0.617  0.00  0.00    +0.021 C 
ATOM      6  C   UNL     1      -2.672  -6.804   0.020  0.00  0.00    +0.032 C 
ATOM      7  C   UNL     1      -1.166  -6.469  -0.025  0.00  0.00    +0.142 C 
ENDROOT
BRANCH   7   8
ATOM      8  C   UNL     1      -0.552  -7.024  -1.285  0.00  0.00    +0.129 A 
ATOM      9  N   UNL     1       0.132  -6.293  -2.206  0.00  0.00    -0.340 N 
ATOM     10  H   UNL     1       0.311  -5.310  -2.167  0.00  0.00    +0.167 HD
ATOM     11  C   UNL     1       0.532  -7.160  -3.203  0.00  0.00    +0.066 A 
ATOM     12  C   UNL     1       1.249  -7.012  -4.382  0.00  0.00    +0.028 A 
ATOM     13  C   UNL     1       1.480  -8.110  -5.183  0.00  0.00    +0.002 A 
ATOM     14  C   UNL     1       1.002  -9.360  -4.818  0.00  0.00    +0.002 A 
ATOM     15  C   UNL     1       0.295  -9.525  -3.661  0.00  0.00    +0.030 A 
ATOM     16  C   UNL     1       0.048  -8.426  -2.833  0.00  0.00    +0.089 A 
ATOM     17  N   UNL     1      -0.604  -8.271  -1.652  0.00  0.00    -0.231 NA
ENDBRANCH   7   8
BRANCH   1  19
ATOM     18  C   UNL     1       1.247  -2.156  -0.021  0.00  0.00    +0.013 C 
ATOM     19  C   UNL     1       0.089  -2.849  -0.013  0.00  0.00    +0.068 C 
BRANCH  18  23
ATOM     20  C   UNL     1       1.175   2.089   0.002  0.00  0.00    +0.180 A 
ATOM     21  C   UNL     1       2.396   1.415  -0.013  0.00  0.00    +0.164 A 
ATOM     22  C   UNL     1       2.424   0.035  -0.021  0.00  0.00    +0.057 A 
ATOM     23  C   UNL     1       1.224  -0.686  -0.013  0.00  0.00    -0.020 A 
ATOM     24  C   UNL     1       0.002  -0.004   0.002  0.00  0.00    +0.031 A 
ATOM     25  C   UNL     1      -0.017   1.375   0.010  0.00  0.00    +0.087 A 
ATOM     26 CL   UNL     1      -1.533   2.220   0.021  0.00  0.00    -0.080 Cl
BRANCH  21  27
ATOM     27  O   UNL     1       3.560   2.118  -0.021  0.00  0.00    -0.491 OA
ATOM     28  C   UNL     1       4.773   1.364  -0.037  0.00  0.00    +0.277 C 
ENDBRANCH  21  27
BRANCH  20  29
ATOM     29  O   UNL     1       1.151   3.447   0.010  0.00  0.00    -0.487 OA
BRANCH  29  30
ATOM     30  C   UNL     1       1.151   4.089   1.286  0.00  0.00    +0.229 C 
BRANCH  30  32
ATOM     31  C   UNL     1       1.123   6.293   2.461  0.00  0.00    +0.007 C 
ATOM     32  C   UNL     1       1.122   5.606   1.094  0.00  0.00    +0.038 C 
ENDBRANCH  30  32
ENDBRANCH  29  30
ENDBRANCH  20  29
ENDBRANCH  18  23
ENDBRANCH   1  19
TORSDOF 7
