REMARK  Name = ZINC57090962
REMARK  10 active torsions:
REMARK  status: ('A' for Active; 'I' for Inactive)
REMARK    1  A    between atoms: C_1  and  C_2
REMARK    2  A    between atoms: C_4  and  C_25
REMARK    3  A    between atoms: N_11  and  C_12
REMARK    4  A    between atoms: C_12  and  N_13
REMARK    5  A    between atoms: N_13  and  C_14
REMARK    6  A    between atoms: C_14  and  C_16
REMARK    7  A    between atoms: C_14  and  C_21
REMARK    8  A    between atoms: C_21  and  C_22
REMARK    9  A    between atoms: C_21  and  C_23
REMARK   10  A    between atoms: C_21  and  C_24
REMARK                            x       y       z     vdW  Elec       q    Type
REMARK                         _______ _______ _______ _____ _____    ______ ____
ROOT
ATOM      1  C   UNL     1      -0.216  -5.536   0.021  0.00  0.00    +0.067 C 
ENDROOT
BRANCH   1  12
ATOM      2  C   UNL     1       1.457   0.982   0.121  0.00  0.00    +0.066 C 
ATOM      3  C   UNL     1       1.209  -0.504   0.096  0.00  0.00    +0.044 A 
ATOM      4  C   UNL     1      -0.101  -0.992   0.108  0.00  0.00    +0.046 A 
ATOM      5  C   UNL     1      -0.308  -2.337   0.085  0.00  0.00    +0.043 A 
ATOM      6  N   UNL     1       0.757  -3.166   0.051  0.00  0.00    -0.223 N 
ATOM      7  C   UNL     1       2.028  -2.660   0.041  0.00  0.00    +0.253 A 
ATOM      8  N   UNL     1       2.226  -1.340   0.058  0.00  0.00    -0.216 NA
ATOM      9  N   UNL     1       2.877  -3.689   0.007  0.00  0.00    -0.185 NA
ATOM     10  C   UNL     1       2.200  -4.835  -0.004  0.00  0.00    +0.197 A 
ATOM     11  S   UNL     1       2.893  -6.400  -0.046  0.00  0.00    -0.010 S 
ATOM     12  N   UNL     1       0.879  -4.562   0.022  0.00  0.00    -0.271 N 
ATOM     13  C   UNL     1      -1.708  -2.895   0.098  0.00  0.00    +0.066 C 
ENDBRANCH   1  12
BRANCH   1  14
ATOM     14  N   UNL     1      -0.811  -5.602  -1.320  0.00  0.00    +0.397 N 
ATOM     15  H   UNL     1      -1.264  -4.725  -1.530  0.00  0.00    -0.082 HD
ATOM     16  H   UNL     1      -0.088  -5.779  -2.001  0.00  0.00    -0.082 HD
BRANCH  14  17
ATOM     17  C   UNL     1      -1.802  -6.686  -1.364  0.00  0.00    -0.026 C 
BRANCH  17  18
ATOM     18  C   UNL     1      -2.959  -6.346  -0.460  0.00  0.00    -0.024 A 
ATOM     19  C   UNL     1      -3.560  -7.113   0.482  0.00  0.00    +0.009 A 
ATOM     20  C   UNL     1      -4.618  -6.587   1.200  0.00  0.00    +0.008 A 
ATOM     21  C   UNL     1      -5.022  -5.319   0.941  0.00  0.00    +0.045 A 
ATOM     22  S   UNL     1      -3.889  -4.826  -0.348  0.00  0.00    -0.103 S 
ENDBRANCH  17  18
BRANCH  17  23
ATOM     23  C   UNL     1      -2.307  -6.858  -2.797  0.00  0.00    -0.046 C 
ATOM     24  C   UNL     1      -1.161  -7.344  -3.687  0.00  0.00    +0.009 C 
ATOM     25  C   UNL     1      -3.440  -7.886  -2.819  0.00  0.00    +0.009 C 
ATOM     26  C   UNL     1      -2.825  -5.516  -3.320  0.00  0.00    +0.009 C 
ENDBRANCH  17  23
ENDBRANCH  14  17
ENDBRANCH   1  14
TORSDOF 5
