REMARK  Name = ZINC17380289
REMARK  4 active torsions:
REMARK  status: ('A' for Active; 'I' for Inactive)
REMARK    1  A    between atoms: N_9  and  N_10
REMARK    2  A    between atoms: N_10  and  C_11
REMARK    3  A    between atoms: C_11  and  N_13
REMARK    4  A    between atoms: C_16  and  N_21
REMARK                            x       y       z     vdW  Elec       q    Type
REMARK                         _______ _______ _______ _____ _____    ______ ____
ROOT
ATOM      1  C   UNL     1      -2.973   7.891  -1.350  0.00  0.00    +0.020 A 
ATOM      2  C   UNL     1      -1.657   8.197  -1.067  0.00  0.00    +0.010 A 
ATOM      3  C   UNL     1      -0.727   7.174  -0.889  0.00  0.00    -0.006 A 
ATOM      4  C   UNL     1      -1.142   5.835  -1.000  0.00  0.00    +0.012 A 
ATOM      5  C   UNL     1      -2.473   5.544  -1.286  0.00  0.00    +0.030 A 
ATOM      6  C   UNL     1      -3.380   6.571  -1.460  0.00  0.00    +0.042 A 
ATOM      7 CL   UNL     1      -5.040   6.206  -1.817  0.00  0.00    -0.084 Cl
ATOM      8  C   UNL     1       0.038   4.975  -0.766  0.00  0.00    +0.097 C 
ATOM      9  N   UNL     1       0.063   3.667  -0.784  0.00  0.00    -0.180 NA
ATOM     10  C   UNL     1       1.184   5.872  -0.503  0.00  0.00    +0.014 A 
ATOM     11  C   UNL     1       0.720   7.197  -0.583  0.00  0.00    +0.022 A 
ATOM     12  C   UNL     1       1.611   8.249  -0.376  0.00  0.00    +0.136 A 
ATOM     13  C   UNL     1       2.934   7.985  -0.087  0.00  0.00    +0.053 A 
ATOM     14  C   UNL     1       3.391   6.678  -0.012  0.00  0.00    +0.044 A 
ATOM     15  C   UNL     1       2.524   5.623  -0.218  0.00  0.00    +0.030 A 
ATOM     16 CL   UNL     1       5.062   6.367   0.343  0.00  0.00    -0.083 Cl
ENDROOT
BRANCH  12  17
ATOM     17  N   UNL     1       1.135   9.648  -0.452  0.00  0.00    +0.057 N 
ATOM     18  O   UNL     1       0.335   9.974  -1.311  0.00  0.00    -0.126 OA
ATOM     19  O   UNL     1       1.543  10.474   0.345  0.00  0.00    -0.126 OA
ENDBRANCH  12  17
BRANCH   9  20
ATOM     20  N   UNL     1      -1.059   2.951  -1.222  0.00  0.00    -0.218 N 
ATOM     21  H   UNL     1      -1.820   3.422  -1.594  0.00  0.00    +0.176 HD
BRANCH  20  22
ATOM     22  C   UNL     1      -1.080   1.607  -1.125  0.00  0.00    +0.147 C 
ATOM     23  S   UNL     1      -2.451   0.732  -1.660  0.00  0.00    -0.017 S 
BRANCH  22  24
ATOM     24  N   UNL     1      -0.022   0.951  -0.608  0.00  0.00    -0.339 N 
ATOM     25  H   UNL     1      -0.037  -0.016  -0.538  0.00  0.00    +0.144 HD
ATOM     26  H   UNL     1       0.756   1.447  -0.308  0.00  0.00    +0.144 HD
ENDBRANCH  22  24
ENDBRANCH  20  22
ENDBRANCH   9  20
TORSDOF 4
