REMARK  Name = ZINC05038095
REMARK  5 active torsions:
REMARK  status: ('A' for Active; 'I' for Inactive)
REMARK    1  A    between atoms: C_4  and  S_8
REMARK    2  A    between atoms: S_8  and  C_9
REMARK    3  A    between atoms: C_9  and  C_10
REMARK    4  A    between atoms: N_12  and  N_13
REMARK    5  A    between atoms: C_14  and  C_16
REMARK                            x       y       z     vdW  Elec       q    Type
REMARK                         _______ _______ _______ _____ _____    ______ ____
ROOT
ATOM      1  C   UNL     1       4.389   0.654  -1.938  0.00  0.00    +0.239 C 
ATOM      2  O   UNL     1       5.013   0.307  -0.957  0.00  0.00    -0.273 OA
ATOM      3  N   UNL     1       4.867   0.387  -3.170  0.00  0.00    -0.233 N 
ATOM      4  H   UNL     1       4.367   0.665  -3.954  0.00  0.00    +0.173 HD
ENDROOT
BRANCH   3   5
ATOM      5  N   UNL     1       6.084  -0.290  -3.317  0.00  0.00    -0.230 N 
ATOM      6  C   UNL     1       6.562  -0.556  -4.549  0.00  0.00    +0.260 C 
ATOM      7  O   UNL     1       5.936  -0.209  -5.532  0.00  0.00    -0.269 OA
ATOM      8  H   UNL     1       6.583  -0.567  -2.533  0.00  0.00    +0.173 HD
BRANCH   6   9
ATOM      9  C   UNL     1       7.846  -1.271  -4.705  0.00  0.00    +0.038 A 
ATOM     10  C   UNL     1       8.569  -1.666  -3.579  0.00  0.00    +0.014 A 
ATOM     11  C   UNL     1       9.764  -2.338  -3.730  0.00  0.00    +0.021 A 
ATOM     12  C   UNL     1      10.252  -2.610  -4.998  0.00  0.00    +0.041 A 
ATOM     13  C   UNL     1       9.542  -2.215  -6.119  0.00  0.00    +0.021 A 
ATOM     14  C   UNL     1       8.343  -1.548  -5.980  0.00  0.00    +0.014 A 
ATOM     15 CL   UNL     1      11.761  -3.450  -5.181  0.00  0.00    -0.084 Cl
ENDBRANCH   6   9
ENDBRANCH   3   5
BRANCH   1  16
ATOM     16  C   UNL     1       3.079   1.382  -1.779  0.00  0.00    +0.171 C 
BRANCH  16  17
ATOM     17  S   UNL     1       2.712   1.587  -0.014  0.00  0.00    -0.113 S 
BRANCH  17  21
ATOM     18  C   UNL     1      -1.247   3.790   0.033  0.00  0.00    +0.003 A 
ATOM     19  C   UNL     1      -0.061   4.502   0.026  0.00  0.00    +0.021 A 
ATOM     20  C   UNL     1       1.148   3.834   0.011  0.00  0.00    +0.056 A 
ATOM     21  C   UNL     1       1.172   2.444   0.004  0.00  0.00    +0.045 A 
ATOM     22  C   UNL     1      -0.021   1.732   0.012  0.00  0.00    +0.056 A 
ATOM     23  C   UNL     1      -1.227   2.407   0.021  0.00  0.00    +0.021 A 
ATOM     24 CL   UNL     1       0.002  -0.004   0.002  0.00  0.00    -0.082 Cl
ATOM     25 CL   UNL     1       2.636   4.729   0.001  0.00  0.00    -0.082 Cl
ENDBRANCH  17  21
ENDBRANCH  16  17
ENDBRANCH   1  16
TORSDOF 5
