REMARK  Name = ZINC35818837
REMARK  2 active torsions:
REMARK  status: ('A' for Active; 'I' for Inactive)
REMARK    1  A    between atoms: C_3  and  C_8
REMARK    2  A    between atoms: N_20  and  C_21
REMARK                            x       y       z     vdW  Elec       q    Type
REMARK                         _______ _______ _______ _____ _____    ______ ____
ROOT
ATOM      1  C   UNL     1       4.393   1.218  -0.697  0.00  0.00    +0.155 C 
ATOM      2  C   UNL     1       5.515   1.331  -1.704  0.00  0.00    +0.044 A 
ATOM      3  C   UNL     1       5.428   1.236  -3.040  0.00  0.00    +0.025 A 
ATOM      4  C   UNL     1       6.729   1.413  -3.557  0.00  0.00    +0.019 A 
ATOM      5  C   UNL     1       7.558   1.608  -2.511  0.00  0.00    +0.086 A 
ATOM      6  N   UNL     1       6.822   1.554  -1.367  0.00  0.00    -0.347 N 
ATOM      7  C   UNL     1       7.316   1.701   0.006  0.00  0.00    +0.140 C 
ATOM      8  C   UNL     1       6.141   2.035   0.932  0.00  0.00    +0.132 C 
ATOM      9  N   UNL     1       5.016   1.134   0.637  0.00  0.00    -0.271 N 
ATOM     10  C   UNL     1       4.570   0.257   1.557  0.00  0.00    +0.307 C 
ATOM     11  O   UNL     1       3.707  -0.548   1.262  0.00  0.00    -0.252 OA
ATOM     12  N   UNL     1       5.079   0.271   2.805  0.00  0.00    -0.269 N 
ATOM     13  H   UNL     1       5.729   0.946   3.056  0.00  0.00    +0.156 HD
ENDROOT
BRANCH   1  16
ATOM     14  C   UNL     1       1.474  -1.067  -1.413  0.00  0.00    +0.003 A 
ATOM     15  C   UNL     1       2.219   0.071  -1.167  0.00  0.00    +0.006 A 
ATOM     16  C   UNL     1       3.583  -0.024  -0.966  0.00  0.00    -0.018 A 
ATOM     17  C   UNL     1       4.205  -1.257  -1.011  0.00  0.00    +0.044 A 
ATOM     18  C   UNL     1       3.460  -2.398  -1.258  0.00  0.00    +0.124 A 
ATOM     19  C   UNL     1       2.094  -2.302  -1.459  0.00  0.00    +0.038 A 
ATOM     20  F   UNL     1       4.067  -3.604  -1.304  0.00  0.00    -0.205 F 
ENDBRANCH   1  16
BRANCH  12  21
ATOM     21  C   UNL     1       4.669  -0.687   3.740  0.00  0.00    +0.035 A 
ATOM     22  C   UNL     1       3.340  -1.090   3.786  0.00  0.00    +0.024 A 
ATOM     23  C   UNL     1       2.939  -2.035   4.709  0.00  0.00    +0.017 A 
ATOM     24  C   UNL     1       3.858  -2.582   5.587  0.00  0.00    +0.018 A 
ATOM     25  C   UNL     1       5.182  -2.183   5.542  0.00  0.00    +0.017 A 
ATOM     26  C   UNL     1       5.591  -1.242   4.617  0.00  0.00    +0.024 A 
ATOM     27 BR   UNL     1       3.304  -3.876   6.849  0.00  0.00    -0.050 Br
ENDBRANCH  12  21
TORSDOF 2
