REMARK  Name = ZINC20347671
REMARK  9 active torsions:
REMARK  status: ('A' for Active; 'I' for Inactive)
REMARK    1  A    between atoms: C_1  and  C_2
REMARK    2  A    between atoms: C_2  and  C_3
REMARK    3  A    between atoms: C_2  and  C_4
REMARK    4  A    between atoms: C_7  and  C_10
REMARK    5  A    between atoms: C_12  and  C_34
REMARK    6  A    between atoms: C_13  and  S_22
REMARK    7  A    between atoms: S_22  and  C_23
REMARK    8  A    between atoms: C_23  and  C_24
REMARK    9  A    between atoms: N_26  and  C_27
REMARK                            x       y       z     vdW  Elec       q    Type
REMARK                         _______ _______ _______ _____ _____    ______ ____
ROOT
ATOM      1  C   UNL     1       2.534  -0.290   2.944  0.00  0.00    +0.097 C 
ATOM      2  C   UNL     1       2.322  -1.762   3.139  0.00  0.00    +0.069 C 
ATOM      3  C   UNL     1       1.276  -2.404   2.553  0.00  0.00    +0.080 C 
ATOM      4  N   UNL     1       0.395  -1.706   1.761  0.00  0.00    -0.311 N 
ATOM      5  C   UNL     1       0.748  -0.498   1.225  0.00  0.00    +0.016 C 
ATOM      6  C   UNL     1       1.764   0.218   1.751  0.00  0.00    +0.024 C 
ATOM      7  C   UNL     1       2.133   1.461   1.207  0.00  0.00    +0.162 C 
ATOM      8  O   UNL     1       3.065   2.072   1.693  0.00  0.00    -0.292 OA
ATOM      9  C   UNL     1       1.397   2.048   0.034  0.00  0.00    +0.080 C 
ATOM     10  C   UNL     1      -0.049   1.539   0.048  0.00  0.00    +0.014 C 
ATOM     11  C   UNL     1      -0.023   0.009   0.031  0.00  0.00    +0.051 C 
ATOM     12  H   UNL     1      -0.604  -2.119   1.553  0.00  0.00    +0.152 HD
ENDROOT
BRANCH   1  16
ATOM     13  C   UNL     1       1.228   1.787   6.441  0.00  0.00    -0.045 A 
ATOM     14  C   UNL     1       2.551   1.861   6.047  0.00  0.00    +0.004 A 
ATOM     15  C   UNL     1       2.974   1.189   4.915  0.00  0.00    +0.005 A 
ATOM     16  C   UNL     1       2.073   0.443   4.178  0.00  0.00    -0.035 A 
ATOM     17  C   UNL     1       0.749   0.374   4.568  0.00  0.00    +0.005 A 
ATOM     18  C   UNL     1       0.327   1.042   5.703  0.00  0.00    +0.004 A 
BRANCH  13  20
ATOM     19  C   UNL     1      -0.322   3.526   7.294  0.00  0.00    +0.012 C 
ATOM     20  C   UNL     1       0.767   2.520   7.674  0.00  0.00    +0.013 C 
ATOM     21  C   UNL     1       0.204   1.517   8.683  0.00  0.00    +0.012 C 
ENDBRANCH  13  20
ENDBRANCH   1  16
BRANCH   2  22
ATOM     22  C   UNL     1       3.237  -2.504   3.954  0.00  0.00    +0.098 C 
ATOM     23  N   UNL     1       3.962  -3.092   4.601  0.00  0.00    -0.191 NA
ENDBRANCH   2  22
BRANCH   3  24
ATOM     24  S   UNL     1       1.049  -4.133   2.811  0.00  0.00    -0.100 S 
BRANCH  24  25
ATOM     25  C   UNL     1      -0.442  -4.405   1.821  0.00  0.00    +0.171 C 
BRANCH  25  26
ATOM     26  C   UNL     1      -0.835  -5.857   1.894  0.00  0.00    +0.227 C 
ATOM     27  O   UNL     1      -0.173  -6.633   2.551  0.00  0.00    -0.275 OA
ATOM     28  N   UNL     1      -1.923  -6.295   1.230  0.00  0.00    -0.285 N 
ATOM     29  H   UNL     1      -2.567  -5.580   0.697  0.00  0.00    +0.155 HD
BRANCH  28  30
ATOM     30  C   UNL     1      -2.234  -7.661   1.218  0.00  0.00    +0.034 A 
ATOM     31  C   UNL     1      -2.803  -8.235   0.089  0.00  0.00    +0.026 A 
ATOM     32  C   UNL     1      -3.102  -9.583   0.077  0.00  0.00    +0.040 A 
ATOM     33  C   UNL     1      -2.847 -10.360   1.195  0.00  0.00    +0.124 A 
ATOM     34  C   UNL     1      -2.286  -9.788   2.324  0.00  0.00    +0.040 A 
ATOM     35  C   UNL     1      -1.978  -8.441   2.338  0.00  0.00    +0.026 A 
ATOM     36  F   UNL     1      -3.147 -11.677   1.183  0.00  0.00    -0.205 F 
ENDBRANCH  28  30
ENDBRANCH  25  26
ENDBRANCH  24  25
ENDBRANCH   3  24
TORSDOF 7
