REMARK  Name = ZINC16662293
REMARK  7 active torsions:
REMARK  status: ('A' for Active; 'I' for Inactive)
REMARK    1  A    between atoms: C_1  and  C_2
REMARK    2  A    between atoms: C_4  and  C_14
REMARK    3  A    between atoms: C_5  and  C_13
REMARK    4  A    between atoms: N_6  and  C_7
REMARK    5  A    between atoms: N_15  and  N_16
REMARK    6  A    between atoms: C_17  and  C_19
REMARK    7  A    between atoms: C_28  and  O_29
REMARK                            x       y       z     vdW  Elec       q    Type
REMARK                         _______ _______ _______ _____ _____    ______ ____
ROOT
ATOM      1  N   UNL     1      -6.117   7.246  -1.034  0.00  0.00    -0.203 N 
ATOM      2  C   UNL     1      -7.272   7.883  -1.313  0.00  0.00    +0.267 C 
ATOM      3  O   UNL     1      -8.334   7.383  -0.995  0.00  0.00    -0.268 OA
ATOM      4  H   UNL     1      -5.269   7.677  -1.219  0.00  0.00    +0.178 HD
ENDROOT
BRANCH   2   5
ATOM      5  C   UNL     1      -7.247   9.186  -2.005  0.00  0.00    +0.080 A 
ATOM      6  C   UNL     1      -6.035   9.804  -2.266  0.00  0.00    +0.025 A 
ATOM      7  C   UNL     1      -6.018  11.044  -2.919  0.00  0.00    -0.017 A 
ATOM      8  C   UNL     1      -4.805  11.702  -3.196  0.00  0.00    +0.008 A 
ATOM      9  C   UNL     1      -4.821  12.903  -3.836  0.00  0.00    +0.001 A 
ATOM     10  C   UNL     1      -6.023  13.493  -4.223  0.00  0.00    +0.001 A 
ATOM     11  C   UNL     1      -7.215  12.887  -3.973  0.00  0.00    +0.008 A 
ATOM     12  C   UNL     1      -7.241  11.646  -3.314  0.00  0.00    -0.014 A 
ATOM     13  C   UNL     1      -8.457  10.996  -3.042  0.00  0.00    +0.054 A 
ATOM     14  C   UNL     1      -8.458   9.792  -2.402  0.00  0.00    +0.130 A 
BRANCH  14  15
ATOM     15  O   UNL     1      -9.637   9.171  -2.143  0.00  0.00    -0.506 OA
ATOM     16  H   UNL     1      -9.931   8.576  -2.846  0.00  0.00    +0.292 HD
ENDBRANCH  14  15
ENDBRANCH   2   5
BRANCH   1  18
ATOM     17  C   UNL     1      -5.035   5.382  -0.128  0.00  0.00    +0.140 C 
ATOM     18  N   UNL     1      -6.143   5.962  -0.475  0.00  0.00    -0.187 NA
BRANCH  17  22
ATOM     19  C   UNL     1      -1.665   9.215  -0.004  0.00  0.00    +0.064 C 
ATOM     20  C   UNL     1      -2.299   7.850  -0.079  0.00  0.00    +0.022 A 
ATOM     21  C   UNL     1      -3.620   7.597  -0.027  0.00  0.00    +0.032 A 
ATOM     22  C   UNL     1      -3.772   6.143  -0.136  0.00  0.00    +0.016 A 
ATOM     23  C   UNL     1      -2.509   5.633  -0.241  0.00  0.00    +0.030 A 
ATOM     24  N   UNL     1      -1.627   6.669  -0.212  0.00  0.00    -0.317 N 
ATOM     25  C   UNL     1      -2.154   4.174  -0.370  0.00  0.00    +0.064 C 
BRANCH  24  26
ATOM     26  C   UNL     1      -0.234   6.542  -0.299  0.00  0.00    +0.047 A 
ATOM     27  C   UNL     1       0.348   6.056  -1.461  0.00  0.00    +0.026 A 
ATOM     28  C   UNL     1       1.722   5.936  -1.546  0.00  0.00    +0.002 A 
ATOM     29  C   UNL     1       2.515   6.290  -0.470  0.00  0.00    +0.000 A 
ATOM     30  C   UNL     1       1.938   6.769   0.692  0.00  0.00    +0.002 A 
ATOM     31  C   UNL     1       0.565   6.895   0.780  0.00  0.00    +0.026 A 
ENDBRANCH  24  26
ENDBRANCH  17  22
ENDBRANCH   1  18
TORSDOF 5
