REMARK  Name = ZINC56854780
REMARK  6 active torsions:
REMARK  status: ('A' for Active; 'I' for Inactive)
REMARK    1  A    between atoms: C_1  and  C_2
REMARK    2  A    between atoms: C_2  and  C_4
REMARK    3  A    between atoms: C_2  and  N_13
REMARK    4  A    between atoms: C_4  and  O_5
REMARK    5  A    between atoms: O_5  and  C_6
REMARK    6  A    between atoms: C_19  and  C_22
REMARK                            x       y       z     vdW  Elec       q    Type
REMARK                         _______ _______ _______ _____ _____    ______ ____
ROOT
ATOM      1  N   UNL     1      -1.465  -0.307  -2.311  0.00  0.00    -0.293 N 
ATOM      2  C   UNL     1      -2.051  -0.643  -1.145  0.00  0.00    +0.303 C 
ATOM      3  O   UNL     1      -1.410  -0.611  -0.112  0.00  0.00    -0.253 OA
ATOM      4  N   UNL     1      -3.346  -1.013  -1.123  0.00  0.00    -0.286 N 
ATOM      5  C   UNL     1      -4.031  -1.270   0.151  0.00  0.00    +0.110 C 
ATOM      6  C   UNL     1      -5.304  -0.420   0.207  0.00  0.00    +0.032 C 
ATOM      7  C   UNL     1      -6.157  -0.704  -1.032  0.00  0.00    +0.078 C 
ATOM      8  C   UNL     1      -5.374  -0.320  -2.290  0.00  0.00    +0.032 C 
ATOM      9  C   UNL     1      -4.103  -1.162  -2.374  0.00  0.00    +0.110 C 
ATOM     10  H   UNL     1      -1.953  -0.402  -3.144  0.00  0.00    +0.151 HD
ENDROOT
BRANCH   7  11
ATOM     11  C   UNL     1      -7.426   0.105  -0.964  0.00  0.00    +0.200 A 
ATOM     12  N   UNL     1      -7.479   1.402  -0.915  0.00  0.00    -0.213 NA
ATOM     13  C   UNL     1      -8.783   1.787  -0.862  0.00  0.00    +0.110 A 
ATOM     14  C   UNL     1      -9.423   3.026  -0.798  0.00  0.00    +0.031 A 
ATOM     15  C   UNL     1     -10.798   3.082  -0.755  0.00  0.00    +0.002 A 
ATOM     16  C   UNL     1     -11.550   1.917  -0.774  0.00  0.00    +0.004 A 
ATOM     17  C   UNL     1     -10.931   0.686  -0.837  0.00  0.00    +0.048 A 
ATOM     18  C   UNL     1      -9.547   0.610  -0.882  0.00  0.00    +0.155 A 
ATOM     19  O   UNL     1      -8.665  -0.411  -0.951  0.00  0.00    -0.439 OA
ENDBRANCH   7  11
BRANCH   1  21
ATOM     20  C   UNL     1       0.888  -0.974  -2.337  0.00  0.00    +0.031 C 
ATOM     21  C   UNL     1      -0.091   0.201  -2.321  0.00  0.00    +0.109 C 
BRANCH  21  22
ATOM     22  C   UNL     1       0.125   1.062  -3.568  0.00  0.00    +0.251 C 
BRANCH  22  23
ATOM     23  O   UNL     1       0.016   0.245  -4.735  0.00  0.00    -0.487 OA
BRANCH  23  24
ATOM     24  C   UNL     1       0.183   0.859  -5.937  0.00  0.00    +0.156 A 
ATOM     25  C   UNL     1       0.452   2.218  -5.990  0.00  0.00    +0.048 A 
ATOM     26  C   UNL     1       0.621   2.841  -7.212  0.00  0.00    +0.004 A 
ATOM     27  C   UNL     1       0.522   2.110  -8.382  0.00  0.00    +0.003 A 
ATOM     28  C   UNL     1       0.254   0.755  -8.333  0.00  0.00    +0.042 A 
ATOM     29  C   UNL     1       0.090   0.125  -7.112  0.00  0.00    +0.165 A 
ATOM     30  F   UNL     1      -0.167  -1.200  -7.064  0.00  0.00    -0.202 F 
ENDBRANCH  23  24
ENDBRANCH  22  23
ENDBRANCH  21  22
ENDBRANCH   1  21
TORSDOF 5
