REMARK  Name = ZINC13041286
REMARK  8 active torsions:
REMARK  status: ('A' for Active; 'I' for Inactive)
REMARK    1  A    between atoms: C_1  and  C_2
REMARK    2  A    between atoms: C_2  and  C_3
REMARK    3  A    between atoms: C_2  and  C_4
REMARK    4  A    between atoms: C_7  and  C_10
REMARK    5  A    between atoms: C_10  and  C_28
REMARK    6  A    between atoms: N_13  and  C_17
REMARK    7  A    between atoms: C_17  and  C_18
REMARK    8  A    between atoms: C_21  and  C_23
REMARK                            x       y       z     vdW  Elec       q    Type
REMARK                         _______ _______ _______ _____ _____    ______ ____
ROOT
ATOM      1  C   UNL     1      -0.729   1.579   1.267  0.00  0.00    +0.135 C 
ATOM      2  C   UNL     1      -2.175   1.127   1.270  0.00  0.00    +0.251 C 
ATOM      3  O   UNL     1      -2.586  -0.014   1.272  0.00  0.00    -0.272 OA
ATOM      4  N   UNL     1      -2.911   2.256   1.269  0.00  0.00    -0.218 N 
ATOM      5  C   UNL     1      -2.138   3.348   1.267  0.00  0.00    +0.310 C 
ATOM      6  O   UNL     1      -2.572   4.483   1.266  0.00  0.00    -0.252 OA
ATOM      7  N   UNL     1      -0.823   3.049   1.267  0.00  0.00    -0.281 N 
ATOM      8  C   UNL     1      -0.013   1.086   0.008  0.00  0.00    +0.047 C 
ATOM      9  H   UNL     1      -0.083   3.677   1.268  0.00  0.00    +0.152 HD
ENDROOT
BRANCH   1  13
ATOM     10  C   UNL     1       1.283   0.201   4.774  0.00  0.00    -0.045 A 
ATOM     11  C   UNL     1       1.646   1.404   4.197  0.00  0.00    +0.004 A 
ATOM     12  C   UNL     1       0.995   1.850   3.062  0.00  0.00    +0.006 A 
ATOM     13  C   UNL     1      -0.019   1.093   2.504  0.00  0.00    -0.015 A 
ATOM     14  C   UNL     1      -0.385  -0.107   3.084  0.00  0.00    +0.006 A 
ATOM     15  C   UNL     1       0.270  -0.555   4.216  0.00  0.00    +0.004 A 
BRANCH  10  17
ATOM     16  C   UNL     1       0.984  -0.445   7.149  0.00  0.00    +0.012 C 
ATOM     17  C   UNL     1       1.994  -0.285   6.011  0.00  0.00    +0.013 C 
ATOM     18  C   UNL     1       2.655  -1.634   5.722  0.00  0.00    +0.012 C 
ENDBRANCH  10  17
ENDBRANCH   1  13
BRANCH   4  19
ATOM     19  C   UNL     1      -4.375   2.284   1.271  0.00  0.00    +0.176 C 
BRANCH  19  20
ATOM     20  C   UNL     1      -4.876   2.295   2.692  0.00  0.00    +0.098 A 
ATOM     21  C   UNL     1      -5.203   3.386   3.408  0.00  0.00    +0.222 A 
ATOM     22  O   UNL     1      -5.605   2.963   4.624  0.00  0.00    -0.443 OA
ATOM     23  C   UNL     1      -5.512   1.621   4.641  0.00  0.00    +0.234 A 
ATOM     24  N   UNL     1      -5.070   1.219   3.470  0.00  0.00    -0.212 NA
BRANCH  23  25
ATOM     25  C   UNL     1      -5.847   0.751   5.778  0.00  0.00    +0.074 A 
ATOM     26  C   UNL     1      -6.314   1.097   7.032  0.00  0.00    +0.021 A 
ATOM     27  C   UNL     1      -6.558   0.093   7.940  0.00  0.00    +0.008 A 
ATOM     28  C   UNL     1      -6.335  -1.198   7.579  0.00  0.00    +0.046 A 
ATOM     29  S   UNL     1      -5.764  -1.029   5.896  0.00  0.00    -0.092 S 
ENDBRANCH  23  25
ENDBRANCH  19  20
ENDBRANCH   4  19
TORSDOF 5
