REMARK  Name = ZINC23369536
REMARK  6 active torsions:
REMARK  status: ('A' for Active; 'I' for Inactive)
REMARK    1  A    between atoms: C_1  and  N_2
REMARK    2  A    between atoms: C_3  and  C_5
REMARK    3  A    between atoms: C_8  and  C_10
REMARK    4  A    between atoms: N_15  and  C_16
REMARK    5  A    between atoms: C_16  and  C_17
REMARK    6  A    between atoms: C_20  and  C_22
REMARK                            x       y       z     vdW  Elec       q    Type
REMARK                         _______ _______ _______ _____ _____    ______ ____
ROOT
ATOM      1  C   UNL     1      -1.166  -0.956   0.008  0.00  0.00    -0.030 C 
ATOM      2  C   UNL     1      -1.777  -1.052   1.429  0.00  0.00    -0.012 C 
ATOM      3  C   UNL     1      -3.229  -1.503   1.115  0.00  0.00    -0.020 C 
ATOM      4  C   UNL     1      -3.547  -0.765  -0.203  0.00  0.00    -0.078 C 
ATOM      5  N   UNL     1      -2.259  -0.436  -0.841  0.00  0.00    +0.388 N 
ATOM      6  H   UNL     1      -2.165   0.656  -0.943  0.00  0.00    -0.080 HD
ENDROOT
BRANCH   1  10
ATOM      7  C   UNL     1       1.739   2.021  -0.004  0.00  0.00    +0.074 A 
ATOM      8  C   UNL     1       2.241   0.730  -0.015  0.00  0.00    +0.021 A 
ATOM      9  C   UNL     1       1.329  -0.296  -0.012  0.00  0.00    +0.010 A 
ATOM     10  C   UNL     1       0.002  -0.004   0.002  0.00  0.00    -0.023 A 
ATOM     11  S   UNL     1      -0.021   1.729   0.012  0.00  0.00    -0.090 S 
BRANCH   7  14
ATOM     12  C   UNL     1       2.508   5.731   0.008  0.00  0.00    +0.128 C 
ATOM     13  N   UNL     1       1.783   4.458   0.009  0.00  0.00    -0.314 N 
ATOM     14  C   UNL     1       2.464   3.295  -0.004  0.00  0.00    +0.250 C 
ATOM     15  O   UNL     1       3.681   3.302  -0.016  0.00  0.00    -0.270 OA
ATOM     16  H   UNL     1       0.683   4.452   0.019  0.00  0.00    +0.149 HD
ENDBRANCH   7  14
ENDBRANCH   1  10
BRANCH   5  17
ATOM     17  C   UNL     1      -2.184  -0.996  -2.197  0.00  0.00    -0.035 C 
BRANCH  17  18
ATOM     18  C   UNL     1      -3.150  -0.267  -3.095  0.00  0.00    -0.026 A 
ATOM     19  C   UNL     1      -2.942   0.842  -3.851  0.00  0.00    +0.010 A 
ATOM     20  C   UNL     1      -3.978   1.344  -4.606  0.00  0.00    +0.018 A 
ATOM     21  C   UNL     1      -5.190   0.704  -4.569  0.00  0.00    +0.039 A 
ATOM     22  S   UNL     1      -4.859  -0.644  -3.446  0.00  0.00    -0.094 S 
BRANCH  21  23
ATOM     23  C   UNL     1      -6.439   1.039  -5.276  0.00  0.00    +0.099 A 
ATOM     24  C   UNL     1      -7.632   0.350  -5.203  0.00  0.00    +0.049 A 
ATOM     25  C   UNL     1      -8.547   1.001  -6.029  0.00  0.00    +0.105 A 
ATOM     26  N   UNL     1      -7.959   2.034  -6.575  0.00  0.00    -0.284 N 
ATOM     27  N   UNL     1      -6.634   2.089  -6.125  0.00  0.00    -0.173 NA
ATOM     28  H   UNL     1      -8.518   2.685  -7.264  0.00  0.00    +0.188 HD
ENDBRANCH  21  23
ENDBRANCH  17  18
ENDBRANCH   5  17
TORSDOF 5
