REMARK  Name = ZINC32124137
REMARK  5 active torsions:
REMARK  status: ('A' for Active; 'I' for Inactive)
REMARK    1  A    between atoms: C_1  and  C_2
REMARK    2  A    between atoms: C_3  and  O_26
REMARK    3  A    between atoms: C_5  and  C_20
REMARK    4  A    between atoms: C_9  and  C_13
REMARK    5  A    between atoms: C_14  and  O_19
REMARK                            x       y       z     vdW  Elec       q    Type
REMARK                         _______ _______ _______ _____ _____    ______ ____
ROOT
ATOM      1  C   UNL     1      -0.019   1.526   0.010  0.00  0.00    +0.013 C 
ATOM      2  C   UNL     1       0.002  -0.004   0.002  0.00  0.00    -0.007 C 
ATOM      3  C   UNL     1       0.722  -0.513  -1.253  0.00  0.00    +0.130 C 
ATOM      4  C   UNL     1       0.720  -2.047  -1.224  0.00  0.00    +0.020 C 
ATOM      5  C   UNL     1       1.425  -2.515   0.054  0.00  0.00    -0.061 C 
ATOM      6  N   UNL     1       0.707  -2.006   1.227  0.00  0.00    +0.394 N 
ATOM      7  C   UNL     1       0.741  -0.526   1.239  0.00  0.00    -0.066 C 
ATOM      8  C   UNL     1      -0.676  -2.492   1.226  0.00  0.00    +0.037 C 
ATOM      9  N   UNL     1      -1.379  -2.019   0.026  0.00  0.00    -0.310 NA
ATOM     10  C   UNL     1      -1.431  -0.549   0.018  0.00  0.00    +0.090 C 
ATOM     11  C   UNL     1      -0.733  -2.536  -1.190  0.00  0.00    +0.095 C 
ATOM     12  H   UNL     1       1.161  -2.347   2.061  0.00  0.00    -0.079 HD
ENDROOT
BRANCH   8  13
ATOM     13  C   UNL     1      -0.677  -3.999   1.244  0.00  0.00    -0.006 A 
ATOM     14  C   UNL     1      -1.761  -4.699   0.735  0.00  0.00    +0.120 A 
ATOM     15  C   UNL     1      -1.758  -6.086   0.753  0.00  0.00    +0.045 A 
ATOM     16  C   UNL     1      -0.676  -6.767   1.277  0.00  0.00    +0.004 A 
ATOM     17  C   UNL     1       0.403  -6.067   1.784  0.00  0.00    +0.000 A 
ATOM     18  C   UNL     1       0.405  -4.684   1.762  0.00  0.00    +0.007 A 
BRANCH  14  19
ATOM     19  O   UNL     1      -2.824  -4.027   0.220  0.00  0.00    -0.507 OA
ATOM     20  H   UNL     1      -2.751  -3.842  -0.727  0.00  0.00    +0.292 HD
ENDBRANCH  14  19
ENDBRANCH   8  13
BRANCH   4  21
ATOM     21  C   UNL     1       1.419  -2.588  -2.444  0.00  0.00    -0.039 A 
ATOM     22  C   UNL     1       1.950  -1.719  -3.379  0.00  0.00    +0.004 A 
ATOM     23  C   UNL     1       2.591  -2.215  -4.499  0.00  0.00    +0.000 A 
ATOM     24  C   UNL     1       2.703  -3.580  -4.683  0.00  0.00    +0.000 A 
ATOM     25  C   UNL     1       2.173  -4.450  -3.748  0.00  0.00    +0.000 A 
ATOM     26  C   UNL     1       1.536  -3.953  -2.626  0.00  0.00    +0.004 A 
ENDBRANCH   4  21
BRANCH   3  27
ATOM     27  O   UNL     1       2.068  -0.033  -1.264  0.00  0.00    -0.390 OA
ATOM     28  H   UNL     1       2.142   0.931  -1.266  0.00  0.00    +0.210 HD
ENDBRANCH   3  27
TORSDOF 4
