REMARK  Name = ZINC09507302
REMARK  13 active torsions:
REMARK  status: ('A' for Active; 'I' for Inactive)
REMARK    1  A    between atoms: C_1  and  C_2
REMARK    2  A    between atoms: C_2  and  C_3
REMARK    3  A    between atoms: C_2  and  C_4
REMARK    4  A    between atoms: C_4  and  N_5
REMARK    5  A    between atoms: C_6  and  N_32
REMARK    6  A    between atoms: C_7  and  C_14
REMARK    7  A    between atoms: N_10  and  C_13
REMARK    8  A    between atoms: C_14  and  C_16
REMARK    9  A    between atoms: C_16  and  S_17
REMARK   10  A    between atoms: S_17  and  C_18
REMARK   11  A    between atoms: N_23  and  C_24
REMARK   12  A    between atoms: C_27  and  O_30
REMARK   13  A    between atoms: O_30  and  C_31
REMARK                            x       y       z     vdW  Elec       q    Type
REMARK                         _______ _______ _______ _____ _____    ______ ____
ROOT
ATOM      1  C   UNL     1       5.368  -7.287  -0.853  0.00  0.00    +0.182 C 
ATOM      2  O   UNL     1       6.215  -6.552  -0.386  0.00  0.00    -0.291 OA
ENDROOT
BRANCH   1   5
ATOM      3  N   UNL     1       2.669  -4.912  -1.665  0.00  0.00    -0.281 N 
ATOM      4  C   UNL     1       3.856  -5.385  -1.183  0.00  0.00    +0.116 A 
ATOM      5  C   UNL     1       4.157  -6.749  -1.338  0.00  0.00    +0.120 A 
ATOM      6  C   UNL     1       3.174  -7.595  -2.027  0.00  0.00    +0.269 A 
ATOM      7  O   UNL     1       3.385  -8.782  -2.193  0.00  0.00    -0.267 OA
ATOM      8  N   UNL     1       2.033  -7.029  -2.470  0.00  0.00    -0.263 N 
ATOM      9  C   UNL     1       1.797  -5.720  -2.289  0.00  0.00    +0.333 A 
ATOM     10  O   UNL     1       0.757  -5.249  -2.705  0.00  0.00    -0.246 OA
ATOM     11  C   UNL     1       1.037  -7.854  -3.160  0.00  0.00    +0.157 C 
BRANCH   4  12
ATOM     12  N   UNL     1       4.730  -4.550  -0.558  0.00  0.00    -0.344 N 
ATOM     13  H   UNL     1       4.718  -3.600  -0.755  0.00  0.00    +0.144 HD
ATOM     14  H   UNL     1       5.365  -4.905   0.084  0.00  0.00    +0.144 HD
ENDBRANCH   4  12
BRANCH   3  15
ATOM     15  C   UNL     1       2.343  -3.492  -1.504  0.00  0.00    +0.131 C 
BRANCH  15  17
ATOM     16  C   UNL     1       1.145  -1.829  -0.075  0.00  0.00    +0.009 C 
ATOM     17  C   UNL     1       1.595  -3.288  -0.185  0.00  0.00    +0.003 C 
ATOM     18  C   UNL     1       2.521  -3.626   0.985  0.00  0.00    +0.009 C 
ENDBRANCH  15  17
ENDBRANCH   3  15
ENDBRANCH   1   5
BRANCH   1  19
ATOM     19  C   UNL     1       5.610  -8.773  -0.913  0.00  0.00    +0.156 C 
BRANCH  19  20
ATOM     20  S   UNL     1       7.244  -9.148  -0.219  0.00  0.00    -0.089 S 
BRANCH  20  21
ATOM     21  C   UNL     1       7.375 -10.900  -0.360  0.00  0.00    +0.160 A 
ATOM     22  N   UNL     1       6.506 -11.767  -0.845  0.00  0.00    -0.133 NA
ATOM     23  N   UNL     1       6.816 -13.107  -0.865  0.00  0.00    -0.125 NA
ATOM     24  C   UNL     1       7.974 -13.520  -0.389  0.00  0.00    +0.187 A 
ATOM     25  S   UNL     1       8.715 -11.977   0.122  0.00  0.00    -0.024 S 
ATOM     26  N   UNL     1       8.483 -14.811  -0.306  0.00  0.00    -0.292 N 
ATOM     27  H   UNL     1       9.325 -14.973   0.148  0.00  0.00    +0.154 HD
BRANCH  26  28
ATOM     28  C   UNL     1       7.780 -15.878  -0.878  0.00  0.00    +0.033 A 
ATOM     29  C   UNL     1       7.967 -17.169  -0.401  0.00  0.00    +0.027 A 
ATOM     30  C   UNL     1       7.269 -18.220  -0.962  0.00  0.00    +0.047 A 
ATOM     31  C   UNL     1       6.389 -17.988  -2.010  0.00  0.00    +0.120 A 
ATOM     32  C   UNL     1       6.206 -16.700  -2.490  0.00  0.00    +0.047 A 
ATOM     33  C   UNL     1       6.899 -15.647  -1.927  0.00  0.00    +0.027 A 
BRANCH  31  34
ATOM     34  O   UNL     1       5.706 -19.025  -2.565  0.00  0.00    -0.495 OA
ATOM     35  C   UNL     1       5.944 -20.325  -2.020  0.00  0.00    +0.277 C 
ENDBRANCH  31  34
ENDBRANCH  26  28
ENDBRANCH  20  21
ENDBRANCH  19  20
ENDBRANCH   1  19
TORSDOF 9
