REMARK  Name = ZINC33960541
REMARK  9 active torsions:
REMARK  status: ('A' for Active; 'I' for Inactive)
REMARK    1  A    between atoms: C_1  and  C_2
REMARK    2  A    between atoms: C_6  and  N_8
REMARK    3  A    between atoms: C_9  and  C_11
REMARK    4  A    between atoms: C_14  and  C_35
REMARK    5  A    between atoms: C_15  and  C_16
REMARK    6  A    between atoms: C_15  and  C_17
REMARK    7  A    between atoms: N_19  and  O_20
REMARK    8  A    between atoms: O_20  and  C_21
REMARK    9  A    between atoms: C_21  and  C_23
REMARK                            x       y       z     vdW  Elec       q    Type
REMARK                         _______ _______ _______ _____ _____    ______ ____
ROOT
ATOM      1  C   UNL     1      -0.129  -4.898   3.686  0.00  0.00    +0.058 C 
ATOM      2  C   UNL     1      -1.382  -4.595   4.563  0.00  0.00    +0.018 C 
ATOM      3  C   UNL     1      -1.483  -5.803   5.522  0.00  0.00    +0.014 C 
ATOM      4  C   UNL     1      -0.287  -6.721   5.125  0.00  0.00    +0.015 C 
ATOM      5  C   UNL     1      -0.222  -6.462   3.579  0.00  0.00    -0.010 C 
ATOM      6  C   UNL     1      -1.506  -6.916   2.882  0.00  0.00    +0.013 C 
ATOM      7  C   UNL     1       1.022  -7.070   2.928  0.00  0.00    +0.013 C 
ATOM      8  C   UNL     1       0.958  -5.959   5.599  0.00  0.00    +0.066 C 
ATOM      9  N   UNL     1       1.734  -6.267   6.568  0.00  0.00    -0.083 NA
ATOM     10  C   UNL     1       1.087  -4.759   4.653  0.00  0.00    +0.071 C 
ATOM     11  C   UNL     1      -0.396  -8.184   5.559  0.00  0.00    +0.018 C 
ENDROOT
BRANCH   1  13
ATOM     12  N   UNL     1       0.052  -2.797   2.393  0.00  0.00    -0.285 N 
ATOM     13  C   UNL     1      -0.031  -4.143   2.385  0.00  0.00    +0.224 C 
ATOM     14  O   UNL     1      -0.028  -4.745   1.333  0.00  0.00    -0.275 OA
ATOM     15  H   UNL     1       0.127  -2.321   3.234  0.00  0.00    +0.155 HD
BRANCH  12  21
ATOM     16  C   UNL     1       1.524   1.061  -0.275  0.00  0.00    +0.044 C 
ATOM     17  C   UNL     1       0.735  -0.215  -0.134  0.00  0.00    -0.049 A 
ATOM     18  C   UNL     1      -0.011  -0.687  -1.199  0.00  0.00    +0.003 A 
ATOM     19  C   UNL     1      -0.736  -1.857  -1.074  0.00  0.00    +0.002 A 
ATOM     20  C   UNL     1      -0.717  -2.559   0.116  0.00  0.00    +0.023 A 
ATOM     21  C   UNL     1       0.031  -2.089   1.186  0.00  0.00    +0.034 A 
ATOM     22  C   UNL     1       0.763  -0.915   1.056  0.00  0.00    +0.026 A 
ENDBRANCH  12  21
ENDBRANCH   1  13
BRANCH   9  23
ATOM     23  O   UNL     1       2.848  -5.446   6.872  0.00  0.00    -0.312 OA
BRANCH  23  24
ATOM     24  C   UNL     1       3.582  -5.882   7.914  0.00  0.00    +0.373 C 
ATOM     25  O   UNL     1       3.263  -6.898   8.500  0.00  0.00    -0.242 OA
BRANCH  24  26
ATOM     26  C   UNL     1       4.771  -5.128   8.343  0.00  0.00    +0.146 A 
ATOM     27  C   UNL     1       5.550  -5.556   9.411  0.00  0.00    +0.033 A 
ATOM     28  C   UNL     1       6.662  -4.759   9.785  0.00  0.00    +0.018 A 
ATOM     29  C   UNL     1       7.598  -5.235  10.716  0.00  0.00    +0.011 A 
ATOM     30  C   UNL     1       8.685  -4.474  11.035  0.00  0.00    +0.001 A 
ATOM     31  C   UNL     1       8.870  -3.228  10.452  0.00  0.00    +0.004 A 
ATOM     32  C   UNL     1       7.953  -2.731   9.549  0.00  0.00    +0.047 A 
ATOM     33  C   UNL     1       6.836  -3.485   9.214  0.00  0.00    +0.139 A 
ATOM     34  O   UNL     1       5.906  -2.990   8.362  0.00  0.00    -0.422 OA
ATOM     35  C   UNL     1       5.184  -3.892   7.654  0.00  0.00    +0.352 A 
ATOM     36  O   UNL     1       4.885  -3.689   6.492  0.00  0.00    -0.244 OA
ENDBRANCH  24  26
ENDBRANCH  23  24
ENDBRANCH   9  23
TORSDOF 5
