REMARK  Name = ZINC63515279
REMARK  8 active torsions:
REMARK  status: ('A' for Active; 'I' for Inactive)
REMARK    1  A    between atoms: C_1  and  C_2
REMARK    2  A    between atoms: C_2  and  C_21
REMARK    3  A    between atoms: C_3  and  C_19
REMARK    4  A    between atoms: C_3  and  O_20
REMARK    5  A    between atoms: N_4  and  C_8
REMARK    6  A    between atoms: C_8  and  C_9
REMARK    7  A    between atoms: C_9  and  C_10
REMARK    8  A    between atoms: C_21  and  C_22
REMARK                            x       y       z     vdW  Elec       q    Type
REMARK                         _______ _______ _______ _____ _____    ______ ____
ROOT
ATOM      1  C   UNL     1      -0.019   1.526   0.010  0.00  0.00    +0.061 C 
ATOM      2  C   UNL     1       0.002  -0.004   0.002  0.00  0.00    +0.161 C 
ATOM      3  C   UNL     1      -1.426  -0.577   0.161  0.00  0.00    +0.175 C 
ATOM      4  N   UNL     1      -1.196  -1.757   1.018  0.00  0.00    -0.236 N 
ATOM      5  C   UNL     1       0.038  -1.647   1.544  0.00  0.00    +0.406 C 
ATOM      6  O   UNL     1       0.534  -2.481   2.275  0.00  0.00    -0.226 OA
ATOM      7  O   UNL     1       0.663  -0.516   1.175  0.00  0.00    -0.439 OA
ATOM      8  C   UNL     1      -2.343   0.431   0.858  0.00  0.00    +0.068 C 
ENDROOT
BRANCH   3   9
ATOM      9  O   UNL     1      -1.963  -0.964  -1.105  0.00  0.00    -0.368 OA
ATOM     10  H   UNL     1      -2.857  -1.329  -1.058  0.00  0.00    +0.212 HD
ENDBRANCH   3   9
BRANCH   4  11
ATOM     11  C   UNL     1      -2.140  -2.852   1.252  0.00  0.00    +0.118 C 
BRANCH  11  12
ATOM     12  C   UNL     1      -1.923  -3.946   0.204  0.00  0.00    +0.066 C 
BRANCH  12  13
ATOM     13  C   UNL     1      -2.910  -5.090   0.449  0.00  0.00    +0.175 C 
ATOM     14  N   UNL     1      -2.655  -5.704   1.758  0.00  0.00    -0.363 N 
ATOM     15  C   UNL     1      -2.350  -6.952   1.551  0.00  0.00    +0.060 A 
ATOM     16  C   UNL     1      -1.999  -8.058   2.453  0.00  0.00    +0.027 A 
ATOM     17  C   UNL     1      -1.726  -9.274   1.940  0.00  0.00    +0.002 A 
ATOM     18  C   UNL     1      -1.760  -9.539   0.559  0.00  0.00    +0.002 A 
ATOM     19  C   UNL     1      -2.069  -8.597  -0.354  0.00  0.00    +0.027 A 
ATOM     20  C   UNL     1      -2.387  -7.233   0.090  0.00  0.00    +0.060 A 
ATOM     21  N   UNL     1      -2.713  -6.147  -0.550  0.00  0.00    -0.363 N 
ATOM     22  H   UNL     1      -2.704  -5.260   2.619  0.00  0.00    +0.162 HD
ATOM     23  H   UNL     1      -2.809  -6.054  -1.511  0.00  0.00    +0.162 HD
ENDBRANCH  12  13
ENDBRANCH  11  12
ENDBRANCH   4  11
BRANCH   2  24
ATOM     24  C   UNL     1       0.664  -0.532  -1.272  0.00  0.00    +0.087 C 
BRANCH  24  25
ATOM     25  C   UNL     1       2.076  -0.013  -1.357  0.00  0.00    -0.043 A 
ATOM     26  C   UNL     1       2.334   1.189  -1.990  0.00  0.00    +0.004 A 
ATOM     27  C   UNL     1       3.630   1.665  -2.068  0.00  0.00    +0.000 A 
ATOM     28  C   UNL     1       4.667   0.940  -1.512  0.00  0.00    +0.000 A 
ATOM     29  C   UNL     1       4.409  -0.261  -0.877  0.00  0.00    +0.000 A 
ATOM     30  C   UNL     1       3.113  -0.735  -0.796  0.00  0.00    +0.004 A 
ENDBRANCH  24  25
ENDBRANCH   2  24
TORSDOF 6
