REMARK  Name = ZINC20058163
REMARK  6 active torsions:
REMARK  status: ('A' for Active; 'I' for Inactive)
REMARK    1  A    between atoms: C_1  and  C_2
REMARK    2  A    between atoms: C_5  and  C_8
REMARK    3  A    between atoms: C_11  and  C_26
REMARK    4  A    between atoms: C_19  and  C_21
REMARK    5  A    between atoms: C_21  and  C_22
REMARK    6  A    between atoms: C_22  and  C_23
REMARK                            x       y       z     vdW  Elec       q    Type
REMARK                         _______ _______ _______ _____ _____    ______ ____
ROOT
ATOM      1  C   UNL     1       0.059  -4.275  -0.021  0.00  0.00    +0.147 C 
ATOM      2  C   UNL     1      -1.170  -4.814   0.719  0.00  0.00    +0.087 C 
ATOM      3  C   UNL     1      -0.995  -4.705   2.208  0.00  0.00    +0.055 C 
ATOM      4  N   UNL     1       0.166  -4.842   2.791  0.00  0.00    -0.215 NA
ATOM      5  C   UNL     1       1.270  -5.016   2.017  0.00  0.00    +0.251 A 
ATOM      6  N   UNL     1       1.253  -4.758   0.672  0.00  0.00    -0.220 N 
ATOM      7  N   UNL     1       2.527  -5.043   0.192  0.00  0.00    -0.131 NA
ATOM      8  C   UNL     1       3.246  -5.427   1.228  0.00  0.00    +0.242 A 
ATOM      9  N   UNL     1       2.483  -5.400   2.330  0.00  0.00    -0.176 NA
ATOM     10  N   UNL     1       4.591  -5.806   1.183  0.00  0.00    -0.253 N 
ATOM     11  C   UNL     1       5.223  -6.182   2.312  0.00  0.00    +0.220 C 
ATOM     12  O   UNL     1       4.625  -6.192   3.367  0.00  0.00    -0.275 OA
ATOM     13  H   UNL     1       5.069  -5.798   0.339  0.00  0.00    +0.158 HD
ENDROOT
BRANCH   1  18
ATOM     14  C   UNL     1      -0.018   1.503   0.010  0.00  0.00    +0.044 C 
ATOM     15  C   UNL     1       0.002  -0.004   0.002  0.00  0.00    -0.050 A 
ATOM     16  C   UNL     1       0.006  -0.689  -1.199  0.00  0.00    +0.004 A 
ATOM     17  C   UNL     1       0.025  -2.071  -1.206  0.00  0.00    +0.006 A 
ATOM     18  C   UNL     1       0.040  -2.768  -0.013  0.00  0.00    -0.023 A 
ATOM     19  C   UNL     1       0.037  -2.084   1.188  0.00  0.00    +0.006 A 
ATOM     20  C   UNL     1       0.023  -0.702   1.195  0.00  0.00    +0.004 A 
ENDBRANCH   1  18
BRANCH   3  21
ATOM     21  C   UNL     1      -2.177  -4.436   3.041  0.00  0.00    -0.003 A 
ATOM     22  C   UNL     1      -3.436  -4.291   2.448  0.00  0.00    +0.011 A 
ATOM     23  C   UNL     1      -4.539  -4.038   3.235  0.00  0.00    +0.020 A 
ATOM     24  C   UNL     1      -4.403  -3.928   4.610  0.00  0.00    +0.041 A 
ATOM     25  C   UNL     1      -3.159  -4.071   5.203  0.00  0.00    +0.020 A 
ATOM     26  C   UNL     1      -2.048  -4.329   4.430  0.00  0.00    +0.011 A 
ATOM     27 CL   UNL     1      -5.798  -3.609   5.593  0.00  0.00    -0.084 Cl
ENDBRANCH   3  21
BRANCH  11  28
ATOM     28  C   UNL     1       6.673  -6.590   2.264  0.00  0.00    +0.107 C 
BRANCH  28  29
ATOM     29  C   UNL     1       7.143  -6.968   3.670  0.00  0.00    +0.134 C 
BRANCH  29  30
ATOM     30  C   UNL     1       8.593  -7.376   3.622  0.00  0.00    +0.356 C 
ATOM     31  O   UNL     1       9.194  -7.366   2.562  0.00  0.00    -0.246 OA
ATOM     32  O   UNL     1       9.165  -7.716   4.644  0.00  0.00    -0.246 OA
ENDBRANCH  29  30
ENDBRANCH  28  29
ENDBRANCH  11  28
TORSDOF 5
