REMARK  Name = ZINC13826817
REMARK  7 active torsions:
REMARK  status: ('A' for Active; 'I' for Inactive)
REMARK    1  A    between atoms: C_1  and  O_2
REMARK    2  A    between atoms: O_2  and  C_3
REMARK    3  A    between atoms: C_9  and  C_13
REMARK    4  A    between atoms: C_18  and  C_19
REMARK    5  A    between atoms: C_18  and  N_61
REMARK    6  A    between atoms: C_19  and  C_20
REMARK    7  A    between atoms: C_20  and  N_21
REMARK                            x       y       z     vdW  Elec       q    Type
REMARK                         _______ _______ _______ _____ _____    ______ ____
ROOT
ATOM      1  C   UNL     1      -8.596   0.573   5.349  0.00  0.00    -0.046 C 
ATOM      2  C   UNL     1      -7.907   1.656   5.057  0.00  0.00    -0.041 C 
ATOM      3  C   UNL     1      -7.356   1.932   3.688  0.00  0.00    -0.051 C 
ATOM      4  C   UNL     1      -8.652   0.045   2.926  0.00  0.00    -0.074 C 
ATOM      5  C   UNL     1      -8.889  -0.499   4.337  0.00  0.00    +0.017 C 
ATOM      6  N   UNL     1      -7.320   0.683   2.905  0.00  0.00    +0.382 N 
ATOM      7  H   UNL     1      -6.635   0.043   3.325  0.00  0.00    -0.081 HD
ENDROOT
BRANCH   1  14
ATOM      8  C   UNL     1      -6.525  -0.570   9.397  0.00  0.00    +0.121 A 
ATOM      9  C   UNL     1      -7.424  -0.608  10.459  0.00  0.00    +0.047 A 
ATOM     10  C   UNL     1      -8.757  -0.328  10.258  0.00  0.00    +0.030 A 
ATOM     11  C   UNL     1      -9.216  -0.003   8.986  0.00  0.00    +0.047 A 
ATOM     12  C   UNL     1      -8.311   0.029   7.912  0.00  0.00    +0.010 A 
ATOM     13  C   UNL     1      -6.962  -0.250   8.127  0.00  0.00    +0.056 A 
ATOM     14  C   UNL     1      -9.100   0.404   6.726  0.00  0.00    +0.003 A 
ATOM     15  C   UNL     1     -10.383   0.557   7.144  0.00  0.00    +0.091 A 
ATOM     16  N   UNL     1     -10.462   0.318   8.485  0.00  0.00    -0.360 N 
ATOM     17  H   UNL     1     -11.276   0.366   9.010  0.00  0.00    +0.165 HD
BRANCH   8  19
ATOM     18  C   UNL     1      -4.826  -1.172  10.949  0.00  0.00    +0.277 C 
ATOM     19  O   UNL     1      -5.211  -0.848   9.611  0.00  0.00    -0.495 OA
ENDBRANCH   8  19
ENDBRANCH   1  14
BRANCH   6  20
ATOM     20  C   UNL     1      -6.917   0.971   1.510  0.00  0.00    -0.077 C 
BRANCH  20  21
ATOM     21  C   UNL     1      -5.460   1.439   1.499  0.00  0.00    +0.002 C 
BRANCH  21  22
ATOM     22  C   UNL     1      -5.026   1.723   0.060  0.00  0.00    +0.130 C 
BRANCH  22  23
ATOM     23  N   UNL     1      -3.631   2.171   0.050  0.00  0.00    -0.202 N 
ATOM     24  C   UNL     1      -2.480   1.365   0.034  0.00  0.00    +0.061 A 
ATOM     25  C   UNL     1      -2.411  -0.027   0.025  0.00  0.00    +0.025 A 
ATOM     26  C   UNL     1      -1.184  -0.678   0.010  0.00  0.00    +0.002 A 
ATOM     27  C   UNL     1       0.002  -0.004   0.002  0.00  0.00    +0.009 A 
ATOM     28  C   UNL     1      -0.017   1.401   0.010  0.00  0.00    -0.014 A 
ATOM     29  C   UNL     1      -1.268   2.053   0.031  0.00  0.00    +0.031 A 
ATOM     30  C   UNL     1      -1.327   3.451   0.035  0.00  0.00    +0.118 A 
ATOM     31  C   UNL     1      -0.199   4.184   0.028  0.00  0.00    +0.029 A 
ATOM     32  C   UNL     1       1.048   3.546   0.012  0.00  0.00    +0.003 A 
ATOM     33  C   UNL     1       1.148   2.186   0.003  0.00  0.00    +0.009 A 
ATOM     34  S   UNL     1      -3.072   3.751   0.054  0.00  0.00    +0.075 S 
ATOM     35  O   UNL     1      -3.424   4.339  -1.191  0.00  0.00    -0.150 OA
ATOM     36  O   UNL     1      -3.400   4.324   1.312  0.00  0.00    -0.150 OA
ENDBRANCH  22  23
ENDBRANCH  21  22
ENDBRANCH  20  21
ENDBRANCH   6  20
TORSDOF 6
