REMARK  Name = ZINC21657618
REMARK  9 active torsions:
REMARK  status: ('A' for Active; 'I' for Inactive)
REMARK    1  A    between atoms: C_1  and  C_2
REMARK    2  A    between atoms: C_2  and  C_3
REMARK    3  A    between atoms: C_3  and  C_5
REMARK    4  A    between atoms: C_3  and  N_12
REMARK    5  A    between atoms: C_13  and  C_15
REMARK    6  A    between atoms: C_15  and  O_16
REMARK    7  A    between atoms: O_16  and  C_17
REMARK    8  A    between atoms: C_19  and  C_26
REMARK    9  A    between atoms: C_22  and  C_23
REMARK                            x       y       z     vdW  Elec       q    Type
REMARK                         _______ _______ _______ _____ _____    ______ ____
ROOT
ATOM      1  N   UNL     1      -0.645   3.040   1.336  0.00  0.00    -0.306 N 
ATOM      2  C   UNL     1      -1.547   3.799   0.682  0.00  0.00    +0.251 C 
ATOM      3  O   UNL     1      -2.428   3.272   0.036  0.00  0.00    -0.272 OA
ATOM      4  H   UNL     1       0.155   3.518   1.921  0.00  0.00    +0.149 HD
ENDROOT
BRANCH   1   5
ATOM      5  C   UNL     1      -0.729   1.579   1.267  0.00  0.00    +0.103 C 
BRANCH   5   6
ATOM      6  C   UNL     1      -0.074   0.981   2.485  0.00  0.00    -0.027 A 
ATOM      7  C   UNL     1       1.100   1.523   2.975  0.00  0.00    +0.007 A 
ATOM      8  C   UNL     1       1.698   0.977   4.095  0.00  0.00    +0.020 A 
ATOM      9  C   UNL     1       1.128  -0.118   4.720  0.00  0.00    +0.041 A 
ATOM     10  C   UNL     1      -0.043  -0.664   4.225  0.00  0.00    +0.020 A 
ATOM     11  C   UNL     1      -0.643  -0.114   3.108  0.00  0.00    +0.007 A 
ATOM     12 CL   UNL     1       1.883  -0.808   6.122  0.00  0.00    -0.084 Cl
ENDBRANCH   5   6
BRANCH   5  14
ATOM     13  C   UNL     1      -0.753   1.593  -1.232  0.00  0.00    +0.006 C 
ATOM     14  C   UNL     1      -0.013   1.086   0.008  0.00  0.00    +0.024 C 
ENDBRANCH   5  14
ENDBRANCH   1   5
BRANCH   2  15
ATOM     15  C   UNL     1      -1.460   5.301   0.752  0.00  0.00    +0.324 C 
BRANCH  15  16
ATOM     16  O   UNL     1      -2.518   5.876  -0.017  0.00  0.00    -0.482 OA
BRANCH  16  17
ATOM     17  C   UNL     1      -2.584   7.231  -0.058  0.00  0.00    +0.134 A 
ATOM     18  C   UNL     1      -1.655   7.995   0.631  0.00  0.00    +0.049 A 
ATOM     19  C   UNL     1      -1.720   9.373   0.585  0.00  0.00    -0.047 A 
ATOM     20  C   UNL     1      -2.719  10.003  -0.141  0.00  0.00    +0.004 A 
ATOM     21  C   UNL     1      -3.654   9.259  -0.827  0.00  0.00    +0.017 A 
ATOM     22  C   UNL     1      -3.596   7.864  -0.792  0.00  0.00    +0.078 A 
ATOM     23  C   UNL     1      -0.704  10.197   1.332  0.00  0.00    +0.044 C 
BRANCH  22  24
ATOM     24  C   UNL     1      -4.594   7.062  -1.526  0.00  0.00    +0.245 C 
ATOM     25  O   UNL     1      -4.540   5.848  -1.494  0.00  0.00    -0.270 OA
ATOM     26  N   UNL     1      -5.565   7.675  -2.231  0.00  0.00    -0.325 N 
ATOM     27  H   UNL     1      -6.309   7.077  -2.777  0.00  0.00    +0.145 HD
ATOM     28  H   UNL     1      -5.614   8.773  -2.260  0.00  0.00    +0.145 HD
ENDBRANCH  22  24
ENDBRANCH  16  17
ENDBRANCH  15  16
ENDBRANCH   2  15
TORSDOF 7
