REMARK  Name = ZINC21602133
REMARK  14 active torsions:
REMARK  status: ('A' for Active; 'I' for Inactive)
REMARK    1  A    between atoms: C_1  and  C_2
REMARK    2  A    between atoms: C_2  and  C_4
REMARK    3  A    between atoms: C_2  and  O_13
REMARK    4  A    between atoms: N_9  and  C_10
REMARK    5  A    between atoms: C_10  and  C_11
REMARK    6  A    between atoms: C_10  and  C_12
REMARK    7  A    between atoms: O_13  and  C_14
REMARK    8  A    between atoms: C_14  and  C_16
REMARK    9  A    between atoms: C_17  and  C_18
REMARK   10  A    between atoms: C_21  and  S_24
REMARK   11  A    between atoms: S_24  and  N_27
REMARK   12  A    between atoms: N_27  and  C_28
REMARK   13  A    between atoms: C_31  and  O_34
REMARK   14  A    between atoms: O_34  and  C_35
REMARK                            x       y       z     vdW  Elec       q    Type
REMARK                         _______ _______ _______ _____ _____    ______ ____
ROOT
ATOM      1  C   UNL     1       6.243  -4.388   1.622  0.00  0.00    -0.025 A 
ATOM      2  C   UNL     1       5.283  -3.889   2.508  0.00  0.00    +0.010 A 
ATOM      3  C   UNL     1       5.626  -3.635   3.819  0.00  0.00    +0.029 A 
ATOM      4  C   UNL     1       6.917  -3.871   4.258  0.00  0.00    +0.109 A 
ATOM      5  C   UNL     1       7.873  -4.364   3.388  0.00  0.00    +0.029 A 
ATOM      6  C   UNL     1       7.544  -4.630   2.075  0.00  0.00    +0.010 A 
ENDROOT
BRANCH   4   7
ATOM      7  S   UNL     1       7.346  -3.541   5.935  0.00  0.00    +0.072 S 
ATOM      8  O   UNL     1       8.726  -3.204   5.943  0.00  0.00    -0.150 OA
ATOM      9  O   UNL     1       6.346  -2.670   6.446  0.00  0.00    -0.150 OA
BRANCH   7  10
ATOM     10  N   UNL     1       7.202  -4.966   6.767  0.00  0.00    -0.216 N 
ATOM     11  H   UNL     1       7.981  -5.365   7.184  0.00  0.00    +0.174 HD
BRANCH  10  12
ATOM     12  C   UNL     1       5.955  -5.594   6.868  0.00  0.00    +0.048 A 
ATOM     13  C   UNL     1       4.989  -5.086   7.726  0.00  0.00    +0.028 A 
ATOM     14  C   UNL     1       3.759  -5.706   7.825  0.00  0.00    +0.047 A 
ATOM     15  C   UNL     1       3.489  -6.836   7.067  0.00  0.00    +0.120 A 
ATOM     16  C   UNL     1       4.453  -7.345   6.211  0.00  0.00    +0.047 A 
ATOM     17  C   UNL     1       5.682  -6.722   6.106  0.00  0.00    +0.028 A 
BRANCH  15  18
ATOM     18  O   UNL     1       2.277  -7.446   7.165  0.00  0.00    -0.495 OA
ATOM     19  C   UNL     1       2.067  -8.605   6.357  0.00  0.00    +0.277 C 
ENDBRANCH  15  18
ENDBRANCH  10  12
ENDBRANCH   7  10
ENDBRANCH   4   7
BRANCH   1  21
ATOM     20  C   UNL     1       4.629  -4.429  -0.213  0.00  0.00    +0.092 C 
ATOM     21  C   UNL     1       5.885  -4.663   0.221  0.00  0.00    +0.015 C 
BRANCH  20  22
ATOM     22  C   UNL     1       4.273  -4.703  -1.604  0.00  0.00    +0.333 C 
ATOM     23  O   UNL     1       5.109  -5.141  -2.371  0.00  0.00    -0.246 OA
BRANCH  22  24
ATOM     24  O   UNL     1       3.017  -4.468  -2.038  0.00  0.00    -0.449 OA
BRANCH  24  26
ATOM     25  C   UNL     1       3.016  -3.516  -4.259  0.00  0.00    +0.062 C 
ATOM     26  C   UNL     1       2.740  -4.758  -3.410  0.00  0.00    +0.259 C 
BRANCH  26  27
ATOM     27  C   UNL     1       1.294  -5.156  -3.557  0.00  0.00    +0.261 C 
ATOM     28  O   UNL     1       0.550  -5.101  -2.601  0.00  0.00    -0.271 OA
ATOM     29  N   UNL     1       0.827  -5.573  -4.750  0.00  0.00    -0.237 N 
ATOM     30  C   UNL     1      -0.466  -5.928  -4.882  0.00  0.00    +0.306 C 
ATOM     31  O   UNL     1      -1.212  -5.873  -3.924  0.00  0.00    -0.252 OA
ATOM     32  N   UNL     1      -0.932  -6.345  -6.075  0.00  0.00    -0.297 N 
ATOM     33  H   UNL     1       1.422  -5.617  -5.515  0.00  0.00    +0.159 HD
ATOM     34  H   UNL     1      -0.337  -6.389  -6.840  0.00  0.00    +0.151 HD
BRANCH  32  35
ATOM     35  C   UNL     1      -2.338  -6.732  -6.218  0.00  0.00    +0.068 C 
ATOM     36  C   UNL     1      -3.185  -5.486  -6.487  0.00  0.00    +0.027 C 
ATOM     37  C   UNL     1      -2.482  -7.708  -7.387  0.00  0.00    +0.027 C 
ENDBRANCH  32  35
ENDBRANCH  26  27
ENDBRANCH  24  26
ENDBRANCH  22  24
ENDBRANCH  20  22
ENDBRANCH   1  21
TORSDOF 10
