REMARK  Name = ZINC07304866
REMARK  5 active torsions:
REMARK  status: ('A' for Active; 'I' for Inactive)
REMARK    1  A    between atoms: C_1  and  C_2
REMARK    2  A    between atoms: C_5  and  C_8
REMARK    3  A    between atoms: C_8  and  N_10
REMARK    4  A    between atoms: N_12  and  C_16
REMARK    5  A    between atoms: C_16  and  C_17
REMARK                            x       y       z     vdW  Elec       q    Type
REMARK                         _______ _______ _______ _____ _____    ______ ____
ROOT
ATOM      1  N   UNL     1       3.022   4.758  -1.305  0.00  0.00    -0.151 NA
ATOM      2  C   UNL     1       3.674   3.760  -1.901  0.00  0.00    +0.166 A 
ATOM      3  N   UNL     1       4.021   2.542  -1.396  0.00  0.00    -0.324 N 
ATOM      4  C   UNL     1       4.697   1.670  -2.188  0.00  0.00    +0.095 A 
ATOM      5  C   UNL     1       4.989   2.035  -3.442  0.00  0.00    +0.066 A 
ATOM      6  S   UNL     1       4.300   3.680  -3.517  0.00  0.00    -0.061 S 
ENDROOT
BRANCH   1   7
ATOM      7  C   UNL     1       2.774   5.886  -1.973  0.00  0.00    +0.289 C 
ATOM      8  O   UNL     1       3.145   6.004  -3.128  0.00  0.00    -0.266 OA
BRANCH   7  13
ATOM      9  C   UNL     1       0.002  10.158   0.516  0.00  0.00    +0.067 C 
ATOM     10  C   UNL     1       0.741   9.030  -0.159  0.00  0.00    +0.056 A 
ATOM     11  C   UNL     1       0.997   7.858   0.537  0.00  0.00    +0.134 A 
ATOM     12  N   UNL     1       1.638   6.867  -0.051  0.00  0.00    -0.247 NA
ATOM     13  C   UNL     1       2.048   6.996  -1.309  0.00  0.00    +0.145 A 
ATOM     14  C   UNL     1       1.789   8.176  -2.005  0.00  0.00    +0.144 A 
ATOM     15  N   UNL     1       1.141   9.162  -1.411  0.00  0.00    -0.256 NA
ENDBRANCH   7  13
ENDBRANCH   1   7
BRANCH   3  16
ATOM     16  C   UNL     1       3.674   2.181  -0.019  0.00  0.00    +0.160 C 
BRANCH  16  17
ATOM     17  C   UNL     1       2.265   1.649   0.022  0.00  0.00    -0.009 A 
ATOM     18  C   UNL     1       1.215   2.496   0.327  0.00  0.00    +0.008 A 
ATOM     19  C   UNL     1      -0.078   2.010   0.363  0.00  0.00    +0.020 A 
ATOM     20  C   UNL     1      -0.323   0.675   0.095  0.00  0.00    +0.042 A 
ATOM     21  C   UNL     1       0.726  -0.173  -0.210  0.00  0.00    +0.040 A 
ATOM     22  C   UNL     1       2.021   0.314  -0.246  0.00  0.00    +0.047 A 
ATOM     23 CL   UNL     1       3.338  -0.749  -0.629  0.00  0.00    -0.083 Cl
ATOM     24 CL   UNL     1      -1.947   0.064   0.141  0.00  0.00    -0.083 Cl
ENDBRANCH  16  17
ENDBRANCH   3  16
TORSDOF 4
