REMARK  Name = ZINC65119301
REMARK  5 active torsions:
REMARK  status: ('A' for Active; 'I' for Inactive)
REMARK    1  A    between atoms: C_1  and  C_2
REMARK    2  A    between atoms: C_2  and  C_3
REMARK    3  A    between atoms: N_9  and  S_10
REMARK    4  A    between atoms: S_10  and  C_13
REMARK    5  A    between atoms: C_15  and  C_18
REMARK                            x       y       z     vdW  Elec       q    Type
REMARK                         _______ _______ _______ _____ _____    ______ ____
ROOT
ATOM      1  C   UNL     1      -2.860  -0.420   2.101  0.00  0.00    +0.143 A 
ATOM      2  C   UNL     1      -3.659  -0.997   3.026  0.00  0.00    +0.046 A 
ATOM      3  C   UNL     1      -4.722  -1.789   2.600  0.00  0.00    +0.011 A 
ATOM      4  C   UNL     1      -4.916  -1.952   1.256  0.00  0.00    +0.057 A 
ATOM      5  S   UNL     1      -3.591  -0.973   0.570  0.00  0.00    -0.076 S 
ENDROOT
BRANCH   3   6
ATOM      6  C   UNL     1      -5.623  -2.442   3.581  0.00  0.00    +0.092 A 
ATOM      7  C   UNL     1      -6.697  -3.242   3.128  0.00  0.00    +0.035 A 
ATOM      8  C   UNL     1      -7.504  -3.826   4.059  0.00  0.00    +0.073 A 
ATOM      9  C   UNL     1      -7.216  -3.595   5.422  0.00  0.00    +0.265 A 
ATOM     10  O   UNL     1      -7.911  -4.097   6.291  0.00  0.00    -0.266 OA
ATOM     11  N   UNL     1      -6.170  -2.816   5.756  0.00  0.00    -0.243 N 
ATOM     12  N   UNL     1      -5.417  -2.278   4.867  0.00  0.00    -0.171 NA
ATOM     13  H   UNL     1      -5.978  -2.661   6.694  0.00  0.00    +0.192 HD
ENDBRANCH   3   6
BRANCH   1  14
ATOM     14  S   UNL     1      -1.459   0.620   2.345  0.00  0.00    +0.067 S 
ATOM     15  O   UNL     1      -1.607   1.206   3.631  0.00  0.00    -0.152 OA
ATOM     16  O   UNL     1      -1.320   1.399   1.165  0.00  0.00    -0.152 OA
BRANCH  14  22
ATOM     17  C   UNL     1       0.496  -0.876   1.196  0.00  0.00    +0.080 C 
ATOM     18  C   UNL     1       0.601  -2.401   1.294  0.00  0.00    +0.021 C 
ATOM     19  C   UNL     1       1.342  -2.776   2.580  0.00  0.00    +0.003 C 
ATOM     20  C   UNL     1       0.555  -2.267   3.790  0.00  0.00    +0.017 C 
ATOM     21  C   UNL     1       0.450  -0.741   3.721  0.00  0.00    +0.110 C 
ATOM     22  N   UNL     1      -0.128  -0.363   2.423  0.00  0.00    -0.173 NA
BRANCH  17  24
ATOM     23  C   UNL     1       0.238  -1.116  -1.278  0.00  0.00    +0.005 C 
ATOM     24  C   UNL     1      -0.362  -0.498  -0.013  0.00  0.00    +0.017 C 
ENDBRANCH  17  24
ENDBRANCH  14  22
ENDBRANCH   1  14
TORSDOF 4
