REMARK  Name = ZINC53013225
REMARK  4 active torsions:
REMARK  status: ('A' for Active; 'I' for Inactive)
REMARK    1  A    between atoms: C_3  and  N_8
REMARK    2  A    between atoms: C_11  and  C_14
REMARK    3  A    between atoms: C_14  and  N_15
REMARK    4  A    between atoms: N_15  and  C_16
REMARK                            x       y       z     vdW  Elec       q    Type
REMARK                         _______ _______ _______ _____ _____    ______ ____
ROOT
ATOM      1  N   UNL     1       3.582   2.123  -0.021  0.00  0.00    -0.330 N 
ATOM      2  C   UNL     1       3.708   3.588  -0.009  0.00  0.00    +0.105 C 
ATOM      3  C   UNL     1       5.216   3.917   0.004  0.00  0.00    +0.022 C 
ATOM      4  C   UNL     1       5.851   2.619   0.569  0.00  0.00    -0.009 C 
ATOM      5  C   UNL     1       4.933   1.532  -0.037  0.00  0.00    +0.106 C 
ENDROOT
BRANCH   1   8
ATOM      6  C   UNL     1      -0.017   1.378   0.010  0.00  0.00    +0.003 A 
ATOM      7  C   UNL     1       1.169   2.087   0.002  0.00  0.00    +0.023 A 
ATOM      8  C   UNL     1       2.381   1.409  -0.013  0.00  0.00    +0.031 A 
ATOM      9  C   UNL     1       2.397   0.020  -0.021  0.00  0.00    +0.037 A 
ATOM     10  C   UNL     1       1.208  -0.682  -0.013  0.00  0.00    +0.015 A 
ATOM     11  C   UNL     1       0.002  -0.004   0.002  0.00  0.00    +0.014 A 
ATOM     12  I   UNL     1       1.230  -2.777  -0.025  0.00  0.00    -0.044 I 
ENDBRANCH   1   8
BRANCH   4  13
ATOM     13  C   UNL     1       7.293   2.458   0.083  0.00  0.00    -0.077 C 
BRANCH  13  14
ATOM     14  N   UNL     1       8.125   3.523   0.657  0.00  0.00    +0.381 N 
ATOM     15  H   UNL     1       7.771   4.421   0.366  0.00  0.00    -0.086 HD
ATOM     16  H   UNL     1       8.101   3.462   1.664  0.00  0.00    -0.086 HD
BRANCH  14  17
ATOM     17  C   UNL     1       9.510   3.368   0.191  0.00  0.00    -0.072 C 
ATOM     18  C   UNL     1      10.581   3.072   1.243  0.00  0.00    -0.017 C 
ATOM     19  C   UNL     1      10.514   4.452   0.586  0.00  0.00    -0.017 C 
ENDBRANCH  14  17
ENDBRANCH  13  14
ENDBRANCH   4  13
TORSDOF 4
