REMARK  Name = ZINC67630087
REMARK  8 active torsions:
REMARK  status: ('A' for Active; 'I' for Inactive)
REMARK    1  A    between atoms: C_1  and  C_2
REMARK    2  A    between atoms: C_2  and  C_4
REMARK    3  A    between atoms: C_2  and  N_11
REMARK    4  A    between atoms: C_8  and  O_10
REMARK    5  A    between atoms: N_11  and  C_12
REMARK    6  A    between atoms: N_15  and  C_16
REMARK    7  A    between atoms: C_16  and  C_17
REMARK    8  A    between atoms: C_20  and  C_22
REMARK                            x       y       z     vdW  Elec       q    Type
REMARK                         _______ _______ _______ _____ _____    ______ ____
ROOT
ATOM      1  N   UNL     1       0.821  -0.440  -1.214  0.00  0.00    -0.282 N 
ATOM      2  C   UNL     1       0.546   0.072  -2.559  0.00  0.00    +0.134 C 
ATOM      3  C   UNL     1       1.830  -1.312  -1.019  0.00  0.00    +0.303 C 
ATOM      4  O   UNL     1       2.059  -1.738   0.097  0.00  0.00    -0.253 OA
ATOM      5  N   UNL     1       2.586  -1.713  -2.061  0.00  0.00    -0.292 N 
ATOM      6  H   UNL     1       2.403  -1.374  -2.951  0.00  0.00    +0.151 HD
ENDROOT
BRANCH   1   8
ATOM      7  C   UNL     1       0.007   1.524  -0.005  0.00  0.00    +0.033 C 
ATOM      8  C   UNL     1       0.000  -0.005  -0.082  0.00  0.00    +0.104 C 
BRANCH   8   9
ATOM      9  C   UNL     1      -1.413  -0.492  -0.269  0.00  0.00    -0.024 A 
ATOM     10  C   UNL     1      -1.653  -1.671  -0.950  0.00  0.00    +0.006 A 
ATOM     11  C   UNL     1      -2.948  -2.121  -1.124  0.00  0.00    +0.004 A 
ATOM     12  C   UNL     1      -4.008  -1.393  -0.617  0.00  0.00    +0.045 A 
ATOM     13  C   UNL     1      -3.770  -0.210   0.067  0.00  0.00    +0.117 A 
ATOM     14  C   UNL     1      -2.468   0.236   0.245  0.00  0.00    +0.050 A 
BRANCH  13  15
ATOM     15  O   UNL     1      -4.810   0.508   0.566  0.00  0.00    -0.507 OA
ATOM     16  H   UNL     1      -5.057   0.267   1.469  0.00  0.00    +0.292 HD
ENDBRANCH  13  15
ENDBRANCH   8   9
ENDBRANCH   1   8
BRANCH   5  17
ATOM     17  C   UNL     1       3.682  -2.661  -1.848  0.00  0.00    +0.180 C 
BRANCH  17  18
ATOM     18  C   UNL     1       4.364  -2.944  -3.162  0.00  0.00    +0.123 A 
ATOM     19  C   UNL     1       5.409  -2.260  -3.668  0.00  0.00    +0.047 A 
ATOM     20  C   UNL     1       5.729  -2.852  -4.906  0.00  0.00    +0.050 A 
ATOM     21  C   UNL     1       4.852  -3.875  -5.090  0.00  0.00    +0.135 A 
ATOM     22  O   UNL     1       4.034  -3.922  -4.021  0.00  0.00    -0.458 OA
BRANCH  21  23
ATOM     23  C   UNL     1       4.809  -4.781  -6.256  0.00  0.00    +0.017 A 
ATOM     24  C   UNL     1       5.727  -4.630  -7.296  0.00  0.00    +0.011 A 
ATOM     25  C   UNL     1       5.681  -5.479  -8.382  0.00  0.00    +0.001 A 
ATOM     26  C   UNL     1       4.727  -6.479  -8.442  0.00  0.00    +0.000 A 
ATOM     27  C   UNL     1       3.813  -6.635  -7.415  0.00  0.00    +0.001 A 
ATOM     28  C   UNL     1       3.852  -5.796  -6.321  0.00  0.00    +0.011 A 
ENDBRANCH  21  23
ENDBRANCH  17  18
ENDBRANCH   5  17
TORSDOF 6
