REMARK  Name = ZINC01161836
REMARK  5 active torsions:
REMARK  status: ('A' for Active; 'I' for Inactive)
REMARK    1  A    between atoms: C_4  and  O_15
REMARK    2  A    between atoms: C_5  and  C_7
REMARK    3  A    between atoms: N_8  and  N_9
REMARK    4  A    between atoms: O_15  and  C_16
REMARK    5  A    between atoms: C_16  and  C_17
REMARK                            x       y       z     vdW  Elec       q    Type
REMARK                         _______ _______ _______ _____ _____    ______ ____
ROOT
ATOM      1  C   UNL     1      -5.243  -3.104  -1.854  0.00  0.00    +0.001 A 
ATOM      2  C   UNL     1      -4.769  -2.837  -0.580  0.00  0.00    +0.004 A 
ATOM      3  C   UNL     1      -3.590  -2.138  -0.405  0.00  0.00    +0.046 A 
ATOM      4  C   UNL     1      -2.873  -1.699  -1.506  0.00  0.00    +0.130 A 
ATOM      5  C   UNL     1      -3.351  -1.962  -2.797  0.00  0.00    +0.036 A 
ATOM      6  C   UNL     1      -4.542  -2.674  -2.961  0.00  0.00    +0.013 A 
ENDROOT
BRANCH   5   7
ATOM      7  C   UNL     1      -2.599  -1.495  -3.975  0.00  0.00    +0.146 C 
ATOM      8  N   UNL     1      -1.491  -0.837  -3.819  0.00  0.00    -0.152 NA
BRANCH   8   9
ATOM      9  N   UNL     1      -0.777  -0.393  -4.939  0.00  0.00    -0.095 N 
ATOM     10  C   UNL     1       0.394   0.305  -4.952  0.00  0.00    +0.255 A 
ATOM     11  N   UNL     1       0.704   0.510  -6.215  0.00  0.00    -0.091 NA
ATOM     12  N   UNL     1      -0.184  -0.006  -6.986  0.00  0.00    -0.020 NA
ATOM     13  N   UNL     1      -1.109  -0.576  -6.293  0.00  0.00    -0.020 NA
ATOM     14  N   UNL     1       1.119   0.719  -3.849  0.00  0.00    -0.325 N 
ATOM     15  H   UNL     1       0.801   0.514  -2.955  0.00  0.00    +0.145 HD
ATOM     16  H   UNL     1       1.945   1.213  -3.968  0.00  0.00    +0.145 HD
ENDBRANCH   8   9
ENDBRANCH   5   7
BRANCH   4  17
ATOM     17  O   UNL     1      -1.714  -1.011  -1.335  0.00  0.00    -0.487 OA
BRANCH  17  18
ATOM     18  C   UNL     1      -1.293  -0.775   0.010  0.00  0.00    +0.264 C 
BRANCH  18  19
ATOM     19  C   UNL     1       0.002  -0.004   0.002  0.00  0.00    -0.009 A 
ATOM     20  C   UNL     1       1.208  -0.680  -0.013  0.00  0.00    +0.008 A 
ATOM     21  C   UNL     1       2.397   0.026  -0.021  0.00  0.00    +0.022 A 
ATOM     22  C   UNL     1       2.380   1.409  -0.013  0.00  0.00    +0.059 A 
ATOM     23  C   UNL     1       1.172   2.086   0.002  0.00  0.00    +0.060 A 
ATOM     24  C   UNL     1      -0.017   1.378   0.010  0.00  0.00    +0.028 A 
ATOM     25 CL   UNL     1       1.149   3.822   0.011  0.00  0.00    -0.082 Cl
ATOM     26 CL   UNL     1       3.872   2.296  -0.022  0.00  0.00    -0.082 Cl
ENDBRANCH  18  19
ENDBRANCH  17  18
ENDBRANCH   4  17
TORSDOF 5
