REMARK  Name = ZINC04729800
REMARK  7 active torsions:
REMARK  status: ('A' for Active; 'I' for Inactive)
REMARK    1  A    between atoms: C_1  and  C_2
REMARK    2  A    between atoms: C_2  and  C_3
REMARK    3  A    between atoms: C_6  and  C_9
REMARK    4  A    between atoms: C_11  and  C_24
REMARK    5  A    between atoms: C_13  and  C_16
REMARK    6  A    between atoms: C_21  and  O_22
REMARK    7  A    between atoms: C_27  and  C_30
REMARK                            x       y       z     vdW  Elec       q    Type
REMARK                         _______ _______ _______ _____ _____    ______ ____
ROOT
ATOM      1  C   UNL     1       2.720  -0.497   1.832  0.00  0.00    +0.040 C 
ATOM      2  N   UNL     1       2.327  -0.243   0.641  0.00  0.00    -0.299 NA
ATOM      3  C   UNL     1       2.490   1.048  -0.016  0.00  0.00    +0.081 C 
ATOM      4  C   UNL     1       3.215   1.915   2.114  0.00  0.00    -0.028 C 
ATOM      5  C   UNL     1       3.415   0.514   2.701  0.00  0.00    +0.044 C 
ATOM      6  N   UNL     1       3.509   1.857   0.669  0.00  0.00    +0.401 N 
ATOM      7  H   UNL     1       3.504   2.809   0.282  0.00  0.00    -0.081 HD
ATOM      8  H   UNL     1       4.433   1.434   0.526  0.00  0.00    -0.081 HD
ENDROOT
BRANCH   4   9
ATOM      9  C   UNL     1       4.154   2.886   2.782  0.00  0.00    -0.018 A 
ATOM     10  C   UNL     1       5.341   3.235   2.166  0.00  0.00    +0.025 A 
ATOM     11  C   UNL     1       6.201   4.131   2.775  0.00  0.00    +0.041 A 
ATOM     12  C   UNL     1       5.880   4.670   4.009  0.00  0.00    +0.023 A 
ATOM     13  C   UNL     1       4.698   4.320   4.631  0.00  0.00    +0.047 A 
ATOM     14  C   UNL     1       3.831   3.426   4.018  0.00  0.00    +0.119 A 
ATOM     15 CL   UNL     1       7.687   4.573   1.995  0.00  0.00    -0.084 Cl
BRANCH  14  16
ATOM     16  O   UNL     1       2.667   3.080   4.628  0.00  0.00    -0.507 OA
ATOM     17  H   UNL     1       2.740   2.308   5.206  0.00  0.00    +0.292 HD
ENDBRANCH  14  16
ENDBRANCH   4   9
BRANCH   3  18
ATOM     18  C   UNL     1       1.175   1.783   0.000  0.00  0.00    -0.040 A 
ATOM     19  C   UNL     1      -0.013   1.076   0.008  0.00  0.00    +0.004 A 
ATOM     20  C   UNL     1      -1.219   1.751   0.017  0.00  0.00    +0.003 A 
ATOM     21  C   UNL     1      -1.238   3.133   0.030  0.00  0.00    -0.050 A 
ATOM     22  C   UNL     1      -0.050   3.840   0.022  0.00  0.00    +0.003 A 
ATOM     23  C   UNL     1       1.156   3.165   0.008  0.00  0.00    +0.004 A 
ATOM     24  C   UNL     1      -2.553   3.869   0.047  0.00  0.00    +0.044 C 
ENDBRANCH   3  18
BRANCH   1  28
ATOM     25  C   UNL     1       2.030  -4.380   3.405  0.00  0.00    -0.048 A 
ATOM     26  C   UNL     1       1.617  -4.074   2.120  0.00  0.00    +0.004 A 
ATOM     27  C   UNL     1       1.838  -2.814   1.603  0.00  0.00    +0.010 A 
ATOM     28  C   UNL     1       2.480  -1.847   2.379  0.00  0.00    -0.004 A 
ATOM     29  C   UNL     1       2.900  -2.165   3.672  0.00  0.00    +0.010 A 
ATOM     30  C   UNL     1       2.668  -3.427   4.179  0.00  0.00    +0.004 A 
BRANCH  25  32
ATOM     31  C   UNL     1       2.978  -6.660   3.638  0.00  0.00    +0.009 C 
ATOM     32  C   UNL     1       1.785  -5.758   3.963  0.00  0.00    +0.032 C 
ENDBRANCH  25  32
ENDBRANCH   1  28
TORSDOF 5
