REMARK  Name = ZINC14982463
REMARK  10 active torsions:
REMARK  status: ('A' for Active; 'I' for Inactive)
REMARK    1  A    between atoms: C_4  and  C_7
REMARK    2  A    between atoms: C_7  and  C_8
REMARK    3  A    between atoms: C_8  and  S_9
REMARK    4  A    between atoms: S_9  and  C_10
REMARK    5  A    between atoms: C_13  and  C_22
REMARK    6  A    between atoms: N_14  and  C_15
REMARK    7  A    between atoms: C_15  and  C_16
REMARK    8  A    between atoms: C_27  and  C_28
REMARK    9  A    between atoms: C_27  and  N_68
REMARK   10  A    between atoms: C_33  and  O_34
REMARK                            x       y       z     vdW  Elec       q    Type
REMARK                         _______ _______ _______ _____ _____    ______ ____
ROOT
ATOM      1  C   UNL     1      -0.974   1.565   4.564  0.00  0.00    +0.192 A 
ATOM      2  N   UNL     1      -1.620   2.313   5.428  0.00  0.00    -0.122 NA
ATOM      3  N   UNL     1      -1.645   3.531   5.017  0.00  0.00    -0.133 NA
ATOM      4  C   UNL     1      -1.018   3.633   3.880  0.00  0.00    +0.137 A 
ATOM      5  N   UNL     1      -0.573   2.384   3.547  0.00  0.00    -0.303 N 
ENDROOT
BRANCH   4   6
ATOM      6  C   UNL     1      -0.822   4.894   3.078  0.00  0.00    +0.054 C 
ATOM      7  C   UNL     1      -0.049   5.917   3.914  0.00  0.00    -0.008 C 
ATOM      8  C   UNL     1       0.092   7.217   3.118  0.00  0.00    -0.078 C 
ATOM      9  C   UNL     1      -1.982   6.789   1.940  0.00  0.00    -0.078 C 
ATOM     10  C   UNL     1      -2.187   5.478   2.701  0.00  0.00    -0.008 C 
ATOM     11  N   UNL     1      -1.256   7.740   2.808  0.00  0.00    +0.382 N 
ATOM     12  H   UNL     1      -1.777   7.856   3.685  0.00  0.00    -0.081 HD
BRANCH  11  13
ATOM     13  C   UNL     1      -1.146   9.052   2.138  0.00  0.00    -0.039 C 
BRANCH  13  14
ATOM     14  C   UNL     1      -0.601  10.055   3.122  0.00  0.00    -0.022 A 
ATOM     15  C   UNL     1      -1.460  10.915   3.780  0.00  0.00    +0.005 A 
ATOM     16  C   UNL     1      -0.961  11.835   4.683  0.00  0.00    +0.000 A 
ATOM     17  C   UNL     1       0.398  11.898   4.931  0.00  0.00    +0.004 A 
ATOM     18  C   UNL     1       1.260  11.040   4.276  0.00  0.00    +0.045 A 
ATOM     19  C   UNL     1       0.762  10.113   3.373  0.00  0.00    +0.118 A 
BRANCH  19  20
ATOM     20  O   UNL     1       1.608   9.265   2.731  0.00  0.00    -0.507 OA
ATOM     21  H   UNL     1       1.948   9.607   1.893  0.00  0.00    +0.292 HD
ENDBRANCH  19  20
ENDBRANCH  13  14
ENDBRANCH  11  13
ENDBRANCH   4   6
BRANCH   1  22
ATOM     22  S   UNL     1      -0.681  -0.168   4.691  0.00  0.00    -0.086 S 
BRANCH  22  23
ATOM     23  C   UNL     1      -1.500  -0.509   6.269  0.00  0.00    +0.082 C 
BRANCH  23  24
ATOM     24  C   UNL     1      -1.372  -1.998   6.598  0.00  0.00    +0.046 C 
BRANCH  24  28
ATOM     25  C   UNL     1      -3.304  -2.805  10.322  0.00  0.00    +0.000 A 
ATOM     26  C   UNL     1      -4.017  -2.890   9.141  0.00  0.00    +0.000 A 
ATOM     27  C   UNL     1      -3.392  -2.629   7.936  0.00  0.00    +0.003 A 
ATOM     28  C   UNL     1      -2.054  -2.282   7.912  0.00  0.00    -0.047 A 
ATOM     29  C   UNL     1      -1.339  -2.202   9.093  0.00  0.00    +0.003 A 
ATOM     30  C   UNL     1      -1.966  -2.458  10.298  0.00  0.00    +0.000 A 
ENDBRANCH  24  28
ENDBRANCH  23  24
ENDBRANCH  22  23
ENDBRANCH   1  22
BRANCH   5  31
ATOM     31  C   UNL     1       0.184   2.003   2.352  0.00  0.00    +0.157 C 
BRANCH  31  32
ATOM     32  C   UNL     1      -0.788   1.610   1.237  0.00  0.00    +0.138 C 
ATOM     33  C   UNL     1      -0.013   1.086   0.008  0.00  0.00    +0.035 C 
ATOM     34  C   UNL     1      -0.811   1.623  -1.201  0.00  0.00    +0.031 C 
ATOM     35  C   UNL     1      -1.978   2.408  -0.561  0.00  0.00    +0.160 C 
ATOM     36  O   UNL     1      -1.501   2.772   0.753  0.00  0.00    -0.375 OA
ENDBRANCH  31  32
ENDBRANCH   5  31
TORSDOF 10
