REMARK  Name = ZINC32759688
REMARK  8 active torsions:
REMARK  status: ('A' for Active; 'I' for Inactive)
REMARK    1  A    between atoms: C_1  and  O_2
REMARK    2  A    between atoms: O_2  and  C_3
REMARK    3  A    between atoms: C_6  and  C_11
REMARK    4  A    between atoms: C_7  and  O_9
REMARK    5  A    between atoms: O_9  and  C_10
REMARK    6  A    between atoms: N_16  and  C_17
REMARK    7  A    between atoms: C_17  and  C_18
REMARK    8  A    between atoms: C_21  and  C_23
REMARK                            x       y       z     vdW  Elec       q    Type
REMARK                         _______ _______ _______ _____ _____    ______ ____
ROOT
ATOM      1  C   UNL     1      -0.159   0.897   2.431  0.00  0.00    -0.034 C 
ATOM      2  C   UNL     1      -0.551   1.835   3.593  0.00  0.00    -0.012 C 
ATOM      3  C   UNL     1      -0.738   3.222   2.943  0.00  0.00    -0.020 C 
ATOM      4  C   UNL     1      -0.443   3.005   1.444  0.00  0.00    -0.077 C 
ATOM      5  N   UNL     1      -0.700   1.560   1.217  0.00  0.00    +0.388 N 
ATOM      6  H   UNL     1      -1.765   1.338   1.050  0.00  0.00    -0.080 HD
ENDROOT
BRANCH   1  10
ATOM      7  C   UNL     1      -1.943  -2.956   2.948  0.00  0.00    +0.124 A 
ATOM      8  C   UNL     1      -2.564  -2.000   2.156  0.00  0.00    +0.046 A 
ATOM      9  C   UNL     1      -1.988  -0.754   1.996  0.00  0.00    +0.009 A 
ATOM     10  C   UNL     1      -0.787  -0.461   2.614  0.00  0.00    -0.019 A 
ATOM     11  C   UNL     1      -0.163  -1.413   3.406  0.00  0.00    +0.125 A 
ATOM     12  C   UNL     1      -0.741  -2.662   3.574  0.00  0.00    +0.091 A 
BRANCH   7  14
ATOM     13  C   UNL     1      -3.751  -4.412   2.437  0.00  0.00    +0.277 C 
ATOM     14  O   UNL     1      -2.513  -4.179   3.111  0.00  0.00    -0.495 OA
ENDBRANCH   7  14
BRANCH  11  15
ATOM     15  O   UNL     1       1.015  -1.121   4.018  0.00  0.00    -0.495 OA
ATOM     16  C   UNL     1       1.602  -2.149   4.819  0.00  0.00    +0.277 C 
ENDBRANCH  11  15
ENDBRANCH   1  10
BRANCH   5  17
ATOM     17  C   UNL     1      -0.013   1.086   0.008  0.00  0.00    -0.021 C 
BRANCH  17  18
ATOM     18  C   UNL     1      -0.742   1.585  -1.213  0.00  0.00    +0.033 A 
ATOM     19  C   UNL     1      -0.342   2.731  -1.822  0.00  0.00    +0.068 A 
ATOM     20  S   UNL     1      -1.524   2.823  -3.161  0.00  0.00    -0.075 S 
ATOM     21  C   UNL     1      -2.426   1.333  -2.759  0.00  0.00    +0.109 A 
ATOM     22  N   UNL     1      -1.768   0.915  -1.686  0.00  0.00    -0.246 NA
BRANCH  21  23
ATOM     23  C   UNL     1      -3.591   0.729  -3.440  0.00  0.00    +0.014 A 
ATOM     24  C   UNL     1      -4.150   1.330  -4.565  0.00  0.00    +0.018 A 
ATOM     25  C   UNL     1      -5.212   0.745  -5.162  0.00  0.00    +0.046 A 
ATOM     26  S   UNL     1      -5.479  -0.693  -4.139  0.00  0.00    -0.104 S 
ATOM     27  C   UNL     1      -4.150  -0.432  -2.976  0.00  0.00    +0.055 A 
ENDBRANCH  21  23
ENDBRANCH  17  18
ENDBRANCH   5  17
TORSDOF 6
