REMARK  Name = ZINC19234499
REMARK  10 active torsions:
REMARK  status: ('A' for Active; 'I' for Inactive)
REMARK    1  A    between atoms: C_1  and  C_2
REMARK    2  A    between atoms: C_6  and  C_8
REMARK    3  A    between atoms: C_8  and  O_33
REMARK    4  A    between atoms: N_11  and  C_14
REMARK    5  A    between atoms: C_14  and  C_15
REMARK    6  A    between atoms: C_15  and  C_17
REMARK    7  A    between atoms: C_15  and  O_32
REMARK    8  A    between atoms: C_24  and  C_31
REMARK    9  A    between atoms: N_26  and  S_27
REMARK   10  A    between atoms: S_27  and  C_30
REMARK                            x       y       z     vdW  Elec       q    Type
REMARK                         _______ _______ _______ _____ _____    ______ ____
ROOT
ATOM      1  C   UNL     1      -3.057   3.986   1.489  0.00  0.00    -0.042 C 
ENDROOT
BRANCH   1   5
ATOM      2  C   UNL     1      -5.947   7.055   2.205  0.00  0.00    +0.088 C 
ATOM      3  C   UNL     1      -5.387   6.862   0.793  0.00  0.00    +0.021 C 
ATOM      4  C   UNL     1      -4.061   6.102   0.876  0.00  0.00    -0.076 C 
ATOM      5  N   UNL     1      -4.280   4.800   1.517  0.00  0.00    +0.382 N 
ATOM      6  C   UNL     1      -4.773   4.961   2.891  0.00  0.00    -0.076 C 
ATOM      7  C   UNL     1      -6.121   5.686   2.869  0.00  0.00    +0.021 C 
ATOM      8  H   UNL     1      -5.054   4.269   0.943  0.00  0.00    -0.082 HD
BRANCH   2  14
ATOM      9  C   UNL     1      -9.372  10.100   4.215  0.00  0.00    +0.044 C 
ATOM     10  C   UNL     1      -8.920   9.208   3.088  0.00  0.00    -0.050 A 
ATOM     11  C   UNL     1      -9.729   9.028   1.982  0.00  0.00    +0.003 A 
ATOM     12  C   UNL     1      -9.315   8.210   0.948  0.00  0.00    +0.001 A 
ATOM     13  C   UNL     1      -8.089   7.574   1.018  0.00  0.00    +0.006 A 
ATOM     14  C   UNL     1      -7.282   7.751   2.127  0.00  0.00    -0.016 A 
ATOM     15  C   UNL     1      -7.696   8.570   3.160  0.00  0.00    +0.009 A 
ENDBRANCH   2  14
BRANCH   2  16
ATOM     16  O   UNL     1      -5.040   7.847   2.974  0.00  0.00    -0.384 OA
ATOM     17  H   UNL     1      -4.011   7.498   3.141  0.00  0.00    +0.211 HD
ENDBRANCH   2  16
ENDBRANCH   1   5
BRANCH   1  18
ATOM     18  C   UNL     1      -2.718   3.625   0.042  0.00  0.00    +0.128 C 
BRANCH  18  19
ATOM     19  C   UNL     1      -1.472   2.777   0.014  0.00  0.00    -0.021 A 
ATOM     20  C   UNL     1      -1.561   1.409   0.190  0.00  0.00    +0.008 A 
ATOM     21  C   UNL     1      -0.423   0.631   0.170  0.00  0.00    +0.025 A 
ATOM     22  C   UNL     1       0.827   1.218  -0.038  0.00  0.00    +0.054 A 
ATOM     23  C   UNL     1       0.904   2.591  -0.218  0.00  0.00    -0.023 A 
ATOM     24  C   UNL     1      -0.239   3.366  -0.193  0.00  0.00    +0.011 A 
ATOM     25  C   UNL     1       2.354   2.968  -0.422  0.00  0.00    +0.061 C 
ATOM     26  C   UNL     1       3.116   1.635  -0.337  0.00  0.00    +0.099 C 
ATOM     27  N   UNL     1       2.087   0.620  -0.098  0.00  0.00    -0.204 N 
ATOM     28  C   UNL     1       3.844   1.354  -1.653  0.00  0.00    +0.030 C 
BRANCH  27  29
ATOM     29  S   UNL     1       2.376  -1.002   0.076  0.00  0.00    +0.043 S 
ATOM     30  O   UNL     1       3.712  -1.083   0.553  0.00  0.00    -0.155 OA
ATOM     31  O   UNL     1       1.294  -1.480   0.864  0.00  0.00    -0.155 OA
ATOM     32  C   UNL     1       2.271  -1.677  -1.605  0.00  0.00    +0.218 C 
ENDBRANCH  27  29
ENDBRANCH  18  19
BRANCH  18  33
ATOM     33  O   UNL     1      -3.804   2.895  -0.533  0.00  0.00    -0.389 OA
ATOM     34  H   UNL     1      -3.742   2.547  -1.575  0.00  0.00    +0.210 HD
ENDBRANCH  18  33
ENDBRANCH   1  18
TORSDOF 7
