REMARK  Name = ZINC02647885
REMARK  3 active torsions:
REMARK  status: ('A' for Active; 'I' for Inactive)
REMARK    1  A    between atoms: C_11  and  C_23
REMARK    2  A    between atoms: C_14  and  C_16
REMARK    3  A    between atoms: C_27  and  N_29
REMARK                            x       y       z     vdW  Elec       q    Type
REMARK                         _______ _______ _______ _____ _____    ______ ____
ROOT
ATOM      1  C   UNL     1       3.854  -1.102   5.468  0.00  0.00    +0.001 A 
ATOM      2  C   UNL     1       4.252   0.204   5.702  0.00  0.00    +0.002 A 
ATOM      3  C   UNL     1       4.157   1.189   4.734  0.00  0.00    +0.026 A 
ATOM      4  C   UNL     1       3.640   0.812   3.497  0.00  0.00    +0.047 A 
ATOM      5  C   UNL     1       3.234  -0.528   3.263  0.00  0.00    +0.004 A 
ATOM      6  C   UNL     1       3.341  -1.503   4.259  0.00  0.00    +0.010 A 
ATOM      7  C   UNL     1       2.755  -0.564   1.899  0.00  0.00    -0.015 A 
ATOM      8  C   UNL     1       2.886   0.684   1.395  0.00  0.00    +0.011 A 
ATOM      9  N   UNL     1       3.415   1.513   2.347  0.00  0.00    -0.359 N 
ATOM     10  H   UNL     1       3.602   2.457   2.223  0.00  0.00    +0.166 HD
ATOM     11  C   UNL     1       2.490   1.048  -0.016  0.00  0.00    +0.007 C 
ATOM     12  C   UNL     1       1.477  -1.159  -0.119  0.00  0.00    -0.068 C 
ATOM     13  C   UNL     1       2.197  -1.724   1.113  0.00  0.00    +0.036 C 
ATOM     14  N   UNL     1       2.360  -0.195  -0.809  0.00  0.00    +0.388 N 
ATOM     15  H   UNL     1       3.288  -0.615  -0.933  0.00  0.00    -0.084 HD
ATOM     16  H   UNL     1       1.960   0.031  -1.727  0.00  0.00    -0.084 HD
ENDROOT
BRANCH  13  17
ATOM     17  C   UNL     1       1.222  -2.495   1.965  0.00  0.00    -0.023 A 
ATOM     18  C   UNL     1       0.098  -1.867   2.469  0.00  0.00    +0.005 A 
ATOM     19  C   UNL     1      -0.796  -2.574   3.251  0.00  0.00    +0.000 A 
ATOM     20  C   UNL     1      -0.568  -3.909   3.528  0.00  0.00    +0.001 A 
ATOM     21  C   UNL     1       0.555  -4.538   3.025  0.00  0.00    +0.020 A 
ATOM     22  C   UNL     1       1.448  -3.832   2.238  0.00  0.00    +0.045 A 
ATOM     23 CL   UNL     1       2.856  -4.623   1.599  0.00  0.00    -0.083 Cl
ENDBRANCH  13  17
BRANCH  11  24
ATOM     24  C   UNL     1       1.175   1.783   0.000  0.00  0.00    -0.054 A 
ATOM     25  C   UNL     1       0.395   1.830  -1.140  0.00  0.00    +0.002 A 
ATOM     26  C   UNL     1      -0.809   2.510  -1.126  0.00  0.00    +0.002 A 
ATOM     27  C   UNL     1      -1.237   3.134   0.030  0.00  0.00    +0.033 A 
ATOM     28  C   UNL     1      -0.457   3.087   1.171  0.00  0.00    +0.126 A 
ATOM     29  C   UNL     1       0.749   2.412   1.155  0.00  0.00    +0.035 A 
BRANCH  28  30
ATOM     30  N   UNL     1      -0.913   3.759   2.408  0.00  0.00    +0.056 N 
ATOM     31  O   UNL     1      -0.226   3.718   3.412  0.00  0.00    -0.126 OA
ATOM     32  O   UNL     1      -1.976   4.354   2.421  0.00  0.00    -0.126 OA
ENDBRANCH  28  30
ENDBRANCH  11  24
TORSDOF 3
