REMARK  Name = ZINC12558241
REMARK  11 active torsions:
REMARK  status: ('A' for Active; 'I' for Inactive)
REMARK    1  A    between atoms: C_1  and  C_2
REMARK    2  A    between atoms: C_2  and  N_3
REMARK    3  A    between atoms: C_14  and  N_16
REMARK    4  A    between atoms: C_17  and  C_19
REMARK    5  A    between atoms: C_19  and  C_21
REMARK    6  A    between atoms: C_19  and  S_22
REMARK    7  A    between atoms: S_22  and  C_23
REMARK    8  A    between atoms: C_26  and  C_31
REMARK    9  A    between atoms: N_27  and  C_28
REMARK   10  A    between atoms: C_31  and  C_32
REMARK   11  A    between atoms: C_32  and  C_33
REMARK                            x       y       z     vdW  Elec       q    Type
REMARK                         _______ _______ _______ _____ _____    ______ ____
ROOT
ATOM      1  N   UNL     1      -0.603   8.883   0.362  0.00  0.00    -0.285 N 
ATOM      2  C   UNL     1      -0.042  10.107   0.423  0.00  0.00    +0.230 C 
ATOM      3  O   UNL     1       1.165  10.221   0.438  0.00  0.00    -0.274 OA
ATOM      4  H   UNL     1      -1.566   8.795   0.283  0.00  0.00    +0.155 HD
ENDROOT
BRANCH   1  16
ATOM      5  N   UNL     1       2.770   4.480   0.432  0.00  0.00    -0.340 N 
ATOM      6  C   UNL     1       3.863   4.964  -0.264  0.00  0.00    +0.050 A 
ATOM      7  C   UNL     1       5.079   4.386  -0.619  0.00  0.00    +0.026 A 
ATOM      8  C   UNL     1       6.008   5.114  -1.330  0.00  0.00    +0.002 A 
ATOM      9  C   UNL     1       5.747   6.426  -1.694  0.00  0.00    +0.001 A 
ATOM     10  C   UNL     1       4.546   7.014  -1.358  0.00  0.00    +0.010 A 
ATOM     11  C   UNL     1       3.599   6.290  -0.639  0.00  0.00    +0.008 A 
ATOM     12  C   UNL     1       2.253   6.609  -0.126  0.00  0.00    +0.009 A 
ATOM     13  C   UNL     1       1.791   5.456   0.526  0.00  0.00    +0.050 A 
ATOM     14  C   UNL     1       0.531   5.463   1.117  0.00  0.00    +0.028 A 
ATOM     15  C   UNL     1      -0.253   6.595   1.060  0.00  0.00    +0.025 A 
ATOM     16  C   UNL     1       0.204   7.739   0.413  0.00  0.00    +0.034 A 
ATOM     17  C   UNL     1       1.455   7.749  -0.179  0.00  0.00    +0.034 A 
BRANCH   5  19
ATOM     18  C   UNL     1       3.208   3.125   2.421  0.00  0.00    +0.027 C 
ATOM     19  C   UNL     1       2.664   3.130   0.991  0.00  0.00    +0.119 C 
ENDBRANCH   5  19
ENDBRANCH   1  16
BRANCH   2  20
ATOM     20  C   UNL     1      -0.915  11.335   0.474  0.00  0.00    +0.137 C 
ATOM     21  C   UNL     1      -1.324  11.611   1.922  0.00  0.00    +0.029 C 
BRANCH  20  22
ATOM     22  S   UNL     1       0.002  12.754  -0.176  0.00  0.00    -0.074 S 
BRANCH  22  23
ATOM     23  C   UNL     1      -1.266  13.977  -0.144  0.00  0.00    +0.193 A 
ATOM     24  N   UNL     1      -2.504  13.808   0.259  0.00  0.00    -0.122 NA
ATOM     25  N   UNL     1      -3.155  14.911   0.145  0.00  0.00    -0.133 NA
ATOM     26  C   UNL     1      -2.377  15.842  -0.332  0.00  0.00    +0.135 A 
ATOM     27  N   UNL     1      -1.145  15.282  -0.527  0.00  0.00    -0.303 N 
BRANCH  27  28
ATOM     28  C   UNL     1       0.055  15.944  -1.045  0.00  0.00    +0.091 C 
ATOM     29  C   UNL     1       1.191  15.053  -1.551  0.00  0.00    +0.027 C 
ATOM     30  C   UNL     1       1.343  15.811  -0.229  0.00  0.00    +0.027 C 
ENDBRANCH  27  28
BRANCH  26  31
ATOM     31  C   UNL     1      -2.763  17.272  -0.610  0.00  0.00    +0.085 C 
BRANCH  31  32
ATOM     32  C   UNL     1      -2.509  18.121   0.637  0.00  0.00    +0.103 C 
BRANCH  32  33
ATOM     33  C   UNL     1      -2.894  19.551   0.359  0.00  0.00    +0.211 C 
ATOM     34  O   UNL     1      -3.330  19.860  -0.730  0.00  0.00    -0.276 OA
ATOM     35  N   UNL     1      -2.755  20.485   1.320  0.00  0.00    -0.329 N 
ATOM     36  H   UNL     1      -2.407  20.238   2.191  0.00  0.00    +0.145 HD
ATOM     37  H   UNL     1      -3.004  21.406   1.141  0.00  0.00    +0.145 HD
ENDBRANCH  32  33
ENDBRANCH  31  32
ENDBRANCH  26  31
ENDBRANCH  22  23
ENDBRANCH  20  22
ENDBRANCH   2  20
TORSDOF 9
