REMARK  Name = ZINC32475203
REMARK  8 active torsions:
REMARK  status: ('A' for Active; 'I' for Inactive)
REMARK    1  A    between atoms: C_4  and  C_7
REMARK    2  A    between atoms: C_7  and  C_9
REMARK    3  A    between atoms: C_7  and  N_16
REMARK    4  A    between atoms: C_17  and  C_19
REMARK    5  A    between atoms: C_19  and  C_20
REMARK    6  A    between atoms: C_20  and  C_21
REMARK    7  A    between atoms: C_21  and  C_22
REMARK    8  A    between atoms: C_22  and  C_23
REMARK                            x       y       z     vdW  Elec       q    Type
REMARK                         _______ _______ _______ _____ _____    ______ ____
ROOT
ATOM      1  N   UNL     1       3.630  -1.873   0.845  0.00  0.00    -0.304 N 
ATOM      2  C   UNL     1       3.871  -1.738   2.164  0.00  0.00    +0.214 C 
ATOM      3  O   UNL     1       4.155  -0.651   2.621  0.00  0.00    -0.276 OA
ATOM      4  H   UNL     1       3.403  -2.743   0.480  0.00  0.00    +0.150 HD
ENDROOT
BRANCH   1   5
ATOM      5  C   UNL     1       3.711  -0.707  -0.038  0.00  0.00    +0.134 C 
BRANCH   5   6
ATOM      6  C   UNL     1       4.014  -1.161  -1.442  0.00  0.00    -0.023 A 
ATOM      7  C   UNL     1       3.407  -2.294  -1.949  0.00  0.00    +0.007 A 
ATOM      8  C   UNL     1       3.684  -2.711  -3.237  0.00  0.00    +0.020 A 
ATOM      9  C   UNL     1       4.571  -1.993  -4.020  0.00  0.00    +0.041 A 
ATOM     10  C   UNL     1       5.179  -0.858  -3.513  0.00  0.00    +0.020 A 
ATOM     11  C   UNL     1       4.896  -0.440  -2.226  0.00  0.00    +0.007 A 
ATOM     12 CL   UNL     1       4.921  -2.516  -5.638  0.00  0.00    -0.084 Cl
ENDBRANCH   5   6
BRANCH   5  16
ATOM     13  C   UNL     1      -0.017   1.378   0.010  0.00  0.00    +0.000 A 
ATOM     14  C   UNL     1       1.171   2.086   0.002  0.00  0.00    +0.000 A 
ATOM     15  C   UNL     1       2.377   1.411  -0.013  0.00  0.00    +0.006 A 
ATOM     16  C   UNL     1       2.396   0.029  -0.020  0.00  0.00    -0.023 A 
ATOM     17  C   UNL     1       1.208  -0.679  -0.012  0.00  0.00    +0.006 A 
ATOM     18  C   UNL     1       0.002  -0.004   0.002  0.00  0.00    +0.000 A 
ENDBRANCH   5  16
ENDBRANCH   1   5
BRANCH   2  19
ATOM     19  C   UNL     1       3.788  -2.938   3.073  0.00  0.00    +0.096 C 
BRANCH  19  20
ATOM     20  C   UNL     1       4.103  -2.513   4.508  0.00  0.00    +0.009 C 
BRANCH  20  21
ATOM     21  C   UNL     1       4.018  -3.731   5.431  0.00  0.00    +0.002 C 
BRANCH  21  22
ATOM     22  C   UNL     1       4.334  -3.307   6.866  0.00  0.00    +0.016 C 
BRANCH  22  23
ATOM     23  C   UNL     1       4.249  -4.525   7.788  0.00  0.00    +0.069 C 
ATOM     24  C   UNL     1       4.604  -4.145   9.242  0.00  0.00    +0.108 C 
ATOM     25  C   UNL     1       3.718  -4.827  10.290  0.00  0.00    +0.105 C 
ATOM     26  C   UNL     1       2.640  -5.751   9.684  0.00  0.00    +0.093 C 
ATOM     27  S   UNL     1       2.504  -5.095   7.975  0.00  0.00    -0.154 S 
ATOM     28  N   UNL     1       3.051  -3.709  10.976  0.00  0.00    -0.294 N 
ATOM     29  C   UNL     1       3.464  -2.555  10.434  0.00  0.00    +0.300 C 
ATOM     30  O   UNL     1       3.072  -1.468  10.810  0.00  0.00    -0.253 OA
ATOM     31  N   UNL     1       4.340  -2.711   9.443  0.00  0.00    -0.294 N 
ATOM     32  H   UNL     1       2.414  -3.794  11.703  0.00  0.00    +0.151 HD
ATOM     33  H   UNL     1       4.742  -1.989   8.935  0.00  0.00    +0.151 HD
ENDBRANCH  22  23
ENDBRANCH  21  22
ENDBRANCH  20  21
ENDBRANCH  19  20
ENDBRANCH   2  19
TORSDOF 8
