REMARK  Name = ZINC21788162
REMARK  4 active torsions:
REMARK  status: ('A' for Active; 'I' for Inactive)
REMARK    1  A    between atoms: C_1  and  C_2
REMARK    2  A    between atoms: C_5  and  N_9
REMARK    3  A    between atoms: C_12  and  C_14
REMARK    4  A    between atoms: C_15  and  C_22
REMARK                            x       y       z     vdW  Elec       q    Type
REMARK                         _______ _______ _______ _____ _____    ______ ____
ROOT
ATOM      1  N   UNL     1       1.304   1.751  -0.001  0.00  0.00    -0.218 N 
ATOM      2  C   UNL     1       2.125   0.656   0.152  0.00  0.00    +0.133 A 
ATOM      3  C   UNL     1       1.338  -0.440   0.087  0.00  0.00    +0.033 A 
ATOM      4  C   UNL     1       0.009  -0.006  -0.106  0.00  0.00    +0.067 A 
ATOM      5  N   UNL     1      -0.005   1.295  -0.157  0.00  0.00    -0.170 NA
ATOM      6  C   UNL     1      -1.196  -0.902  -0.232  0.00  0.00    +0.068 C 
ATOM      7  C   UNL     1       1.692  -1.891   0.183  0.00  0.00    +0.112 C 
ATOM      8  S   UNL     1       3.296  -2.279  -0.522  0.00  0.00    -0.138 S 
ATOM      9  C   UNL     1       4.511  -1.488   0.541  0.00  0.00    +0.166 C 
ATOM     10  C   UNL     1       4.483  -0.012   0.449  0.00  0.00    +0.228 C 
ATOM     11  O   UNL     1       5.572   0.521   0.491  0.00  0.00    -0.275 OA
ATOM     12  N   UNL     1       3.479   0.803   0.332  0.00  0.00    -0.269 N 
ATOM     13  H   UNL     1       3.918   1.810   0.407  0.00  0.00    +0.156 HD
ENDROOT
BRANCH   1  18
ATOM     14  C   UNL     1       2.961   7.180   0.000  0.00  0.00    +0.045 C 
ATOM     15  C   UNL     1       2.520   5.739   0.000  0.00  0.00    -0.032 A 
ATOM     16  C   UNL     1       3.252   4.794  -0.696  0.00  0.00    +0.007 A 
ATOM     17  C   UNL     1       2.851   3.472  -0.698  0.00  0.00    +0.028 A 
ATOM     18  C   UNL     1       1.712   3.092  -0.000  0.00  0.00    +0.069 A 
ATOM     19  C   UNL     1       0.977   4.043   0.694  0.00  0.00    +0.048 A 
ATOM     20  C   UNL     1       1.385   5.363   0.697  0.00  0.00    +0.046 A 
ATOM     21 CL   UNL     1       0.469   6.553   1.569  0.00  0.00    -0.083 Cl
ENDBRANCH   1  18
BRANCH   7  22
ATOM     22  C   UNL     1       0.640  -2.695  -0.537  0.00  0.00    -0.023 A 
ATOM     23  C   UNL     1      -0.102  -3.645   0.140  0.00  0.00    +0.012 A 
ATOM     24  C   UNL     1      -1.041  -4.350  -0.537  0.00  0.00    +0.045 A 
ATOM     25  S   UNL     1      -0.896  -3.673  -2.183  0.00  0.00    -0.105 S 
ATOM     26  C   UNL     1       0.403  -2.492  -1.856  0.00  0.00    +0.050 A 
ENDBRANCH   7  22
TORSDOF 2
