REMARK  Name = ZINC11363973
REMARK  5 active torsions:
REMARK  status: ('A' for Active; 'I' for Inactive)
REMARK    1  A    between atoms: C_1  and  C_2
REMARK    2  A    between atoms: C_5  and  N_8
REMARK    3  A    between atoms: C_15  and  S_17
REMARK    4  A    between atoms: S_17  and  C_18
REMARK    5  A    between atoms: C_18  and  C_19
REMARK                            x       y       z     vdW  Elec       q    Type
REMARK                         _______ _______ _______ _____ _____    ______ ____
ROOT
ATOM      1  N   UNL     1       0.057  -4.172  -0.021  0.00  0.00    -0.216 N 
ATOM      2  C   UNL     1       0.697  -4.962   0.874  0.00  0.00    +0.149 A 
ATOM      3  C   UNL     1       0.454  -6.283   0.496  0.00  0.00    +0.103 A 
ATOM      4  C   UNL     1      -0.354  -6.246  -0.657  0.00  0.00    +0.150 A 
ATOM      5  N   UNL     1      -0.589  -4.996  -0.952  0.00  0.00    -0.172 NA
ATOM      6  C   UNL     1       1.041  -7.357   1.307  0.00  0.00    +0.285 A 
ATOM      7  N   UNL     1       1.783  -7.022   2.373  0.00  0.00    -0.185 NA
ATOM      8  C   UNL     1       1.989  -5.762   2.697  0.00  0.00    +0.172 A 
ATOM      9  N   UNL     1       1.471  -4.727   1.983  0.00  0.00    -0.319 N 
ATOM     10  O   UNL     1       0.857  -8.528   1.018  0.00  0.00    -0.265 OA
ATOM     11  H   UNL     1       1.651  -3.815   2.260  0.00  0.00    +0.169 HD
ENDROOT
BRANCH   1  16
ATOM     12  C   UNL     1      -0.018   1.503   0.010  0.00  0.00    +0.044 C 
ATOM     13  C   UNL     1       0.002  -0.004   0.002  0.00  0.00    -0.050 A 
ATOM     14  C   UNL     1       0.006  -0.688  -1.200  0.00  0.00    +0.005 A 
ATOM     15  C   UNL     1       0.024  -2.068  -1.211  0.00  0.00    +0.028 A 
ATOM     16  C   UNL     1       0.039  -2.771  -0.013  0.00  0.00    +0.068 A 
ATOM     17  C   UNL     1       0.036  -2.082   1.192  0.00  0.00    +0.028 A 
ATOM     18  C   UNL     1       0.023  -0.700   1.196  0.00  0.00    +0.005 A 
ENDBRANCH   1  16
BRANCH   8  19
ATOM     19  S   UNL     1       2.975  -5.404   4.113  0.00  0.00    -0.083 S 
BRANCH  19  20
ATOM     20  C   UNL     1       3.445  -7.038   4.745  0.00  0.00    +0.112 C 
BRANCH  20  21
ATOM     21  C   UNL     1       4.303  -6.873   5.973  0.00  0.00    -0.037 A 
ATOM     22  C   UNL     1       5.676  -6.776   5.849  0.00  0.00    +0.005 A 
ATOM     23  C   UNL     1       6.464  -6.625   6.975  0.00  0.00    +0.015 A 
ATOM     24  C   UNL     1       5.877  -6.571   8.226  0.00  0.00    +0.018 A 
ATOM     25  C   UNL     1       4.503  -6.668   8.350  0.00  0.00    +0.015 A 
ATOM     26  C   UNL     1       3.716  -6.814   7.223  0.00  0.00    +0.005 A 
ATOM     27 BR   UNL     1       6.953  -6.364   9.767  0.00  0.00    -0.050 Br
ENDBRANCH  20  21
ENDBRANCH  19  20
ENDBRANCH   8  19
TORSDOF 4
