REMARK  Name = ZINC49490547
REMARK  9 active torsions:
REMARK  status: ('A' for Active; 'I' for Inactive)
REMARK    1  A    between atoms: C_1  and  N_2
REMARK    2  A    between atoms: N_5  and  C_8
REMARK    3  A    between atoms: C_8  and  C_10
REMARK    4  A    between atoms: C_8  and  C_31
REMARK    5  A    between atoms: C_10  and  N_11
REMARK    6  A    between atoms: C_12  and  C_14
REMARK    7  A    between atoms: N_16  and  C_17
REMARK    8  A    between atoms: N_23  and  S_27
REMARK    9  A    between atoms: S_27  and  C_30
REMARK                            x       y       z     vdW  Elec       q    Type
REMARK                         _______ _______ _______ _____ _____    ______ ____
ROOT
ATOM      1  N   UNL     1       1.944  -2.344   2.266  0.00  0.00    -0.306 N 
ATOM      2  C   UNL     1       2.317  -2.907   3.433  0.00  0.00    +0.299 C 
ATOM      3  O   UNL     1       3.336  -3.564   3.491  0.00  0.00    -0.265 OA
ATOM      4  H   UNL     1       1.130  -1.819   2.219  0.00  0.00    +0.149 HD
ENDROOT
BRANCH   2   5
ATOM      5  C   UNL     1       1.475  -2.724   4.653  0.00  0.00    +0.303 C 
ATOM      6  O   UNL     1       0.456  -2.067   4.594  0.00  0.00    -0.265 OA
ATOM      7  N   UNL     1       1.847  -3.288   5.819  0.00  0.00    -0.278 N 
ATOM      8  H   UNL     1       2.624  -3.868   5.851  0.00  0.00    +0.155 HD
BRANCH   7   9
ATOM      9  C   UNL     1       1.114  -3.036   6.981  0.00  0.00    +0.036 A 
ATOM     10  C   UNL     1      -0.267  -2.887   6.917  0.00  0.00    +0.024 A 
ATOM     11  C   UNL     1      -0.990  -2.638   8.066  0.00  0.00    +0.007 A 
ATOM     12  C   UNL     1      -0.348  -2.534   9.290  0.00  0.00    -0.025 A 
ATOM     13  C   UNL     1       1.029  -2.685   9.358  0.00  0.00    +0.056 A 
ATOM     14  C   UNL     1       1.760  -2.940   8.205  0.00  0.00    +0.048 A 
ATOM     15  N   UNL     1       1.700  -2.594  10.583  0.00  0.00    -0.207 N 
ATOM     16  C   UNL     1       0.989  -2.043  11.744  0.00  0.00    +0.131 C 
ATOM     17  C   UNL     1      -0.410  -2.672  11.778  0.00  0.00    +0.025 C 
ATOM     18  C   UNL     1      -1.171  -2.255  10.520  0.00  0.00    +0.038 C 
BRANCH  15  19
ATOM     19  S   UNL     1       3.271  -3.100  10.721  0.00  0.00    +0.043 S 
ATOM     20  O   UNL     1       3.476  -3.269  12.117  0.00  0.00    -0.155 OA
ATOM     21  O   UNL     1       3.375  -4.206   9.835  0.00  0.00    -0.155 OA
ATOM     22  C   UNL     1       4.264  -1.712  10.107  0.00  0.00    +0.218 C 
ENDBRANCH  15  19
ENDBRANCH   7   9
ENDBRANCH   2   5
BRANCH   1  23
ATOM     23  C   UNL     1       2.770  -2.523   1.069  0.00  0.00    +0.128 C 
BRANCH  23  24
ATOM     24  C   UNL     1       2.195  -1.690  -0.077  0.00  0.00    +0.104 C 
BRANCH  24  29
ATOM     25  C   UNL     1       5.606  -0.957  -4.501  0.00  0.00    -0.096 C 
ATOM     26  N   UNL     1       4.744  -0.783  -3.325  0.00  0.00    +0.379 N 
ATOM     27  C   UNL     1       3.399  -1.294  -3.624  0.00  0.00    -0.064 C 
ATOM     28  C   UNL     1       2.495  -1.095  -2.406  0.00  0.00    +0.066 C 
ATOM     29  N   UNL     1       3.065  -1.810  -1.255  0.00  0.00    -0.297 NA
ATOM     30  C   UNL     1       4.421  -1.326  -0.959  0.00  0.00    +0.066 C 
ATOM     31  C   UNL     1       5.309  -1.523  -2.189  0.00  0.00    -0.064 C 
ATOM     32  H   UNL     1       4.686   0.198  -3.093  0.00  0.00    -0.082 HD
ENDBRANCH  24  29
BRANCH  24  33
ATOM     33  C   UNL     1       0.815  -2.191  -0.419  0.00  0.00    -0.029 A 
ATOM     34  C   UNL     1       0.665  -3.320  -1.203  0.00  0.00    +0.008 A 
ATOM     35  C   UNL     1      -0.600  -3.780  -1.517  0.00  0.00    +0.038 A 
ATOM     36  C   UNL     1      -1.717  -3.111  -1.046  0.00  0.00    +0.123 A 
ATOM     37  C   UNL     1      -1.565  -1.980  -0.261  0.00  0.00    +0.038 A 
ATOM     38  C   UNL     1      -0.299  -1.524   0.056  0.00  0.00    +0.008 A 
ATOM     39  F   UNL     1      -2.953  -3.560  -1.353  0.00  0.00    -0.205 F 
ENDBRANCH  24  33
ENDBRANCH  23  24
ENDBRANCH   1  23
TORSDOF 7
