REMARK  Name = ZINC07488695
REMARK  3 active torsions:
REMARK  status: ('A' for Active; 'I' for Inactive)
REMARK    1  A    between atoms: C_6  and  C_7
REMARK    2  A    between atoms: C_8  and  C_9
REMARK    3  A    between atoms: C_8  and  C_11
REMARK                            x       y       z     vdW  Elec       q    Type
REMARK                         _______ _______ _______ _____ _____    ______ ____
ROOT
ATOM      1  C   UNL     1      -0.029   1.357   0.066  0.00  0.00    +0.152 A 
ATOM      2  N   UNL     1      -0.017  -0.009   0.155  0.00  0.00    -0.306 N 
ATOM      3  H   UNL     1      -0.881  -0.502   0.257  0.00  0.00    +0.170 HD
ATOM      4  C   UNL     1       1.137  -0.700   0.108  0.00  0.00    +0.260 A 
ATOM      5  O   UNL     1       1.133  -1.916   0.189  0.00  0.00    -0.267 OA
ATOM      6  C   UNL     1       2.371   0.015  -0.039  0.00  0.00    +0.075 A 
ATOM      7  C   UNL     1       3.727  -0.526  -0.112  0.00  0.00    -0.023 A 
ATOM      8  C   UNL     1       4.734   0.362  -0.253  0.00  0.00    -0.004 A 
ATOM      9  S   UNL     1       3.946   1.949  -0.295  0.00  0.00    -0.073 S 
ATOM     10  C   UNL     1       2.262   1.414  -0.123  0.00  0.00    +0.116 A 
ATOM     11  N   UNL     1       1.093   2.037  -0.070  0.00  0.00    -0.221 NA
ATOM     12  C   UNL     1       6.200   0.063  -0.351  0.00  0.00    +0.043 C 
ATOM     13  C   UNL     1       6.431  -1.385   0.104  0.00  0.00    +0.005 C 
ATOM     14  C   UNL     1       5.411  -2.288  -0.596  0.00  0.00    +0.005 C 
ATOM     15  C   UNL     1       4.012  -2.024  -0.037  0.00  0.00    +0.037 C 
ENDROOT
BRANCH   1  17
ATOM     16  C   UNL     1      -1.335   3.440   0.027  0.00  0.00    +0.030 C 
ATOM     17  C   UNL     1      -1.312   2.077   0.115  0.00  0.00    +0.095 C 
BRANCH  16  23
ATOM     18  C   UNL     1      -3.714   3.530  -0.688  0.00  0.00    +0.011 A 
ATOM     19  C   UNL     1      -4.916   4.198  -0.775  0.00  0.00    +0.042 A 
ATOM     20  C   UNL     1      -5.039   5.481  -0.266  0.00  0.00    +0.158 A 
ATOM     21  C   UNL     1      -3.954   6.103   0.340  0.00  0.00    +0.159 A 
ATOM     22  C   UNL     1      -2.746   5.444   0.439  0.00  0.00    +0.049 A 
ATOM     23  C   UNL     1      -2.616   4.147  -0.074  0.00  0.00    -0.021 A 
ATOM     24  F   UNL     1      -4.082   7.354   0.833  0.00  0.00    -0.202 F 
ATOM     25  F   UNL     1      -6.220   6.131  -0.360  0.00  0.00    -0.202 F 
ENDBRANCH  16  23
BRANCH  17  26
ATOM     26  C   UNL     1      -2.537   1.348   0.257  0.00  0.00    +0.103 C 
ATOM     27  N   UNL     1      -3.509   0.770   0.368  0.00  0.00    -0.191 NA
ENDBRANCH  17  26
ENDBRANCH   1  17
TORSDOF 3
