REMARK  Name = ZINC04070386
REMARK  3 active torsions:
REMARK  status: ('A' for Active; 'I' for Inactive)
REMARK    1  A    between atoms: C_4  and  N_22
REMARK    2  A    between atoms: C_5  and  C_7
REMARK    3  A    between atoms: C_13  and  C_15
REMARK                            x       y       z     vdW  Elec       q    Type
REMARK                         _______ _______ _______ _____ _____    ______ ____
ROOT
ATOM      1  C   UNL     1       3.905   3.064   0.018  0.00  0.00    +0.252 C 
ATOM      2  O   UNL     1       4.475   1.990   0.004  0.00  0.00    -0.270 OA
ATOM      3  N   UNL     1       2.558   3.111   0.051  0.00  0.00    -0.259 N 
ATOM      4  C   UNL     1       1.823   1.933   0.070  0.00  0.00    +0.188 A 
ATOM      5  N   UNL     1       2.233   0.671   0.060  0.00  0.00    -0.125 NA
ATOM      6  N   UNL     1       1.421  -0.294   0.080  0.00  0.00    -0.140 NA
ATOM      7  C   UNL     1       0.108  -0.105   0.113  0.00  0.00    +0.134 A 
ATOM      8  S   UNL     1       0.050   1.685   0.114  0.00  0.00    -0.030 S 
ATOM      9  H   UNL     1       2.103   3.967   0.062  0.00  0.00    +0.157 HD
ENDROOT
BRANCH   7  10
ATOM     10  C   UNL     1      -0.993  -1.091   0.140  0.00  0.00    +0.009 A 
ATOM     11  C   UNL     1      -2.320  -0.658   0.178  0.00  0.00    +0.012 A 
ATOM     12  C   UNL     1      -3.343  -1.583   0.197  0.00  0.00    +0.016 A 
ATOM     13  C   UNL     1      -3.056  -2.938   0.191  0.00  0.00    +0.018 A 
ATOM     14  C   UNL     1      -1.742  -3.373   0.159  0.00  0.00    +0.016 A 
ATOM     15  C   UNL     1      -0.711  -2.457   0.133  0.00  0.00    +0.012 A 
ATOM     16 BR   UNL     1      -4.465  -4.199   0.226  0.00  0.00    -0.050 Br
ENDBRANCH   7  10
BRANCH   1  21
ATOM     17  C   UNL     1       5.236   6.443   0.972  0.00  0.00    +0.001 A 
ATOM     18  C   UNL     1       6.153   6.666  -0.039  0.00  0.00    +0.002 A 
ATOM     19  C   UNL     1       6.342   5.721  -1.032  0.00  0.00    +0.033 A 
ATOM     20  C   UNL     1       5.614   4.549  -1.019  0.00  0.00    +0.138 A 
ATOM     21  C   UNL     1       4.687   4.317  -0.002  0.00  0.00    +0.067 A 
ATOM     22  C   UNL     1       4.499   5.277   0.994  0.00  0.00    +0.015 A 
BRANCH  20  23
ATOM     23  N   UNL     1       5.816   3.539  -2.083  0.00  0.00    +0.057 N 
ATOM     24  O   UNL     1       6.706   3.686  -2.901  0.00  0.00    -0.126 OA
ATOM     25  O   UNL     1       5.093   2.561  -2.139  0.00  0.00    -0.126 OA
ENDBRANCH  20  23
ENDBRANCH   1  21
TORSDOF 3
