REMARK  Name = ZINC40987609
REMARK  6 active torsions:
REMARK  status: ('A' for Active; 'I' for Inactive)
REMARK    1  A    between atoms: C_1  and  C_2
REMARK    2  A    between atoms: C_5  and  C_8
REMARK    3  A    between atoms: C_8  and  C_10
REMARK    4  A    between atoms: C_11  and  N_19
REMARK    5  A    between atoms: C_20  and  C_22
REMARK    6  A    between atoms: N_25  and  C_27
REMARK                            x       y       z     vdW  Elec       q    Type
REMARK                         _______ _______ _______ _____ _____    ______ ____
ROOT
ATOM      1  N   UNL     1      -0.127  -7.295   0.302  0.00  0.00    -0.277 N 
ATOM      2  C   UNL     1       0.154  -6.917  -0.960  0.00  0.00    +0.269 C 
ATOM      3  O   UNL     1       0.330  -5.742  -1.218  0.00  0.00    -0.268 OA
ATOM      4  H   UNL     1      -0.344  -8.220   0.495  0.00  0.00    +0.155 HD
ENDROOT
BRANCH   1   6
ATOM      5  C   UNL     1       0.294  -6.563   2.634  0.00  0.00    +0.197 A 
ATOM      6  C   UNL     1      -0.107  -6.360   1.327  0.00  0.00    +0.091 A 
ATOM      7  C   UNL     1      -0.507  -4.950   1.249  0.00  0.00    +0.042 A 
ATOM      8  C   UNL     1      -0.997  -4.137   0.225  0.00  0.00    +0.013 A 
ATOM      9  C   UNL     1      -1.282  -2.825   0.479  0.00  0.00    +0.001 A 
ATOM     10  C   UNL     1      -1.087  -2.297   1.748  0.00  0.00    +0.004 A 
ATOM     11  C   UNL     1      -0.604  -3.083   2.771  0.00  0.00    +0.047 A 
ATOM     12  C   UNL     1      -0.307  -4.422   2.536  0.00  0.00    +0.138 A 
ATOM     13  O   UNL     1       0.162  -5.409   3.325  0.00  0.00    -0.450 OA
BRANCH   5  14
ATOM     14  C   UNL     1       0.764  -7.788   3.166  0.00  0.00    +0.230 C 
ATOM     15  O   UNL     1       0.930  -8.747   2.433  0.00  0.00    -0.283 OA
BRANCH  14  20
ATOM     16  C   UNL     1       1.891  -8.237   8.793  0.00  0.00    +0.044 C 
ATOM     17  C   UNL     1       1.596  -8.119   7.319  0.00  0.00    -0.050 A 
ATOM     18  C   UNL     1       1.660  -9.242   6.512  0.00  0.00    +0.004 A 
ATOM     19  C   UNL     1       1.391  -9.141   5.163  0.00  0.00    +0.012 A 
ATOM     20  C   UNL     1       1.054  -7.903   4.612  0.00  0.00    +0.025 A 
ATOM     21  C   UNL     1       0.992  -6.775   5.432  0.00  0.00    +0.012 A 
ATOM     22  C   UNL     1       1.258  -6.891   6.781  0.00  0.00    +0.004 A 
ENDBRANCH  14  20
ENDBRANCH   5  14
ENDBRANCH   1   6
BRANCH   2  23
ATOM     23  C   UNL     1       0.249  -7.929  -2.030  0.00  0.00    +0.151 A 
ATOM     24  C   UNL     1       0.539  -7.694  -3.385  0.00  0.00    +0.006 A 
ATOM     25  C   UNL     1       0.519  -8.909  -3.986  0.00  0.00    +0.044 A 
ATOM     26  N   UNL     1       0.236  -9.818  -3.038  0.00  0.00    -0.263 N 
ATOM     27  N   UNL     1       0.084  -9.235  -1.899  0.00  0.00    -0.166 NA
ATOM     28  C   UNL     1       0.776  -9.124  -5.456  0.00  0.00    +0.055 C 
ATOM     29  C   UNL     1       0.635  -7.774  -6.172  0.00  0.00    +0.006 C 
ATOM     30  C   UNL     1       1.469  -6.716  -5.445  0.00  0.00    +0.005 C 
ATOM     31  C   UNL     1       0.823  -6.397  -4.090  0.00  0.00    +0.039 C 
BRANCH  26  32
ATOM     32  C   UNL     1       0.121 -11.261  -3.265  0.00  0.00    +0.130 C 
ATOM     33  C   UNL     1      -1.278 -11.742  -2.849  0.00  0.00    +0.051 C 
ATOM     34  C   UNL     1      -1.305 -13.288  -2.779  0.00  0.00    +0.168 C 
ATOM     35  S   UNL     1       0.441 -13.705  -2.379  0.00  0.00    -0.029 S 
ATOM     36  O   UNL     1       0.502 -14.220  -1.056  0.00  0.00    -0.174 OA
ATOM     37  O   UNL     1       0.993 -14.460  -3.449  0.00  0.00    -0.174 OA
ATOM     38  C   UNL     1       1.170 -12.014  -2.397  0.00  0.00    +0.192 C 
ENDBRANCH  26  32
ENDBRANCH   2  23
TORSDOF 5
