REMARK  Name = ZINC59462409
REMARK  7 active torsions:
REMARK  status: ('A' for Active; 'I' for Inactive)
REMARK    1  A    between atoms: C_1  and  C_2
REMARK    2  A    between atoms: C_2  and  O_3
REMARK    3  A    between atoms: N_4  and  C_5
REMARK    4  A    between atoms: C_7  and  S_13
REMARK    5  A    between atoms: C_10  and  C_12
REMARK    6  A    between atoms: S_13  and  C_14
REMARK    7  A    between atoms: C_14  and  C_15
REMARK                            x       y       z     vdW  Elec       q    Type
REMARK                         _______ _______ _______ _____ _____    ______ ____
ROOT
ATOM      1  C   UNL     1       0.019  -2.018  -1.135  0.00  0.00    +0.273 A 
ATOM      2  N   UNL     1       0.034  -2.803  -0.045  0.00  0.00    -0.184 NA
ATOM      3  C   UNL     1       0.050  -4.066  -0.408  0.00  0.00    +0.196 A 
ATOM      4  N   UNL     1       0.044  -4.109  -1.774  0.00  0.00    -0.172 N 
ATOM      5  N   UNL     1       0.019  -2.775  -2.211  0.00  0.00    -0.121 NA
ATOM      6  C   UNL     1       0.057  -5.213  -2.547  0.00  0.00    +0.247 C 
ATOM      7  O   UNL     1       0.075  -6.312  -2.036  0.00  0.00    -0.271 OA
ATOM      8  C   UNL     1       0.049  -5.081  -4.049  0.00  0.00    +0.114 C 
ENDROOT
BRANCH   1  11
ATOM      9  C   UNL     1      -0.018   1.503   0.010  0.00  0.00    +0.109 C 
ATOM     10  C   UNL     1       0.002  -0.004   0.002  0.00  0.00    +0.187 C 
ATOM     11  N   UNL     1       0.000  -0.648  -1.127  0.00  0.00    -0.179 NA
BRANCH  10  12
ATOM     12  O   UNL     1       0.022  -0.684   1.166  0.00  0.00    -0.496 OA
ATOM     13  H   UNL     1       0.022  -0.120   1.951  0.00  0.00    +0.293 HD
ENDBRANCH  10  12
ENDBRANCH   1  11
BRANCH   3  14
ATOM     14  S   UNL     1       0.073  -5.456   0.674  0.00  0.00    -0.081 S 
BRANCH  14  15
ATOM     15  C   UNL     1       0.070  -4.722   2.333  0.00  0.00    +0.114 C 
BRANCH  15  16
ATOM     16  C   UNL     1       0.090  -5.817   3.368  0.00  0.00    -0.019 A 
ATOM     17  C   UNL     1      -1.098  -6.340   3.843  0.00  0.00    +0.007 A 
ATOM     18  C   UNL     1      -1.081  -7.345   4.792  0.00  0.00    +0.020 A 
ATOM     19  C   UNL     1       0.125  -7.828   5.267  0.00  0.00    +0.042 A 
ATOM     20  C   UNL     1       1.315  -7.305   4.791  0.00  0.00    +0.040 A 
ATOM     21  C   UNL     1       1.297  -6.303   3.838  0.00  0.00    +0.046 A 
ATOM     22 CL   UNL     1       2.789  -5.651   3.236  0.00  0.00    -0.083 Cl
ATOM     23 CL   UNL     1       0.147  -9.089   6.459  0.00  0.00    -0.083 Cl
ENDBRANCH  15  16
ENDBRANCH  14  15
ENDBRANCH   3  14
TORSDOF 5
