REMARK  Name = ZINC43711356
REMARK  4 active torsions:
REMARK  status: ('A' for Active; 'I' for Inactive)
REMARK    1  A    between atoms: C_9  and  C_10
REMARK    2  A    between atoms: C_10  and  N_11
REMARK    3  A    between atoms: N_14  and  N_15
REMARK    4  A    between atoms: C_16  and  C_18
REMARK                            x       y       z     vdW  Elec       q    Type
REMARK                         _______ _______ _______ _____ _____    ______ ____
ROOT
ATOM      1  N   UNL     1       5.383  -0.475   1.327  0.00  0.00    -0.291 N 
ATOM      2  C   UNL     1       6.684  -0.213   1.562  0.00  0.00    +0.316 C 
ATOM      3  O   UNL     1       7.449  -0.050   0.630  0.00  0.00    -0.251 OA
ATOM      4  N   UNL     1       7.137  -0.130   2.828  0.00  0.00    -0.218 N 
ATOM      5  H   UNL     1       4.773  -0.605   2.070  0.00  0.00    +0.151 HD
ATOM      6  H   UNL     1       8.073   0.059   2.997  0.00  0.00    +0.174 HD
ENDROOT
BRANCH   4   7
ATOM      7  N   UNL     1       6.256  -0.318   3.901  0.00  0.00    -0.229 N 
ATOM      8  C   UNL     1       6.709  -0.236   5.168  0.00  0.00    +0.267 C 
ATOM      9  O   UNL     1       7.883   0.002   5.379  0.00  0.00    -0.268 OA
ATOM     10  H   UNL     1       5.319  -0.507   3.732  0.00  0.00    +0.173 HD
BRANCH   8  11
ATOM     11  C   UNL     1       5.787  -0.432   6.290  0.00  0.00    +0.076 A 
ATOM     12  C   UNL     1       6.039  -0.385   7.644  0.00  0.00    +0.024 A 
ATOM     13  C   UNL     1       4.963  -0.640   8.500  0.00  0.00    -0.036 A 
ATOM     14  C   UNL     1       3.786  -0.948   7.924  0.00  0.00    -0.006 A 
ATOM     15  S   UNL     1       4.042  -0.785   6.266  0.00  0.00    -0.088 S 
ATOM     16  C   UNL     1       2.472  -1.431   8.486  0.00  0.00    +0.043 C 
ATOM     17  C   UNL     1       2.521  -1.610  10.004  0.00  0.00    +0.005 C 
ATOM     18  C   UNL     1       2.370  -0.275  10.714  0.00  0.00    +0.000 C 
ATOM     19  C   UNL     1       3.083   0.856  10.001  0.00  0.00    +0.000 C 
ATOM     20  C   UNL     1       4.545   0.818  10.459  0.00  0.00    +0.005 C 
ATOM     21  C   UNL     1       5.173  -0.498  10.000  0.00  0.00    +0.036 C 
ENDBRANCH   8  11
ENDBRANCH   4   7
BRANCH   1  22
ATOM     22  C   UNL     1       4.890  -0.565  -0.050  0.00  0.00    +0.182 C 
BRANCH  22  31
ATOM     23  C   UNL     1      -0.016   1.356   0.009  0.00  0.00    +0.005 A 
ATOM     24  C   UNL     1       1.194   2.070   0.002  0.00  0.00    +0.018 A 
ATOM     25  C   UNL     1       2.373   1.413  -0.013  0.00  0.00    +0.094 A 
ATOM     26  N   UNL     1       2.407   0.050  -0.021  0.00  0.00    -0.285 N 
ATOM     27  C   UNL     1       1.240  -0.675  -0.014  0.00  0.00    +0.161 A 
ATOM     28  C   UNL     1       0.002  -0.004   0.002  0.00  0.00    +0.048 A 
ATOM     29  N   UNL     1       1.583  -1.953  -0.025  0.00  0.00    -0.129 NA
ATOM     30  N   UNL     1       2.866  -2.053  -0.038  0.00  0.00    -0.132 NA
ATOM     31  C   UNL     1       3.413  -0.865  -0.037  0.00  0.00    +0.155 A 
ENDBRANCH  22  31
ENDBRANCH   1  22
TORSDOF 4
