REMARK  Name = ZINC24001801
REMARK  5 active torsions:
REMARK  status: ('A' for Active; 'I' for Inactive)
REMARK    1  A    between atoms: C_1  and  C_2
REMARK    2  A    between atoms: C_3  and  C_30
REMARK    3  A    between atoms: N_8  and  C_9
REMARK    4  A    between atoms: C_20  and  C_23
REMARK    5  A    between atoms: C_23  and  N_24
REMARK                            x       y       z     vdW  Elec       q    Type
REMARK                         _______ _______ _______ _____ _____    ______ ____
ROOT
ATOM      1  C   UNL     1       1.886   1.282   7.801  0.00  0.00    +0.045 C 
ATOM      2  C   UNL     1       0.685   0.847   7.002  0.00  0.00    -0.028 A 
ATOM      3  C   UNL     1       0.020  -0.274   7.329  0.00  0.00    -0.008 A 
ATOM      4  S   UNL     1      -1.282  -0.346   6.113  0.00  0.00    -0.075 S 
ATOM      5  C   UNL     1      -0.892   1.127   5.209  0.00  0.00    +0.090 A 
ATOM      6  C   UNL     1       0.232   1.632   5.871  0.00  0.00    +0.051 A 
ATOM      7  C   UNL     1       0.780   2.892   5.308  0.00  0.00    +0.143 A 
ATOM      8  N   UNL     1       1.845   3.465   5.853  0.00  0.00    -0.339 N 
ATOM      9  N   UNL     1       0.180   3.443   4.237  0.00  0.00    -0.215 NA
ATOM     10  C   UNL     1      -0.867   2.912   3.672  0.00  0.00    +0.124 A 
ATOM     11  N   UNL     1      -1.423   1.770   4.133  0.00  0.00    -0.336 N 
ATOM     12  H   UNL     1      -2.313   1.360   3.632  0.00  0.00    +0.168 HD
ATOM     13  C   UNL     1       0.306  -1.238   8.453  0.00  0.00    +0.052 C 
ATOM     14  H   UNL     1       2.276   3.058   6.780  0.00  0.00    +0.167 HD
ENDROOT
BRANCH   8  15
ATOM     15  C   UNL     1       2.406   4.561   5.265  0.00  0.00    +0.043 A 
ATOM     16  C   UNL     1       2.028   5.849   5.699  0.00  0.00    +0.026 A 
ATOM     17  C   UNL     1       2.556   6.965   5.148  0.00  0.00    +0.013 A 
ATOM     18  C   UNL     1       3.510   6.856   4.111  0.00  0.00    +0.020 A 
ATOM     19  C   UNL     1       4.224   7.764   3.353  0.00  0.00    +0.113 A 
ATOM     20  N   UNL     1       4.997   7.074   2.502  0.00  0.00    -0.284 N 
ATOM     21  H   UNL     1       5.654   7.608   1.799  0.00  0.00    +0.188 HD
ATOM     22  N   UNL     1       4.803   5.701   2.686  0.00  0.00    -0.174 NA
ATOM     23  C   UNL     1       3.914   5.519   3.647  0.00  0.00    +0.094 A 
ATOM     24  C   UNL     1       3.338   4.387   4.258  0.00  0.00    +0.055 A 
ENDBRANCH   8  15
BRANCH  10  25
ATOM     25  C   UNL     1      -1.478   3.594   2.476  0.00  0.00    +0.158 C 
BRANCH  25  26
ATOM     26  N   UNL     1      -0.853   3.083   1.248  0.00  0.00    -0.291 NA
ATOM     27  C   UNL     1      -0.768   1.616   1.273  0.00  0.00    +0.113 C 
ATOM     28  C   UNL     1      -0.060   1.130   0.005  0.00  0.00    +0.175 C 
ATOM     29  O   UNL     1      -0.762   1.614  -1.143  0.00  0.00    -0.377 OA
ATOM     30  C   UNL     1      -0.862   3.039  -1.198  0.00  0.00    +0.175 C 
ATOM     31  C   UNL     1      -1.580   3.544   0.056  0.00  0.00    +0.113 C 
ENDBRANCH  25  26
ENDBRANCH  10  25
TORSDOF 3
