REMARK  Name = ZINC39672888
REMARK  6 active torsions:
REMARK  status: ('A' for Active; 'I' for Inactive)
REMARK    1  A    between atoms: C_1  and  C_2
REMARK    2  A    between atoms: C_5  and  C_10
REMARK    3  A    between atoms: C_14  and  C_23
REMARK    4  A    between atoms: N_25  and  C_26
REMARK    5  A    between atoms: C_26  and  C_27
REMARK    6  A    between atoms: C_27  and  N_33
REMARK                            x       y       z     vdW  Elec       q    Type
REMARK                         _______ _______ _______ _____ _____    ______ ____
ROOT
ATOM      1  C   UNL     1       0.111  -4.775   0.092  0.00  0.00    +0.250 C 
ATOM      2  O   UNL     1       0.163  -5.469   1.089  0.00  0.00    -0.270 OA
ATOM      3  N   UNL     1      -0.018  -5.348  -1.121  0.00  0.00    -0.296 N 
ATOM      4  C   UNL     1       0.003  -4.683  -2.445  0.00  0.00    +0.121 C 
ATOM      5  C   UNL     1       0.795  -5.649  -3.355  0.00  0.00    +0.100 C 
ATOM      6  C   UNL     1       0.649  -7.026  -2.686  0.00  0.00    -0.004 C 
ATOM      7  C   UNL     1      -0.206  -6.785  -1.433  0.00  0.00    +0.115 C 
ATOM      8  C   UNL     1      -0.055  -7.998  -3.627  0.00  0.00    -0.010 C 
ATOM      9  C   UNL     1      -0.137  -9.376  -2.963  0.00  0.00    -0.082 C 
ATOM     10  N   UNL     1       1.217  -9.854  -2.656  0.00  0.00    +0.379 N 
ATOM     11  C   UNL     1       1.852  -8.963  -1.678  0.00  0.00    -0.082 C 
ATOM     12  C   UNL     1       2.018  -7.568  -2.288  0.00  0.00    -0.010 C 
ATOM     13  H   UNL     1       1.164 -10.787  -2.274  0.00  0.00    -0.086 HD
ATOM     14  H   UNL     1       1.766  -9.870  -3.501  0.00  0.00    -0.086 HD
ENDROOT
BRANCH   1  19
ATOM     15  C   UNL     1       0.408   0.955   0.550  0.00  0.00    +0.047 C 
ATOM     16  C   UNL     1       0.332  -0.545   0.432  0.00  0.00    -0.012 A 
ATOM     17  C   UNL     1      -0.346  -1.119  -0.630  0.00  0.00    +0.007 A 
ATOM     18  C   UNL     1      -0.421  -2.491  -0.746  0.00  0.00    +0.016 A 
ATOM     19  C   UNL     1       0.189  -3.305   0.211  0.00  0.00    +0.075 A 
ATOM     20  C   UNL     1       0.872  -2.723   1.282  0.00  0.00    +0.171 A 
ATOM     21  C   UNL     1       0.944  -1.343   1.383  0.00  0.00    +0.162 A 
ATOM     22  F   UNL     1       1.609  -0.775   2.413  0.00  0.00    -0.202 F 
ATOM     23  F   UNL     1       1.465  -3.502   2.213  0.00  0.00    -0.202 F 
ENDBRANCH   1  19
BRANCH   5  24
ATOM     24  C   UNL     1       0.202  -5.670  -4.740  0.00  0.00    +0.218 C 
ATOM     25  O   UNL     1      -0.966  -5.387  -4.904  0.00  0.00    -0.275 OA
ATOM     26  N   UNL     1       0.970  -6.003  -5.796  0.00  0.00    -0.313 N 
ATOM     27  H   UNL     1       1.904  -6.229  -5.665  0.00  0.00    +0.149 HD
BRANCH  26  28
ATOM     28  C   UNL     1       0.394  -6.024  -7.143  0.00  0.00    +0.126 C 
BRANCH  28  29
ATOM     29  C   UNL     1       1.496  -6.310  -8.165  0.00  0.00    +0.038 C 
ATOM     30  C   UNL     1       0.919  -6.208  -9.579  0.00  0.00    +0.024 C 
ATOM     31  C   UNL     1      -0.208  -7.229  -9.745  0.00  0.00    +0.002 C 
ATOM     32  C   UNL     1       0.344  -8.639  -9.519  0.00  0.00    +0.000 C 
ATOM     33  C   UNL     1       0.920  -8.741  -8.106  0.00  0.00    +0.002 C 
ATOM     34  C   UNL     1       2.047  -7.719  -7.939  0.00  0.00    +0.024 C 
BRANCH  29  35
ATOM     35  N   UNL     1       2.578  -5.329  -8.006  0.00  0.00    -0.291 NA
ATOM     36  C   UNL     1       2.053  -3.957  -8.033  0.00  0.00    +0.113 C 
ATOM     37  C   UNL     1       3.203  -2.972  -7.804  0.00  0.00    +0.175 C 
ATOM     38  O   UNL     1       4.211  -3.186  -8.796  0.00  0.00    -0.377 OA
ATOM     39  C   UNL     1       4.745  -4.512  -8.796  0.00  0.00    +0.175 C 
ATOM     40  C   UNL     1       3.611  -5.513  -9.035  0.00  0.00    +0.113 C 
ENDBRANCH  29  35
ENDBRANCH  28  29
ENDBRANCH  26  28
ENDBRANCH   5  24
TORSDOF 5
