REMARK  Name = ZINC36290275
REMARK  8 active torsions:
REMARK  status: ('A' for Active; 'I' for Inactive)
REMARK    1  A    between atoms: C_1  and  C_2
REMARK    2  A    between atoms: C_2  and  C_3
REMARK    3  A    between atoms: C_2  and  C_4
REMARK    4  A    between atoms: C_2  and  C_5
REMARK    5  A    between atoms: C_6  and  N_21
REMARK    6  A    between atoms: C_8  and  C_13
REMARK    7  A    between atoms: C_16  and  O_19
REMARK    8  A    between atoms: O_19  and  C_20
REMARK                            x       y       z     vdW  Elec       q    Type
REMARK                         _______ _______ _______ _____ _____    ______ ____
ROOT
ATOM      1  C   UNL     1       0.707  -0.490  -1.238  0.00  0.00    +0.088 A 
ATOM      2  C   UNL     1       0.907  -1.779  -1.579  0.00  0.00    +0.125 A 
ATOM      3  N   UNL     1       1.593  -1.794  -2.790  0.00  0.00    -0.274 N 
ATOM      4  C   UNL     1       2.101  -2.727  -3.679  0.00  0.00    +0.064 A 
ATOM      5  C   UNL     1       2.733  -2.325  -4.797  0.00  0.00    +0.075 A 
ATOM      6  S   UNL     1       2.644  -0.548  -4.657  0.00  0.00    -0.057 S 
ATOM      7  C   UNL     1       1.768  -0.470  -3.112  0.00  0.00    +0.179 A 
ATOM      8  N   UNL     1       1.241   0.288  -2.198  0.00  0.00    -0.224 NA
ENDROOT
BRANCH   4   9
ATOM      9  C   UNL     1       1.950  -4.171  -3.397  0.00  0.00    -0.000 A 
ATOM     10  C   UNL     1       0.680  -4.750  -3.376  0.00  0.00    +0.013 A 
ATOM     11  C   UNL     1       0.542  -6.097  -3.113  0.00  0.00    +0.046 A 
ATOM     12  C   UNL     1       1.665  -6.877  -2.870  0.00  0.00    +0.120 A 
ATOM     13  C   UNL     1       2.930  -6.304  -2.890  0.00  0.00    +0.046 A 
ATOM     14  C   UNL     1       3.076  -4.960  -3.157  0.00  0.00    +0.013 A 
BRANCH  12  15
ATOM     15  O   UNL     1       1.526  -8.204  -2.612  0.00  0.00    -0.495 OA
ATOM     16  C   UNL     1       2.722  -8.947  -2.370  0.00  0.00    +0.277 C 
ENDBRANCH  12  15
ENDBRANCH   4   9
BRANCH   1  18
ATOM     17  C   UNL     1      -0.019   1.526   0.010  0.00  0.00    +0.017 C 
ATOM     18  C   UNL     1       0.002  -0.004   0.002  0.00  0.00    +0.008 C 
ATOM     19  C   UNL     1       0.742  -0.511   1.242  0.00  0.00    +0.017 C 
ATOM     20  C   UNL     1      -1.433  -0.534   0.013  0.00  0.00    +0.017 C 
ENDBRANCH   1  18
BRANCH   2  21
ATOM     21  N   UNL     1       0.498  -2.902  -0.845  0.00  0.00    -0.343 N 
ATOM     22  H   UNL     1       0.023  -2.788  -0.007  0.00  0.00    +0.144 HD
ATOM     23  H   UNL     1       0.690  -3.794  -1.176  0.00  0.00    +0.144 HD
ENDBRANCH   2  21
TORSDOF 4
