REMARK  Name = ZINC41154923
REMARK  4 active torsions:
REMARK  status: ('A' for Active; 'I' for Inactive)
REMARK    1  A    between atoms: C_1  and  C_2
REMARK    2  A    between atoms: C_7  and  C_9
REMARK    3  A    between atoms: C_7  and  N_21
REMARK    4  A    between atoms: C_11  and  C_14
REMARK                            x       y       z     vdW  Elec       q    Type
REMARK                         _______ _______ _______ _____ _____    ______ ____
ROOT
ATOM      1  C   UNL     1       1.492  -2.540   2.454  0.00  0.00    +0.161 A 
ATOM      2  N   UNL     1       1.700  -3.822   2.761  0.00  0.00    -0.193 NA
ATOM      3  C   UNL     1       2.367  -3.911   3.890  0.00  0.00    +0.259 A 
ATOM      4  O   UNL     1       2.600  -2.664   4.334  0.00  0.00    -0.333 OA
ATOM      5  N   UNL     1       2.024  -1.789   3.376  0.00  0.00    -0.062 NA
ENDROOT
BRANCH   1  11
ATOM      6  C   UNL     1      -0.019   1.526   0.010  0.00  0.00    +0.007 C 
ATOM      7  C   UNL     1       0.002  -0.004   0.002  0.00  0.00    -0.015 C 
ATOM      8  C   UNL     1       0.718  -0.497  -1.257  0.00  0.00    +0.003 C 
ATOM      9  C   UNL     1       0.739  -2.027  -1.265  0.00  0.00    -0.001 C 
ATOM     10  C   UNL     1       1.479  -2.534  -0.026  0.00  0.00    -0.005 C 
ATOM     11  C   UNL     1       0.763  -2.041   1.233  0.00  0.00    -0.006 C 
ATOM     12  C   UNL     1       0.742  -0.511   1.242  0.00  0.00    -0.002 C 
BRANCH  11  13
ATOM     13  N   UNL     1      -0.615  -2.549   1.244  0.00  0.00    +0.387 N 
ATOM     14  H   UNL     1      -0.602  -3.558   1.238  0.00  0.00    -0.089 HD
ATOM     15  H   UNL     1      -1.088  -2.224   2.074  0.00  0.00    -0.089 HD
ATOM     16  H   UNL     1      -1.103  -2.215   0.426  0.00  0.00    -0.089 HD
ENDBRANCH  11  13
ENDBRANCH   1  11
BRANCH   3  17
ATOM     17  C   UNL     1       2.785  -5.163   4.555  0.00  0.00    +0.053 A 
ATOM     18  C   UNL     1       2.481  -6.398   3.980  0.00  0.00    +0.014 A 
ATOM     19  C   UNL     1       2.874  -7.562   4.606  0.00  0.00    +0.001 A 
ATOM     20  C   UNL     1       3.570  -7.508   5.802  0.00  0.00    +0.001 A 
ATOM     21  C   UNL     1       3.875  -6.288   6.377  0.00  0.00    +0.015 A 
ATOM     22  C   UNL     1       3.492  -5.115   5.758  0.00  0.00    +0.026 A 
ATOM     23  I   UNL     1       3.963  -3.268   6.627  0.00  0.00    -0.043 I 
ENDBRANCH   3  17
TORSDOF 3
