REMARK  Name = ZINC36648106
REMARK  9 active torsions:
REMARK  status: ('A' for Active; 'I' for Inactive)
REMARK    1  A    between atoms: C_1  and  C_2
REMARK    2  A    between atoms: N_11  and  C_12
REMARK    3  A    between atoms: C_12  and  C_13
REMARK    4  A    between atoms: C_13  and  N_14
REMARK    5  A    between atoms: N_14  and  C_15
REMARK    6  A    between atoms: N_14  and  C_16
REMARK    7  A    between atoms: C_17  and  C_19
REMARK    8  A    between atoms: N_25  and  S_26
REMARK    9  A    between atoms: S_26  and  C_29
REMARK                            x       y       z     vdW  Elec       q    Type
REMARK                         _______ _______ _______ _____ _____    ______ ____
ROOT
ATOM      1  C   UNL     1      -0.577   0.718   0.523  0.00  0.00    +0.047 C 
ATOM      2  C   UNL     1      -0.760  -0.724   0.920  0.00  0.00    -0.006 A 
ATOM      3  C   UNL     1      -0.867  -1.687  -0.051  0.00  0.00    +0.046 A 
ATOM      4  C   UNL     1      -1.037  -3.026   0.272  0.00  0.00    +0.021 A 
ATOM      5  C   UNL     1      -1.099  -3.400   1.602  0.00  0.00    +0.019 A 
ATOM      6  C   UNL     1      -0.993  -2.443   2.580  0.00  0.00    +0.041 A 
ATOM      7  C   UNL     1      -0.814  -1.071   2.290  0.00  0.00    +0.085 A 
ATOM      8  N   UNL     1      -0.721  -0.253   3.361  0.00  0.00    -0.224 NA
ATOM      9  C   UNL     1      -0.787  -0.697   4.595  0.00  0.00    +0.168 A 
ATOM     10  S   UNL     1      -1.016  -2.454   4.356  0.00  0.00    -0.052 S 
ATOM     11  N   UNL     1      -0.708   0.016   5.780  0.00  0.00    -0.251 N 
ATOM     12  C   UNL     1      -0.541   1.353   5.752  0.00  0.00    +0.240 C 
ATOM     13  O   UNL     1      -0.554   1.944   4.692  0.00  0.00    -0.273 OA
ATOM     14 CL   UNL     1      -0.790  -1.220  -1.721  0.00  0.00    -0.083 Cl
ENDROOT
BRANCH  12  15
ATOM     15  C   UNL     1      -0.337   2.114   7.036  0.00  0.00    +0.166 C 
ATOM     16  C   UNL     1       1.020   2.824   7.003  0.00  0.00    +0.030 C 
ATOM     17  C   UNL     1       1.161   3.705   8.247  0.00  0.00    +0.003 C 
ATOM     18  C   UNL     1       0.060   4.768   8.248  0.00  0.00    +0.017 C 
ATOM     19  C   UNL     1      -1.308   4.080   8.295  0.00  0.00    +0.110 C 
ATOM     20  N   UNL     1      -1.397   3.121   7.186  0.00  0.00    -0.164 NA
BRANCH  20  21
ATOM     21  S   UNL     1      -2.664   3.176   6.121  0.00  0.00    +0.068 S 
ATOM     22  O   UNL     1      -2.764   1.883   5.541  0.00  0.00    -0.152 OA
ATOM     23  O   UNL     1      -3.746   3.788   6.809  0.00  0.00    -0.152 OA
BRANCH  21  24
ATOM     24  C   UNL     1      -2.207   4.276   4.823  0.00  0.00    +0.143 A 
ATOM     25  C   UNL     1      -1.693   3.989   3.602  0.00  0.00    +0.036 A 
ATOM     26  C   UNL     1      -1.407   5.026   2.734  0.00  0.00    +0.010 A 
ATOM     27  C   UNL     1      -1.649   6.300   3.130  0.00  0.00    +0.047 A 
ATOM     28  S   UNL     1      -2.306   6.058   4.772  0.00  0.00    -0.077 S 
ENDBRANCH  21  24
ENDBRANCH  20  21
ENDBRANCH  12  15
BRANCH  11  29
ATOM     29  C   UNL     1      -0.805  -0.683   7.063  0.00  0.00    +0.097 C 
BRANCH  29  30
ATOM     30  C   UNL     1       0.588  -1.135   7.505  0.00  0.00    -0.060 C 
BRANCH  30  31
ATOM     31  N   UNL     1       0.475  -1.948   8.724  0.00  0.00    +0.377 N 
ATOM     32  C   UNL     1       1.797  -2.481   9.080  0.00  0.00    -0.097 C 
ATOM     33  C   UNL     1      -0.030  -1.115   9.823  0.00  0.00    -0.097 C 
ATOM     34  H   UNL     1      -0.162  -2.712   8.560  0.00  0.00    -0.083 HD
ENDBRANCH  30  31
ENDBRANCH  29  30
ENDBRANCH  11  29
TORSDOF 6
