REMARK  Name = ZINC59301966
REMARK  12 active torsions:
REMARK  status: ('A' for Active; 'I' for Inactive)
REMARK    1  A    between atoms: C_1  and  O_2
REMARK    2  A    between atoms: O_2  and  C_3
REMARK    3  A    between atoms: C_5  and  C_20
REMARK    4  A    between atoms: C_8  and  O_9
REMARK    5  A    between atoms: O_9  and  C_10
REMARK    6  A    between atoms: C_10  and  C_11
REMARK    7  A    between atoms: C_15  and  C_17
REMARK    8  A    between atoms: C_21  and  C_22
REMARK    9  A    between atoms: C_21  and  C_24
REMARK   10  A    between atoms: N_26  and  C_34
REMARK   11  A    between atoms: C_27  and  N_33
REMARK   12  A    between atoms: C_29  and  C_31
REMARK                            x       y       z     vdW  Elec       q    Type
REMARK                         _______ _______ _______ _____ _____    ______ ____
ROOT
ATOM      1  C   UNL     1       2.392   0.339  -4.214  0.00  0.00    +0.028 C 
ATOM      2  C   UNL     1       3.529  -0.091  -4.837  0.00  0.00    +0.076 C 
ENDROOT
BRANCH   1   5
ATOM      3  C   UNL     1       0.304  -0.961  -1.385  0.00  0.00    +0.162 A 
ATOM      4  C   UNL     1       1.013  -0.094  -2.193  0.00  0.00    +0.057 A 
ATOM      5  C   UNL     1       1.639  -0.576  -3.350  0.00  0.00    -0.020 A 
ATOM      6  C   UNL     1       1.542  -1.934  -3.680  0.00  0.00    +0.012 A 
ATOM      7  C   UNL     1       0.834  -2.790  -2.867  0.00  0.00    +0.050 A 
ATOM      8  C   UNL     1       0.218  -2.313  -1.717  0.00  0.00    +0.162 A 
BRANCH   3  10
ATOM      9  C   UNL     1      -0.176   0.897   0.019  0.00  0.00    +0.277 C 
ATOM     10  O   UNL     1      -0.305  -0.498  -0.261  0.00  0.00    -0.491 OA
ENDBRANCH   3  10
BRANCH   8  11
ATOM     11  O   UNL     1      -0.475  -3.164  -0.917  0.00  0.00    -0.484 OA
BRANCH  11  12
ATOM     12  C   UNL     1      -0.523  -4.535  -1.316  0.00  0.00    +0.264 C 
BRANCH  12  13
ATOM     13  C   UNL     1      -1.329  -5.322  -0.314  0.00  0.00    -0.010 A 
ATOM     14  C   UNL     1      -0.702  -5.896   0.778  0.00  0.00    +0.007 A 
ATOM     15  C   UNL     1      -1.434  -6.620   1.703  0.00  0.00    +0.001 A 
ATOM     16  C   UNL     1      -2.795  -6.775   1.541  0.00  0.00    +0.015 A 
ATOM     17  C   UNL     1      -3.435  -6.198   0.441  0.00  0.00    +0.064 A 
ATOM     18  C   UNL     1      -2.690  -5.463  -0.485  0.00  0.00    +0.022 A 
BRANCH  17  19
ATOM     19  C   UNL     1      -4.890  -6.359   0.262  0.00  0.00    +0.387 C 
ATOM     20  O   UNL     1      -5.540  -6.998   1.077  0.00  0.00    -0.241 OA
ATOM     21  O   UNL     1      -5.447  -5.853  -0.702  0.00  0.00    -0.241 OA
ENDBRANCH  17  19
ENDBRANCH  12  13
ENDBRANCH  11  12
ENDBRANCH   8  11
ENDBRANCH   1   5
BRANCH   2  22
ATOM     22  C   UNL     1       4.193   0.768  -5.829  0.00  0.00    +0.097 C 
ATOM     23  N   UNL     1       5.264   0.462  -6.481  0.00  0.00    -0.180 NA
ATOM     24  N   UNL     1       5.692   1.450  -7.365  0.00  0.00    -0.206 N 
ATOM     25  C   UNL     1       4.765   2.590  -7.292  0.00  0.00    +0.185 C 
ATOM     26  C   UNL     1       3.722   2.142  -6.248  0.00  0.00    +0.179 C 
BRANCH  24  27
ATOM     27  C   UNL     1       6.817   1.372  -8.186  0.00  0.00    +0.053 A 
ATOM     28  C   UNL     1       7.144   2.432  -9.023  0.00  0.00    +0.025 A 
ATOM     29  C   UNL     1       8.259   2.351  -9.834  0.00  0.00    +0.002 A 
ATOM     30  C   UNL     1       9.050   1.217  -9.814  0.00  0.00    +0.000 A 
ATOM     31  C   UNL     1       8.728   0.160  -8.982  0.00  0.00    +0.002 A 
ATOM     32  C   UNL     1       7.618   0.235  -8.164  0.00  0.00    +0.025 A 
ENDBRANCH  24  27
BRANCH  25  33
ATOM     33  N   UNL     1       5.468   3.800  -6.846  0.00  0.00    -0.310 NA
ATOM     34  H   UNL     1       6.196   4.056  -7.495  0.00  0.00    +0.120 HD
ATOM     35  H   UNL     1       4.822   4.564  -6.708  0.00  0.00    +0.120 HD
ENDBRANCH  25  33
BRANCH  26  36
ATOM     36  C   UNL     1       2.382   2.068  -6.852  0.00  0.00    +0.076 C 
ATOM     37  N   UNL     1       1.348   2.010  -7.319  0.00  0.00    -0.196 NA
ENDBRANCH  26  36
ENDBRANCH   2  22
BRANCH   2  38
ATOM     38  C   UNL     1       4.074  -1.377  -4.525  0.00  0.00    +0.101 C 
ATOM     39  N   UNL     1       4.506  -2.398  -4.277  0.00  0.00    -0.191 NA
ENDBRANCH   2  38
TORSDOF 11
