REMARK  Name = ZINC59398616
REMARK  5 active torsions:
REMARK  status: ('A' for Active; 'I' for Inactive)
REMARK    1  A    between atoms: C_1  and  C_2
REMARK    2  A    between atoms: C_3  and  C_28
REMARK    3  A    between atoms: C_4  and  C_23
REMARK    4  A    between atoms: C_10  and  C_11
REMARK    5  A    between atoms: N_30  and  C_31
REMARK                            x       y       z     vdW  Elec       q    Type
REMARK                         _______ _______ _______ _____ _____    ______ ____
ROOT
ATOM      1  C   UNL     1      -1.113   0.801   2.918  0.00  0.00    +0.066 C 
ATOM      2  C   UNL     1      -0.649  -0.353   2.067  0.00  0.00    +0.052 C 
ATOM      3  C   UNL     1      -1.561  -1.246   1.582  0.00  0.00    +0.063 C 
ATOM      4  C   UNL     1      -1.055  -2.389   0.732  0.00  0.00    +0.166 C 
ATOM      5  N   UNL     1       0.413  -2.456   0.486  0.00  0.00    -0.274 N 
ATOM      6  C   UNL     1       1.048  -3.387  -0.237  0.00  0.00    +0.268 A 
ATOM      7  O   UNL     1       0.434  -4.292  -0.771  0.00  0.00    -0.266 OA
ATOM      8  C   UNL     1       2.508  -3.283  -0.365  0.00  0.00    +0.081 A 
ATOM      9  C   UNL     1       3.375  -4.087  -1.034  0.00  0.00    +0.028 C 
ATOM     10  S   UNL     1       2.834  -1.813   0.594  0.00  0.00    -0.046 S 
ATOM     11  C   UNL     1       1.154  -1.454   1.070  0.00  0.00    +0.178 A 
ATOM     12  N   UNL     1       0.643  -0.489   1.792  0.00  0.00    -0.228 NA
ENDROOT
BRANCH   9  13
ATOM     13  C   UNL     1       2.865  -5.145  -1.915  0.00  0.00    -0.020 A 
ATOM     14  C   UNL     1       3.518  -6.383  -1.978  0.00  0.00    +0.012 A 
ATOM     15  C   UNL     1       3.036  -7.373  -2.805  0.00  0.00    +0.050 A 
ATOM     16  C   UNL     1       1.904  -7.151  -3.578  0.00  0.00    +0.166 A 
ATOM     17  C   UNL     1       1.247  -5.920  -3.520  0.00  0.00    +0.167 A 
ATOM     18  C   UNL     1       1.720  -4.923  -2.689  0.00  0.00    +0.057 A 
ATOM     19  O   UNL     1       0.176  -5.958  -4.365  0.00  0.00    -0.453 OA
ATOM     20  C   UNL     1       0.419  -7.073  -5.244  0.00  0.00    +0.466 C 
ATOM     21  O   UNL     1       1.242  -7.955  -4.458  0.00  0.00    -0.453 OA
ENDBRANCH   9  13
BRANCH   4  22
ATOM     22  C   UNL     1      -1.473  -3.678   1.393  0.00  0.00    +0.017 A 
ATOM     23  C   UNL     1      -1.040  -4.219   2.558  0.00  0.00    +0.013 A 
ATOM     24  C   UNL     1      -1.570  -5.426   2.974  0.00  0.00    +0.008 A 
ATOM     25  C   UNL     1      -2.508  -6.032   2.205  0.00  0.00    +0.045 A 
ATOM     26  S   UNL     1      -2.671  -4.883   0.848  0.00  0.00    -0.099 S 
ENDBRANCH   4  22
BRANCH   3  27
ATOM     27  C   UNL     1      -2.932  -1.106   1.865  0.00  0.00    +0.248 C 
ATOM     28  O   UNL     1      -3.309  -0.246   2.642  0.00  0.00    -0.270 OA
ATOM     29  N   UNL     1      -3.828  -1.924   1.277  0.00  0.00    -0.282 N 
ATOM     30  H   UNL     1      -3.523  -2.665   0.730  0.00  0.00    +0.155 HD
BRANCH  29  31
ATOM     31  C   UNL     1      -5.197  -1.704   1.455  0.00  0.00    +0.034 A 
ATOM     32  C   UNL     1      -5.690  -0.407   1.530  0.00  0.00    +0.023 A 
ATOM     33  C   UNL     1      -7.043  -0.193   1.705  0.00  0.00    +0.002 A 
ATOM     34  C   UNL     1      -7.907  -1.268   1.807  0.00  0.00    +0.000 A 
ATOM     35  C   UNL     1      -7.420  -2.560   1.734  0.00  0.00    +0.002 A 
ATOM     36  C   UNL     1      -6.069  -2.781   1.553  0.00  0.00    +0.023 A 
ENDBRANCH  29  31
ENDBRANCH   3  27
TORSDOF 4
