REMARK  Name = ZINC12762258
REMARK  9 active torsions:
REMARK  status: ('A' for Active; 'I' for Inactive)
REMARK    1  A    between atoms: C_1  and  C_2
REMARK    2  A    between atoms: C_2  and  C_3
REMARK    3  A    between atoms: C_3  and  N_4
REMARK    4  A    between atoms: N_9  and  C_12
REMARK    5  A    between atoms: C_16  and  C_17
REMARK    6  A    between atoms: C_19  and  O_26
REMARK    7  A    between atoms: C_20  and  O_24
REMARK    8  A    between atoms: O_24  and  C_25
REMARK    9  A    between atoms: O_26  and  C_27
REMARK                            x       y       z     vdW  Elec       q    Type
REMARK                         _______ _______ _______ _____ _____    ______ ____
ROOT
ATOM      1  N   UNL     1      -4.849   6.587  -0.203  0.00  0.00    -0.281 N 
ATOM      2  C   UNL     1      -3.478   6.658  -0.160  0.00  0.00    +0.123 A 
ATOM      3  C   UNL     1      -2.878   7.919  -0.228  0.00  0.00    +0.126 A 
ATOM      4  C   UNL     1      -3.730   9.101  -0.341  0.00  0.00    +0.269 A 
ATOM      5  O   UNL     1      -3.244  10.216  -0.404  0.00  0.00    -0.267 OA
ATOM      6  N   UNL     1      -5.069   8.927  -0.376  0.00  0.00    -0.263 N 
ATOM      7  C   UNL     1      -5.600   7.695  -0.307  0.00  0.00    +0.333 A 
ATOM      8  O   UNL     1      -6.809   7.578  -0.341  0.00  0.00    -0.246 OA
ATOM      9  C   UNL     1      -5.950  10.091  -0.489  0.00  0.00    +0.157 C 
ATOM     10  C   UNL     1      -1.431   7.721  -0.164  0.00  0.00    +0.216 C 
ATOM     11  O   UNL     1      -0.561   8.576  -0.195  0.00  0.00    -0.285 OA
ATOM     12  C   UNL     1      -1.252   6.263  -0.055  0.00  0.00    +0.081 C 
ATOM     13  C   UNL     1      -0.071   5.597   0.032  0.00  0.00    +0.036 C 
ATOM     14  N   UNL     1      -2.525   5.697  -0.066  0.00  0.00    -0.297 N 
ATOM     15  H   UNL     1      -2.706   4.745  -0.010  0.00  0.00    +0.154 HD
ENDROOT
BRANCH  13  16
ATOM     16  C   UNL     1      -0.061   4.152   0.291  0.00  0.00    -0.006 A 
ATOM     17  C   UNL     1      -1.101   3.561   1.020  0.00  0.00    +0.058 A 
ATOM     18  C   UNL     1      -1.089   2.201   1.255  0.00  0.00    +0.162 A 
ATOM     19  C   UNL     1      -0.037   1.419   0.776  0.00  0.00    +0.163 A 
ATOM     20  C   UNL     1       0.994   2.002   0.053  0.00  0.00    +0.065 A 
ATOM     21  C   UNL     1       0.988   3.359  -0.192  0.00  0.00    +0.029 A 
ATOM     22 BR   UNL     1       2.396   4.149  -1.178  0.00  0.00    -0.050 Br
BRANCH  19  23
ATOM     23  O   UNL     1      -0.026   0.082   1.013  0.00  0.00    -0.491 OA
ATOM     24  C   UNL     1       1.077  -0.660   0.490  0.00  0.00    +0.277 C 
ENDBRANCH  19  23
BRANCH  18  25
ATOM     25  O   UNL     1      -2.100   1.624   1.957  0.00  0.00    -0.491 OA
ATOM     26  C   UNL     1      -3.144   2.484   2.417  0.00  0.00    +0.277 C 
ENDBRANCH  18  25
ENDBRANCH  13  16
BRANCH   1  27
ATOM     27  C   UNL     1      -5.504   5.278  -0.134  0.00  0.00    +0.128 C 
BRANCH  27  29
ATOM     28  C   UNL     1      -6.366   3.355  -1.476  0.00  0.00    +0.005 C 
ATOM     29  C   UNL     1      -5.682   4.721  -1.548  0.00  0.00    +0.018 C 
ENDBRANCH  27  29
ENDBRANCH   1  27
TORSDOF 5
