REMARK  Name = ZINC40385555
REMARK  7 active torsions:
REMARK  status: ('A' for Active; 'I' for Inactive)
REMARK    1  A    between atoms: C_1  and  C_2
REMARK    2  A    between atoms: C_5  and  N_9
REMARK    3  A    between atoms: C_6  and  C_8
REMARK    4  A    between atoms: N_9  and  C_10
REMARK    5  A    between atoms: C_10  and  C_12
REMARK    6  A    between atoms: C_13  and  N_27
REMARK    7  A    between atoms: C_23  and  C_26
REMARK                            x       y       z     vdW  Elec       q    Type
REMARK                         _______ _______ _______ _____ _____    ______ ____
ROOT
ATOM      1  C   UNL     1       0.089  -6.293  -1.413  0.00  0.00    +0.107 A 
ATOM      2  C   UNL     1       0.145  -6.916  -2.675  0.00  0.00    +0.135 A 
ATOM      3  N   UNL     1       0.162  -8.247  -2.751  0.00  0.00    -0.200 NA
ATOM      4  C   UNL     1       0.128  -8.997  -1.668  0.00  0.00    +0.200 A 
ATOM      5  N   UNL     1       0.074  -8.456  -0.421  0.00  0.00    -0.294 N 
ATOM      6  H   UNL     1       0.050  -9.036   0.356  0.00  0.00    +0.172 HD
ATOM      7  C   UNL     1       0.059  -7.116  -0.259  0.00  0.00    +0.264 A 
ATOM      8  O   UNL     1       0.015  -6.624   0.855  0.00  0.00    -0.267 OA
ATOM      9  N   UNL     1       0.148 -10.357  -1.801  0.00  0.00    -0.301 N 
ATOM     10  C   UNL     1      -0.009 -11.227  -0.628  0.00  0.00    +0.108 C 
ATOM     11  C   UNL     1       1.164 -12.211  -0.583  0.00  0.00    +0.022 C 
ATOM     12  C   UNL     1       1.247 -12.961  -1.914  0.00  0.00    -0.011 C 
ATOM     13  C   UNL     1       1.496 -11.964  -3.048  0.00  0.00    +0.022 C 
ATOM     14  C   UNL     1       0.321 -10.977  -3.122  0.00  0.00    +0.108 C 
ATOM     15  C   UNL     1       2.396 -13.969  -1.860  0.00  0.00    +0.007 C 
ENDROOT
BRANCH   2  16
ATOM     16  N   UNL     1       0.180  -6.157  -3.820  0.00  0.00    -0.342 N 
ATOM     17  H   UNL     1       0.093  -5.192  -3.765  0.00  0.00    +0.144 HD
ATOM     18  H   UNL     1       0.293  -6.586  -4.683  0.00  0.00    +0.144 HD
ENDBRANCH   2  16
BRANCH   1  19
ATOM     19  C   UNL     1       0.069  -4.835  -1.295  0.00  0.00    +0.092 C 
ATOM     20  S   UNL     1       1.531  -3.976  -1.059  0.00  0.00    -0.034 S 
BRANCH  19  21
ATOM     21  N   UNL     1      -1.100  -4.169  -1.373  0.00  0.00    -0.308 N 
ATOM     22  H   UNL     1      -1.934  -4.659  -1.438  0.00  0.00    +0.153 HD
BRANCH  21  27
ATOM     23  C   UNL     1      -1.139   1.503  -1.313  0.00  0.00    +0.044 C 
ATOM     24  C   UNL     1      -1.129  -0.004  -1.329  0.00  0.00    -0.050 A 
ATOM     25  C   UNL     1      -0.369  -0.699  -0.405  0.00  0.00    +0.005 A 
ATOM     26  C   UNL     1      -0.357  -2.079  -0.416  0.00  0.00    +0.024 A 
ATOM     27  C   UNL     1      -1.110  -2.771  -1.358  0.00  0.00    +0.035 A 
ATOM     28  C   UNL     1      -1.871  -2.071  -2.284  0.00  0.00    -0.029 A 
ATOM     29  C   UNL     1      -1.883  -0.690  -2.264  0.00  0.00    +0.008 A 
ATOM     30  C   UNL     1      -2.688  -2.817  -3.307  0.00  0.00    +0.045 C 
ENDBRANCH  21  27
ENDBRANCH  19  21
ENDBRANCH   1  19
TORSDOF 4
