REMARK  Name = ZINC39371148
REMARK  5 active torsions:
REMARK  status: ('A' for Active; 'I' for Inactive)
REMARK    1  A    between atoms: C_1  and  C_2
REMARK    2  A    between atoms: C_9  and  C_20
REMARK    3  A    between atoms: C_11  and  C_14
REMARK    4  A    between atoms: C_23  and  C_26
REMARK    5  A    between atoms: C_31  and  C_33
REMARK                            x       y       z     vdW  Elec       q    Type
REMARK                         _______ _______ _______ _____ _____    ______ ____
ROOT
ATOM      1  C   UNL     1       1.508   1.309   0.116  0.00  0.00    +0.044 C 
ATOM      2  C   UNL     1       1.115  -0.145   0.079  0.00  0.00    -0.050 A 
ATOM      3  C   UNL     1       1.108  -0.819  -1.140  0.00  0.00    +0.005 A 
ATOM      4  C   UNL     1       0.762  -2.133  -1.232  0.00  0.00    +0.024 A 
ATOM      5  C   UNL     1       0.398  -2.846  -0.076  0.00  0.00    +0.041 A 
ATOM      6  N   UNL     1       0.059  -4.136  -0.168  0.00  0.00    -0.284 N 
ATOM      7  C   UNL     1      -0.294  -4.873   0.867  0.00  0.00    +0.230 C 
ATOM      8  O   UNL     1      -0.590  -6.042   0.708  0.00  0.00    -0.274 OA
ATOM      9  C   UNL     1      -0.330  -4.266   2.251  0.00  0.00    +0.152 C 
ATOM     10  C   UNL     1       0.051  -2.804   2.381  0.00  0.00    -0.014 C 
ATOM     11  C   UNL     1       0.406  -2.134   1.207  0.00  0.00    +0.001 A 
ATOM     12  C   UNL     1       0.780  -0.774   1.237  0.00  0.00    +0.013 A 
ATOM     13  H   UNL     1       0.072  -4.553  -1.044  0.00  0.00    +0.155 HD
ENDROOT
BRANCH   9  14
ATOM     14  C   UNL     1      -1.727  -4.429   2.792  0.00  0.00    +0.056 C 
ATOM     15  N   UNL     1      -2.526  -3.477   3.050  0.00  0.00    -0.184 NA
ATOM     16  N   UNL     1      -3.766  -3.880   3.541  0.00  0.00    -0.178 N 
ATOM     17  C   UNL     1      -3.787  -5.350   3.620  0.00  0.00    +0.173 C 
ATOM     18  C   UNL     1      -2.391  -5.752   3.102  0.00  0.00    +0.086 C 
ATOM     19  C   UNL     1      -4.778  -3.061   3.887  0.00  0.00    +0.273 C 
ATOM     20  O   UNL     1      -5.822  -3.526   4.308  0.00  0.00    -0.268 OA
BRANCH  17  21
ATOM     21  C   UNL     1      -3.985  -5.803   5.044  0.00  0.00    +0.128 A 
ATOM     22  C   UNL     1      -4.729  -6.852   5.439  0.00  0.00    +0.046 A 
ATOM     23  C   UNL     1      -4.636  -6.913   6.849  0.00  0.00    +0.041 A 
ATOM     24  C   UNL     1      -3.841  -5.897   7.231  0.00  0.00    +0.195 A 
ATOM     25  O   UNL     1      -3.445  -5.232   6.133  0.00  0.00    -0.466 OA
ENDBRANCH  17  21
BRANCH  19  26
ATOM     26  C   UNL     1      -4.623  -1.609   3.758  0.00  0.00    +0.076 A 
ATOM     27  C   UNL     1      -5.528  -0.603   4.060  0.00  0.00    +0.021 A 
ATOM     28  C   UNL     1      -5.092   0.680   3.830  0.00  0.00    +0.008 A 
ATOM     29  C   UNL     1      -3.844   0.874   3.337  0.00  0.00    +0.046 A 
ATOM     30  S   UNL     1      -3.218  -0.677   3.178  0.00  0.00    -0.092 S 
ENDBRANCH  19  26
ENDBRANCH   9  14
BRANCH  10  31
ATOM     31  C   UNL     1       0.048  -2.147   3.637  0.00  0.00    -0.020 A 
ATOM     32  C   UNL     1      -0.488  -0.854   3.756  0.00  0.00    +0.008 A 
ATOM     33  C   UNL     1      -0.486  -0.224   4.981  0.00  0.00    +0.001 A 
ATOM     34  C   UNL     1       0.041  -0.860   6.093  0.00  0.00    +0.000 A 
ATOM     35  C   UNL     1       0.572  -2.136   5.985  0.00  0.00    +0.001 A 
ATOM     36  C   UNL     1       0.575  -2.786   4.771  0.00  0.00    +0.008 A 
ENDBRANCH  10  31
TORSDOF 4
