REMARK  Name = ZINC12569005
REMARK  6 active torsions:
REMARK  status: ('A' for Active; 'I' for Inactive)
REMARK    1  A    between atoms: C_1  and  C_2
REMARK    2  A    between atoms: N_11  and  C_15
REMARK    3  A    between atoms: C_15  and  C_16
REMARK    4  A    between atoms: C_19  and  C_22
REMARK    5  A    between atoms: C_22  and  N_23
REMARK    6  A    between atoms: C_31  and  C_33
REMARK                            x       y       z     vdW  Elec       q    Type
REMARK                         _______ _______ _______ _____ _____    ______ ____
ROOT
ATOM      1  C   UNL     1      -6.091   0.742  -2.212  0.00  0.00    -0.030 A 
ATOM      2  C   UNL     1      -6.106   1.537  -1.082  0.00  0.00    +0.005 A 
ATOM      3  C   UNL     1      -5.058   2.404  -0.833  0.00  0.00    +0.005 A 
ATOM      4  C   UNL     1      -3.995   2.475  -1.714  0.00  0.00    -0.030 A 
ATOM      5  C   UNL     1      -3.983   1.683  -2.847  0.00  0.00    +0.005 A 
ATOM      6  C   UNL     1      -5.029   0.814  -3.094  0.00  0.00    +0.005 A 
ENDROOT
BRANCH   1   7
ATOM      7  C   UNL     1      -7.233  -0.204  -2.483  0.00  0.00    +0.153 C 
BRANCH   7  17
ATOM      8  C   UNL     1      -8.654   3.749  -3.902  0.00  0.00    +0.010 C 
ATOM      9  C   UNL     1     -10.089   3.220  -3.927  0.00  0.00    +0.018 C 
ATOM     10  C   UNL     1     -10.838   3.718  -2.688  0.00  0.00    +0.006 C 
ATOM     11  C   UNL     1     -12.267   3.172  -2.703  0.00  0.00    +0.000 C 
ATOM     12  C   UNL     1     -12.230   1.642  -2.685  0.00  0.00    +0.003 C 
ATOM     13  C   UNL     1     -11.487   1.136  -3.924  0.00  0.00    +0.035 C 
ATOM     14  C   UNL     1     -10.069   1.696  -3.934  0.00  0.00    +0.115 C 
ATOM     15  C   UNL     1      -9.290   1.168  -2.751  0.00  0.00    +0.247 C 
ATOM     16  O   UNL     1      -9.541   1.331  -1.576  0.00  0.00    -0.273 OA
ATOM     17  N   UNL     1      -8.256   0.481  -3.277  0.00  0.00    -0.220 N 
ATOM     18  C   UNL     1      -8.283   0.497  -4.615  0.00  0.00    +0.310 C 
ATOM     19  O   UNL     1      -7.458  -0.056  -5.315  0.00  0.00    -0.252 OA
ATOM     20  N   UNL     1      -9.327   1.197  -5.099  0.00  0.00    -0.285 N 
ATOM     21  H   UNL     1      -9.546   1.342  -6.033  0.00  0.00    +0.151 HD
ENDBRANCH   7  17
ENDBRANCH   1   7
BRANCH   4  22
ATOM     22  C   UNL     1      -2.853   3.420  -1.443  0.00  0.00    +0.153 C 
BRANCH  22  23
ATOM     23  N   UNL     1      -1.831   2.735  -0.648  0.00  0.00    -0.220 N 
ATOM     24  C   UNL     1      -0.800   2.043  -1.174  0.00  0.00    +0.247 C 
ATOM     25  O   UNL     1      -0.551   1.875  -2.348  0.00  0.00    -0.273 OA
ATOM     26  C   UNL     1      -0.019   1.520   0.010  0.00  0.00    +0.115 C 
ATOM     27  C   UNL     1       0.002  -0.004   0.002  0.00  0.00    +0.035 C 
ATOM     28  C   UNL     1       0.773  -0.514   1.222  0.00  0.00    +0.003 C 
ATOM     29  C   UNL     1       2.202   0.033   1.186  0.00  0.00    +0.000 C 
ATOM     30  C   UNL     1       2.165   1.562   1.220  0.00  0.00    +0.006 C 
ATOM     31  C   UNL     1       1.400   2.080  -0.000  0.00  0.00    +0.018 C 
ATOM     32  C   UNL     1       1.345   3.608   0.044  0.00  0.00    +0.010 C 
ATOM     33  N   UNL     1      -0.761   2.019   1.175  0.00  0.00    -0.285 N 
ATOM     34  C   UNL     1      -1.804   2.719   0.691  0.00  0.00    +0.310 C 
ATOM     35  O   UNL     1      -2.630   3.273   1.390  0.00  0.00    -0.252 OA
ATOM     36  H   UNL     1      -0.542   1.873   2.109  0.00  0.00    +0.151 HD
ENDBRANCH  22  23
ENDBRANCH   4  22
TORSDOF 4
