REMARK  Name = ZINC37616372
REMARK  3 active torsions:
REMARK  status: ('A' for Active; 'I' for Inactive)
REMARK    1  A    between atoms: C_2  and  N_12
REMARK    2  A    between atoms: C_13  and  C_15
REMARK    3  A    between atoms: C_15  and  N_20
REMARK                            x       y       z     vdW  Elec       q    Type
REMARK                         _______ _______ _______ _____ _____    ______ ____
ROOT
ATOM      1  N   UNL     1       1.156   3.494   0.010  0.00  0.00    -0.286 N 
ATOM      2  C   UNL     1      -0.017   4.152  -0.077  0.00  0.00    +0.206 C 
ATOM      3  O   UNL     1      -1.061   3.535  -0.071  0.00  0.00    -0.277 OA
ATOM      4  H   UNL     1       1.986   3.990   0.085  0.00  0.00    +0.155 HD
ENDROOT
BRANCH   1   6
ATOM      5  C   UNL     1       0.141   1.392  -0.612  0.00  0.00    +0.073 A 
ATOM      6  C   UNL     1       1.176   2.093  -0.009  0.00  0.00    +0.051 A 
ATOM      7  C   UNL     1       2.232   1.405   0.575  0.00  0.00    +0.043 A 
ATOM      8  C   UNL     1       2.253   0.023   0.554  0.00  0.00    +0.066 A 
ATOM      9  C   UNL     1       1.220  -0.680  -0.047  0.00  0.00    +0.163 A 
ATOM     10  C   UNL     1       0.161   0.006  -0.630  0.00  0.00    +0.164 A 
ATOM     11  O   UNL     1      -0.865  -0.668  -1.219  0.00  0.00    -0.485 OA
ATOM     12  C   UNL     1      -0.629  -2.041  -1.548  0.00  0.00    +0.270 C 
ATOM     13  C   UNL     1       0.029  -2.719  -0.339  0.00  0.00    +0.270 C 
ATOM     14  O   UNL     1       1.260  -2.042  -0.061  0.00  0.00    -0.485 OA
ATOM     15 BR   UNL     1       3.642   2.360   1.397  0.00  0.00    -0.048 Br
ENDBRANCH   1   6
BRANCH   2  16
ATOM     16  C   UNL     1      -0.031   5.655  -0.183  0.00  0.00    +0.007 C 
ATOM     17  C   UNL     1      -0.093   6.297   1.225  0.00  0.00    -0.004 C 
ATOM     18  C   UNL     1      -1.597   6.199   1.580  0.00  0.00    -0.001 C 
ATOM     19  C   UNL     1      -2.319   6.482   0.246  0.00  0.00    -0.001 C 
ATOM     20  C   UNL     1      -1.324   6.136  -0.875  0.00  0.00    -0.004 C 
BRANCH  16  21
ATOM     21  N   UNL     1       1.151   6.130  -0.916  0.00  0.00    +0.388 N 
ATOM     22  H   UNL     1       1.145   5.744  -1.848  0.00  0.00    -0.089 HD
ATOM     23  H   UNL     1       1.132   7.137  -0.968  0.00  0.00    -0.089 HD
ATOM     24  H   UNL     1       1.986   5.833  -0.434  0.00  0.00    -0.089 HD
ENDBRANCH  16  21
ENDBRANCH   2  16
TORSDOF 3
