REMARK  Name = ZINC39357726
REMARK  4 active torsions:
REMARK  status: ('A' for Active; 'I' for Inactive)
REMARK    1  A    between atoms: C_6  and  C_7
REMARK    2  A    between atoms: C_7  and  N_8
REMARK    3  A    between atoms: N_8  and  C_9
REMARK    4  A    between atoms: C_9  and  C_10
REMARK                            x       y       z     vdW  Elec       q    Type
REMARK                         _______ _______ _______ _____ _____    ______ ____
ROOT
ATOM      1  C   UNL     1      -3.017  -1.722  -1.363  0.00  0.00    -0.046 C 
ENDROOT
BRANCH   1   2
ATOM      2  C   UNL     1      -3.466  -1.964  -2.781  0.00  0.00    -0.064 A 
ATOM      3  C   UNL     1      -4.264  -1.035  -3.424  0.00  0.00    +0.003 A 
ATOM      4  C   UNL     1      -4.673  -1.251  -4.723  0.00  0.00    +0.023 A 
ATOM      5  C   UNL     1      -4.284  -2.407  -5.401  0.00  0.00    +0.031 A 
ATOM      6  C   UNL     1      -3.491  -3.338  -4.742  0.00  0.00    -0.022 A 
ATOM      7  C   UNL     1      -3.078  -3.113  -3.445  0.00  0.00    +0.007 A 
ATOM      8  C   UNL     1      -3.252  -4.482  -5.691  0.00  0.00    +0.041 C 
ATOM      9  C   UNL     1      -1.859  -5.022  -5.653  0.00  0.00    +0.010 C 
ATOM     10  C   UNL     1      -0.950  -4.412  -6.716  0.00  0.00    +0.001 C 
ATOM     11  C   UNL     1      -1.627  -4.614  -8.078  0.00  0.00    +0.002 C 
ATOM     12  C   UNL     1      -2.873  -3.741  -8.120  0.00  0.00    +0.023 C 
ATOM     13  C   UNL     1      -3.834  -4.054  -7.015  0.00  0.00    +0.078 C 
ATOM     14  N   UNL     1      -4.578  -2.815  -6.704  0.00  0.00    -0.340 N 
ATOM     15  H   UNL     1      -5.179  -2.356  -7.312  0.00  0.00    +0.146 HD
ENDBRANCH   1   2
BRANCH   1  16
ATOM     16  N   UNL     1      -1.743  -0.990  -1.372  0.00  0.00    +0.384 N 
ATOM     17  H   UNL     1      -1.866  -0.106  -1.841  0.00  0.00    -0.085 HD
ATOM     18  H   UNL     1      -1.046  -1.535  -1.857  0.00  0.00    -0.085 HD
BRANCH  16  19
ATOM     19  C   UNL     1      -1.305  -0.754   0.011  0.00  0.00    -0.046 C 
BRANCH  19  25
ATOM     20  C   UNL     1      -0.017   1.396   0.010  0.00  0.00    +0.004 A 
ATOM     21  C   UNL     1       1.122   2.126   0.003  0.00  0.00    +0.033 A 
ATOM     22  C   UNL     1       2.378   1.466  -0.013  0.00  0.00    +0.134 A 
ATOM     23  C   UNL     1       2.398  -0.009  -0.021  0.00  0.00    +0.134 A 
ATOM     24  C   UNL     1       1.161  -0.703  -0.013  0.00  0.00    +0.035 A 
ATOM     25  C   UNL     1       0.002  -0.004   0.002  0.00  0.00    -0.062 A 
ATOM     26  N   UNL     1       3.652  -0.400  -0.035  0.00  0.00    -0.049 NA
ATOM     27  O   UNL     1       4.470   0.757  -0.037  0.00  0.00    -0.242 OA
ATOM     28  N   UNL     1       3.620   1.891  -0.022  0.00  0.00    -0.049 NA
ENDBRANCH  19  25
ENDBRANCH  16  19
ENDBRANCH   1  16
TORSDOF 4
