REMARK  Name = ZINC01973025
REMARK  8 active torsions:
REMARK  status: ('A' for Active; 'I' for Inactive)
REMARK    1  A    between atoms: C_1  and  C_2
REMARK    2  A    between atoms: C_2  and  O_3
REMARK    3  A    between atoms: O_3  and  C_4
REMARK    4  A    between atoms: C_4  and  C_6
REMARK    5  A    between atoms: C_6  and  C_8
REMARK    6  A    between atoms: C_6  and  S_9
REMARK    7  A    between atoms: S_9  and  C_10
REMARK    8  A    between atoms: C_22  and  C_26
REMARK                            x       y       z     vdW  Elec       q    Type
REMARK                         _______ _______ _______ _____ _____    ______ ____
ROOT
ATOM      1  C   UNL     1       0.002  -0.004   0.002  0.00  0.00    +0.171 A 
ATOM      2  N   UNL     1      -1.176  -0.693   0.010  0.00  0.00    -0.301 N 
ATOM      3  H   UNL     1      -2.039  -0.189   0.021  0.00  0.00    +0.171 HD
ATOM      4  C   UNL     1      -1.198  -2.039   0.002  0.00  0.00    +0.261 A 
ATOM      5  O   UNL     1      -2.258  -2.640   0.008  0.00  0.00    -0.267 OA
ATOM      6  C   UNL     1       0.042  -2.754  -0.015  0.00  0.00    +0.075 A 
ATOM      7  C   UNL     1       0.252  -4.203  -0.026  0.00  0.00    -0.023 A 
ATOM      8  C   UNL     1       1.529  -4.636  -0.040  0.00  0.00    -0.004 A 
ATOM      9  S   UNL     1       2.514  -3.162  -0.040  0.00  0.00    -0.073 S 
ATOM     10  C   UNL     1       1.204  -1.965  -0.021  0.00  0.00    +0.117 A 
ATOM     11  N   UNL     1       1.157  -0.638  -0.018  0.00  0.00    -0.216 NA
ATOM     12  C   UNL     1       2.006  -6.056  -0.053  0.00  0.00    +0.046 C 
ATOM     13  C   UNL     1       0.829  -6.966   0.325  0.00  0.00    -0.009 C 
ATOM     14  C   UNL     1      -0.395  -6.555  -0.499  0.00  0.00    +0.008 C 
ATOM     15  C   UNL     1      -0.907  -5.195  -0.023  0.00  0.00    +0.037 C 
ATOM     16  C   UNL     1       1.185  -8.423   0.023  0.00  0.00    +0.008 C 
ENDROOT
BRANCH   1  17
ATOM     17  S   UNL     1      -0.022   1.758   0.012  0.00  0.00    -0.073 S 
BRANCH  17  18
ATOM     18  C   UNL     1       1.756   2.096  -0.004  0.00  0.00    +0.160 C 
ATOM     19  C   UNL     1       2.359   1.600  -1.319  0.00  0.00    +0.031 C 
BRANCH  18  20
ATOM     20  C   UNL     1       1.986   3.580   0.126  0.00  0.00    +0.320 C 
ATOM     21  O   UNL     1       1.098   4.354  -0.140  0.00  0.00    -0.250 OA
BRANCH  20  22
ATOM     22  O   UNL     1       3.178   4.041   0.537  0.00  0.00    -0.464 OA
BRANCH  22  24
ATOM     23  C   UNL     1       4.742   5.815   1.118  0.00  0.00    +0.048 C 
ATOM     24  C   UNL     1       3.328   5.482   0.638  0.00  0.00    +0.229 C 
ENDBRANCH  22  24
ENDBRANCH  20  22
ENDBRANCH  18  20
ENDBRANCH  17  18
ENDBRANCH   1  17
TORSDOF 5
