REMARK  Name = ZINC17091006
REMARK  5 active torsions:
REMARK  status: ('A' for Active; 'I' for Inactive)
REMARK    1  A    between atoms: C_1  and  C_2
REMARK    2  A    between atoms: C_2  and  C_3
REMARK    3  A    between atoms: C_3  and  C_5
REMARK    4  A    between atoms: C_3  and  N_15
REMARK    5  A    between atoms: C_16  and  C_18
REMARK                            x       y       z     vdW  Elec       q    Type
REMARK                         _______ _______ _______ _____ _____    ______ ____
ROOT
ATOM      1  N   UNL     1       6.623  -0.314  -0.060  0.00  0.00    -0.307 N 
ATOM      2  C   UNL     1       5.919   0.835  -0.048  0.00  0.00    +0.264 C 
ATOM      3  O   UNL     1       6.499   1.903  -0.048  0.00  0.00    -0.268 OA
ATOM      4  H   UNL     1       6.160  -1.167  -0.060  0.00  0.00    +0.149 HD
ENDROOT
BRANCH   2   5
ATOM      5  C   UNL     1       4.441   0.796  -0.035  0.00  0.00    +0.150 A 
ATOM      6  C   UNL     1       3.595   1.911  -0.021  0.00  0.00    +0.083 A 
ATOM      7  C   UNL     1       2.289   1.446  -0.012  0.00  0.00    +0.156 A 
ATOM      8  N   UNL     1       1.106   2.077   0.003  0.00  0.00    -0.235 NA
ATOM      9  C   UNL     1      -0.017   1.400   0.010  0.00  0.00    +0.130 A 
ATOM     10  C   UNL     1       0.002  -0.004   0.002  0.00  0.00    +0.054 A 
ATOM     11  C   UNL     1       1.191  -0.654  -0.013  0.00  0.00    +0.131 A 
ATOM     12  N   UNL     1       2.348   0.074  -0.020  0.00  0.00    -0.220 N 
ATOM     13  N   UNL     1       3.697  -0.299  -0.034  0.00  0.00    -0.160 NA
ATOM     14 BR   UNL     1      -1.618  -0.980   0.013  0.00  0.00    -0.047 Br
ENDBRANCH   2   5
BRANCH   1  15
ATOM     15  C   UNL     1       8.087  -0.276  -0.073  0.00  0.00    +0.079 C 
BRANCH  15  16
ATOM     16  C   UNL     1       8.626  -1.566  -0.694  0.00  0.00    -0.010 C 
ATOM     17  C   UNL     1       8.154  -2.765   0.132  0.00  0.00    +0.012 C 
ATOM     18  C   UNL     1       8.693  -4.056  -0.489  0.00  0.00    -0.010 C 
ATOM     19  C   UNL     1       8.173  -4.187  -1.922  0.00  0.00    +0.007 C 
ATOM     20  C   UNL     1       8.645  -2.989  -2.748  0.00  0.00    -0.010 C 
ATOM     21  C   UNL     1       8.106  -1.698  -2.127  0.00  0.00    +0.012 C 
ATOM     22  C   UNL     1      10.174  -2.949  -2.762  0.00  0.00    +0.007 C 
ATOM     23  C   UNL     1      10.694  -2.817  -1.329  0.00  0.00    -0.010 C 
ATOM     24  C   UNL     1      10.222  -4.015  -0.503  0.00  0.00    +0.007 C 
ATOM     25  C   UNL     1      10.155  -1.526  -0.708  0.00  0.00    +0.012 C 
ENDBRANCH  15  16
BRANCH  15  27
ATOM     26  C   UNL     1       8.172   1.204   1.938  0.00  0.00    +0.006 C 
ATOM     27  C   UNL     1       8.607  -0.144   1.360  0.00  0.00    +0.019 C 
ENDBRANCH  15  27
ENDBRANCH   1  15
TORSDOF 4
