REMARK  Name = ZINC09127735
REMARK  10 active torsions:
REMARK  status: ('A' for Active; 'I' for Inactive)
REMARK    1  A    between atoms: C_1  and  C_2
REMARK    2  A    between atoms: C_3  and  N_15
REMARK    3  A    between atoms: N_6  and  C_9
REMARK    4  A    between atoms: N_7  and  C_8
REMARK    5  A    between atoms: N_15  and  S_16
REMARK    6  A    between atoms: S_16  and  C_19
REMARK    7  A    between atoms: C_22  and  N_28
REMARK    8  A    between atoms: C_23  and  N_25
REMARK    9  A    between atoms: N_28  and  C_29
REMARK   10  A    between atoms: C_29  and  C_30
REMARK                            x       y       z     vdW  Elec       q    Type
REMARK                         _______ _______ _______ _____ _____    ______ ____
ROOT
ATOM      1  S   UNL     1       1.155   1.405  -1.960  0.00  0.00    +0.073 S 
ATOM      2  O   UNL     1       1.590   2.501  -2.752  0.00  0.00    -0.150 OA
ATOM      3  O   UNL     1       0.057   1.501  -1.064  0.00  0.00    -0.150 OA
ENDROOT
BRANCH   1   4
ATOM      4  C   UNL     1       2.543   0.894  -1.002  0.00  0.00    +0.111 A 
ATOM      5  C   UNL     1       2.384   0.595   0.339  0.00  0.00    +0.031 A 
ATOM      6  C   UNL     1       3.470   0.194   1.092  0.00  0.00    +0.027 A 
ATOM      7  C   UNL     1       4.723   0.090   0.501  0.00  0.00    +0.058 A 
ATOM      8  C   UNL     1       4.879   0.391  -0.846  0.00  0.00    +0.149 A 
ATOM      9  C   UNL     1       3.788   0.786  -1.595  0.00  0.00    +0.063 A 
BRANCH   8  10
ATOM     10  N   UNL     1       6.212   0.282  -1.479  0.00  0.00    +0.058 N 
ATOM     11  O   UNL     1       7.200   0.619  -0.869  0.00  0.00    -0.126 OA
ATOM     12  O   UNL     1       6.313  -0.143  -2.606  0.00  0.00    -0.126 OA
ENDBRANCH   8  10
BRANCH   7  13
ATOM     13  N   UNL     1       5.823  -0.315   1.261  0.00  0.00    -0.340 N 
ATOM     14  H   UNL     1       6.704  -0.350   0.857  0.00  0.00    +0.146 HD
BRANCH  13  15
ATOM     15  C   UNL     1       5.646  -0.686   2.667  0.00  0.00    +0.133 C 
BRANCH  15  16
ATOM     16  C   UNL     1       6.997  -1.087   3.262  0.00  0.00    +0.135 C 
ATOM     17  C   UNL     1       6.803  -1.596   4.707  0.00  0.00    +0.035 C 
ATOM     18  C   UNL     1       8.039  -1.001   5.435  0.00  0.00    +0.031 C 
ATOM     19  C   UNL     1       8.206   0.343   4.681  0.00  0.00    +0.160 C 
ATOM     20  O   UNL     1       7.862   0.053   3.315  0.00  0.00    -0.375 OA
ENDBRANCH  15  16
ENDBRANCH  13  15
ENDBRANCH   7  13
ENDBRANCH   1   4
BRANCH   1  21
ATOM     21  N   UNL     1       0.804   0.172  -3.009  0.00  0.00    -0.209 N 
ATOM     22  H   UNL     1       0.927   0.297  -3.963  0.00  0.00    +0.174 HD
BRANCH  21  25
ATOM     23  C   UNL     1       0.326  -2.317  -4.727  0.00  0.00    +0.067 C 
ATOM     24  C   UNL     1       0.104  -2.174  -3.244  0.00  0.00    +0.061 A 
ATOM     25  C   UNL     1       0.324  -1.059  -2.515  0.00  0.00    +0.135 A 
ATOM     26  C   UNL     1      -0.009  -1.343  -1.166  0.00  0.00    +0.295 A 
ATOM     27  O   UNL     1       0.066  -0.569  -0.229  0.00  0.00    -0.264 OA
ATOM     28  N   UNL     1      -0.425  -2.625  -1.106  0.00  0.00    -0.216 N 
ATOM     29  N   UNL     1      -0.364  -3.154  -2.402  0.00  0.00    -0.282 N 
ATOM     30  C   UNL     1      -0.733  -4.518  -2.792  0.00  0.00    +0.171 C 
BRANCH  28  31
ATOM     31  C   UNL     1      -0.846  -3.302   0.042  0.00  0.00    +0.067 A 
ATOM     32  C   UNL     1      -1.786  -2.724   0.885  0.00  0.00    +0.028 A 
ATOM     33  C   UNL     1      -2.200  -3.396   2.019  0.00  0.00    +0.002 A 
ATOM     34  C   UNL     1      -1.679  -4.643   2.314  0.00  0.00    +0.000 A 
ATOM     35  C   UNL     1      -0.743  -5.221   1.477  0.00  0.00    +0.002 A 
ATOM     36  C   UNL     1      -0.329  -4.557   0.339  0.00  0.00    +0.028 A 
ENDBRANCH  28  31
ENDBRANCH  21  25
ENDBRANCH   1  21
TORSDOF 8
