REMARK  Name = ZINC38742291
REMARK  4 active torsions:
REMARK  status: ('A' for Active; 'I' for Inactive)
REMARK    1  A    between atoms: C_1  and  C_2
REMARK    2  A    between atoms: C_4  and  C_8
REMARK    3  A    between atoms: C_14  and  C_17
REMARK    4  A    between atoms: C_19  and  C_27
REMARK                            x       y       z     vdW  Elec       q    Type
REMARK                         _______ _______ _______ _____ _____    ______ ____
ROOT
ATOM      1  C   UNL     1      -2.469  -6.960   0.347  0.00  0.00    -0.004 A 
ATOM      2  C   UNL     1      -1.227  -6.717  -0.159  0.00  0.00    +0.035 A 
ATOM      3  C   UNL     1      -0.449  -7.780  -0.643  0.00  0.00    +0.072 A 
ATOM      4  N   UNL     1      -0.891  -9.023  -0.623  0.00  0.00    -0.247 NA
ATOM      5  C   UNL     1      -2.099  -9.320  -0.139  0.00  0.00    +0.072 A 
ATOM      6  C   UNL     1      -2.931  -8.291   0.370  0.00  0.00    +0.006 A 
ATOM      7  C   UNL     1      -4.198  -8.614   0.881  0.00  0.00    +0.010 A 
ATOM      8  C   UNL     1      -4.612  -9.911   0.887  0.00  0.00    +0.001 A 
ATOM      9  C   UNL     1      -3.794 -10.925   0.393  0.00  0.00    +0.002 A 
ATOM     10  C   UNL     1      -2.565 -10.648  -0.120  0.00  0.00    +0.028 A 
ENDROOT
BRANCH   1  17
ATOM     11  C   UNL     1      -0.958  -2.939   1.229  0.00  0.00    +0.181 A 
ATOM     12  N   UNL     1      -0.480  -2.772   2.426  0.00  0.00    -0.129 NA
ATOM     13  N   UNL     1      -1.055  -3.579   3.248  0.00  0.00    -0.121 NA
ATOM     14  C   UNL     1      -1.913  -4.309   2.606  0.00  0.00    +0.211 A 
ATOM     15  N   UNL     1      -1.930  -3.922   1.290  0.00  0.00    -0.222 N 
ATOM     16  N   UNL     1      -2.814  -4.510   0.435  0.00  0.00    -0.263 N 
ATOM     17  C   UNL     1      -3.324  -5.836   0.873  0.00  0.00    +0.183 C 
ATOM     18  S   UNL     1      -3.108  -5.626   2.692  0.00  0.00    -0.056 S 
ATOM     19  H   UNL     1      -3.575  -3.885   0.215  0.00  0.00    +0.168 HD
BRANCH  11  23
ATOM     20  C   UNL     1      -0.018   1.503   0.010  0.00  0.00    +0.067 C 
ATOM     21  C   UNL     1       0.002  -0.004   0.002  0.00  0.00    +0.059 C 
ATOM     22  C   UNL     1      -1.086  -0.777   0.003  0.00  0.00    +0.034 C 
ATOM     23  C   UNL     1      -0.531  -2.190  -0.007  0.00  0.00    +0.222 C 
ATOM     24  N   UNL     1       0.926  -1.973  -0.013  0.00  0.00    -0.172 NA
ATOM     25  N   UNL     1       1.125  -0.756  -0.013  0.00  0.00    -0.159 NA
ENDBRANCH  11  23
ENDBRANCH   1  17
BRANCH   3  26
ATOM     26  C   UNL     1       0.900  -7.499  -1.191  0.00  0.00    +0.000 A 
ATOM     27  C   UNL     1       1.388  -6.194  -1.217  0.00  0.00    +0.010 A 
ATOM     28  C   UNL     1       2.644  -5.939  -1.727  0.00  0.00    +0.001 A 
ATOM     29  C   UNL     1       3.420  -6.976  -2.213  0.00  0.00    +0.000 A 
ATOM     30  C   UNL     1       2.941  -8.274  -2.191  0.00  0.00    +0.001 A 
ATOM     31  C   UNL     1       1.689  -8.541  -1.677  0.00  0.00    +0.010 A 
ENDBRANCH   3  26
TORSDOF 3
