REMARK  Name = ZINC38650793
REMARK  11 active torsions:
REMARK  status: ('A' for Active; 'I' for Inactive)
REMARK    1  A    between atoms: C_1  and  C_2
REMARK    2  A    between atoms: C_2  and  C_3
REMARK    3  A    between atoms: C_3  and  C_4
REMARK    4  A    between atoms: C_4  and  O_5
REMARK    5  A    between atoms: O_5  and  C_6
REMARK    6  A    between atoms: C_9  and  C_12
REMARK    7  A    between atoms: C_17  and  O_26
REMARK    8  A    between atoms: C_21  and  N_25
REMARK    9  A    between atoms: C_22  and  C_23
REMARK   10  A    between atoms: O_26  and  C_27
REMARK   11  A    between atoms: C_27  and  C_29
REMARK                            x       y       z     vdW  Elec       q    Type
REMARK                         _______ _______ _______ _____ _____    ______ ____
ROOT
ATOM      1  C   UNL     1       1.958  -8.127   3.014  0.00  0.00    +0.098 C 
ATOM      2  C   UNL     1       1.268  -8.539   4.288  0.00  0.00    +0.008 A 
ATOM      3  C   UNL     1      -0.113  -8.505   4.355  0.00  0.00    +0.012 A 
ATOM      4  C   UNL     1      -0.763  -8.879   5.515  0.00  0.00    +0.047 A 
ATOM      5  C   UNL     1      -0.029  -9.292   6.618  0.00  0.00    +0.135 A 
ATOM      6  C   UNL     1       1.354  -9.327   6.554  0.00  0.00    +0.093 A 
ATOM      7  C   UNL     1       2.006  -8.950   5.387  0.00  0.00    +0.138 A 
ATOM      8  O   UNL     1       3.361  -8.990   5.340  0.00  0.00    -0.441 OA
ATOM      9  C   UNL     1       3.990  -9.012   4.154  0.00  0.00    +0.199 C 
ATOM     10  C   UNL     1       3.379  -8.615   3.015  0.00  0.00    +0.098 C 
ENDROOT
BRANCH   1  14
ATOM     11  C   UNL     1       1.925  -3.865   2.702  0.00  0.00    +0.121 A 
ATOM     12  C   UNL     1       1.310  -4.638   1.728  0.00  0.00    +0.046 A 
ATOM     13  C   UNL     1       1.323  -6.015   1.831  0.00  0.00    +0.008 A 
ATOM     14  C   UNL     1       1.946  -6.624   2.904  0.00  0.00    -0.034 A 
ATOM     15  C   UNL     1       2.559  -5.856   3.877  0.00  0.00    +0.008 A 
ATOM     16  C   UNL     1       2.555  -4.478   3.775  0.00  0.00    +0.046 A 
BRANCH  11  17
ATOM     17  O   UNL     1       1.914  -2.509   2.603  0.00  0.00    -0.492 OA
BRANCH  17  18
ATOM     18  C   UNL     1       1.246  -1.947   1.472  0.00  0.00    +0.229 C 
BRANCH  18  19
ATOM     19  C   UNL     1       1.339  -0.421   1.531  0.00  0.00    +0.041 C 
BRANCH  19  21
ATOM     20  C   UNL     1       0.717   1.707   0.380  0.00  0.00    +0.004 C 
ATOM     21  C   UNL     1       0.624   0.181   0.320  0.00  0.00    -0.000 C 
ENDBRANCH  19  21
ENDBRANCH  18  19
ENDBRANCH  17  18
ENDBRANCH  11  17
ENDBRANCH   1  14
BRANCH   9  22
ATOM     22  N   UNL     1       5.289  -9.449   4.097  0.00  0.00    -0.328 N 
ATOM     23  H   UNL     1       5.740  -9.736   4.906  0.00  0.00    +0.145 HD
ATOM     24  H   UNL     1       5.757  -9.471   3.247  0.00  0.00    +0.145 HD
ENDBRANCH   9  22
BRANCH  10  25
ATOM     25  C   UNL     1       4.106  -8.662   1.782  0.00  0.00    +0.101 C 
ATOM     26  N   UNL     1       4.683  -8.699   0.804  0.00  0.00    -0.191 NA
ENDBRANCH  10  25
BRANCH   5  27
ATOM     27  O   UNL     1      -0.667  -9.662   7.760  0.00  0.00    -0.422 OA
BRANCH  27  28
ATOM     28  C   UNL     1      -0.550  -8.860   8.839  0.00  0.00    +0.351 C 
ATOM     29  O   UNL     1       0.022  -7.791   8.743  0.00  0.00    -0.244 OA
BRANCH  28  30
ATOM     30  C   UNL     1      -1.112  -9.277  10.125  0.00  0.00    +0.097 A 
ATOM     31  C   UNL     1      -1.106  -8.607  11.340  0.00  0.00    +0.022 A 
ATOM     32  C   UNL     1      -1.721  -9.258  12.382  0.00  0.00    +0.008 A 
ATOM     33  C   UNL     1      -2.277 -10.475  12.164  0.00  0.00    +0.046 A 
ATOM     34  S   UNL     1      -1.990 -10.773  10.536  0.00  0.00    -0.090 S 
ENDBRANCH  28  30
ENDBRANCH  27  28
ENDBRANCH   5  27
TORSDOF 10
