REMARK  Name = ZINC35664439
REMARK  13 active torsions:
REMARK  status: ('A' for Active; 'I' for Inactive)
REMARK    1  A    between atoms: C_1  and  C_2
REMARK    2  A    between atoms: C_2  and  C_3
REMARK    3  A    between atoms: C_3  and  N_4
REMARK    4  A    between atoms: N_10  and  C_15
REMARK    5  A    between atoms: C_12  and  C_14
REMARK    6  A    between atoms: C_15  and  C_16
REMARK    7  A    between atoms: C_17  and  C_32
REMARK    8  A    between atoms: C_18  and  C_27
REMARK    9  A    between atoms: N_23  and  C_24
REMARK   10  A    between atoms: C_24  and  C_25
REMARK   11  A    between atoms: C_32  and  O_34
REMARK   12  A    between atoms: O_34  and  C_35
REMARK   13  A    between atoms: C_35  and  C_36
REMARK                            x       y       z     vdW  Elec       q    Type
REMARK                         _______ _______ _______ _____ _____    ______ ____
ROOT
ATOM      1  C   UNL     1      -1.008  -8.783  -1.664  0.00  0.00    +0.041 C 
ATOM      2  C   UNL     1      -1.087 -10.127  -1.561  0.00  0.00    +0.080 C 
ATOM      3  C   UNL     1       0.204 -10.897  -1.367  0.00  0.00    +0.144 C 
ATOM      4  N   UNL     1       1.447 -10.110  -1.306  0.00  0.00    -0.288 N 
ATOM      5  C   UNL     1       1.365  -8.770  -1.425  0.00  0.00    +0.307 C 
ATOM      6  O   UNL     1       2.385  -8.111  -1.377  0.00  0.00    -0.252 OA
ATOM      7  N   UNL     1       0.196  -8.141  -1.601  0.00  0.00    -0.254 N 
ATOM      8  H   UNL     1       2.305 -10.545  -1.183  0.00  0.00    +0.151 HD
ENDROOT
BRANCH   3   9
ATOM      9  C   UNL     1       0.089 -11.682  -0.086  0.00  0.00    -0.015 A 
ATOM     10  C   UNL     1      -0.219 -13.029  -0.114  0.00  0.00    +0.013 A 
ATOM     11  C   UNL     1      -0.315 -13.706   1.057  0.00  0.00    +0.045 A 
ATOM     12  S   UNL     1       0.035 -12.427   2.252  0.00  0.00    -0.105 S 
ATOM     13  C   UNL     1       0.292 -11.078   1.111  0.00  0.00    +0.051 A 
ENDBRANCH   3   9
BRANCH   2  14
ATOM     14  C   UNL     1      -2.332 -10.794  -1.632  0.00  0.00    +0.339 C 
ATOM     15  O   UNL     1      -3.344 -10.168  -1.884  0.00  0.00    -0.245 OA
BRANCH  14  16
ATOM     16  O   UNL     1      -2.398 -12.125  -1.419  0.00  0.00    -0.462 OA
BRANCH  16  17
ATOM     17  C   UNL     1      -3.688 -12.733  -1.506  0.00  0.00    +0.229 C 
ATOM     18  C   UNL     1      -3.563 -14.235  -1.237  0.00  0.00    +0.048 C 
ENDBRANCH  16  17
ENDBRANCH  14  16
ENDBRANCH   2  14
BRANCH   1  19
ATOM     19  C   UNL     1      -2.268  -7.979  -1.858  0.00  0.00    +0.136 C 
BRANCH  19  26
ATOM     20  N   UNL     1      -4.932  -8.668  -7.346  0.00  0.00    -0.299 N 
ATOM     21  C   UNL     1      -4.677  -7.514  -6.697  0.00  0.00    +0.303 C 
ATOM     22  O   UNL     1      -5.328  -6.518  -6.951  0.00  0.00    -0.253 OA
ATOM     23  N   UNL     1      -3.702  -7.464  -5.769  0.00  0.00    -0.280 N 
ATOM     24  C   UNL     1      -2.833  -8.624  -5.524  0.00  0.00    +0.125 C 
ATOM     25  C   UNL     1      -2.825  -8.918  -4.020  0.00  0.00    +0.104 C 
ATOM     26  N   UNL     1      -2.454  -7.699  -3.288  0.00  0.00    -0.294 NA
ATOM     27  C   UNL     1      -3.446  -6.634  -3.490  0.00  0.00    +0.107 C 
ATOM     28  C   UNL     1      -3.475  -6.245  -4.977  0.00  0.00    +0.088 C 
ATOM     29  C   UNL     1      -4.611  -5.251  -5.228  0.00  0.00    +0.029 C 
ATOM     30  H   UNL     1      -4.367  -9.442  -7.197  0.00  0.00    +0.150 HD
BRANCH  20  31
ATOM     31  C   UNL     1      -6.062  -8.753  -8.274  0.00  0.00    +0.105 C 
BRANCH  31  33
ATOM     32  C   UNL     1      -7.307 -10.248  -9.841  0.00  0.00    +0.005 C 
ATOM     33  C   UNL     1      -6.127 -10.160  -8.871  0.00  0.00    +0.015 C 
ENDBRANCH  31  33
ENDBRANCH  20  31
ENDBRANCH  19  26
ENDBRANCH   1  19
BRANCH   7  34
ATOM     34  C   UNL     1       0.208  -6.681  -1.726  0.00  0.00    +0.141 C 
BRANCH  34  35
ATOM     35  C   UNL     1       0.180  -6.059  -0.354  0.00  0.00    -0.015 C 
ATOM     36  C   UNL     1       1.134  -5.240   0.013  0.00  0.00    +0.005 C 
ENDBRANCH  34  35
ENDBRANCH   7  34
TORSDOF 10
