REMARK  Name = ZINC14966745
REMARK  13 active torsions:
REMARK  status: ('A' for Active; 'I' for Inactive)
REMARK    1  A    between atoms: C_1  and  C_2
REMARK    2  A    between atoms: C_2  and  O_3
REMARK    3  A    between atoms: O_3  and  C_4
REMARK    4  A    between atoms: C_4  and  C_6
REMARK    5  A    between atoms: C_13  and  C_26
REMARK    6  A    between atoms: C_16  and  O_24
REMARK    7  A    between atoms: C_19  and  O_22
REMARK    8  A    between atoms: O_22  and  C_23
REMARK    9  A    between atoms: O_24  and  C_25
REMARK   10  A    between atoms: C_26  and  N_27
REMARK   11  A    between atoms: N_27  and  C_28
REMARK   12  A    between atoms: C_28  and  C_29
REMARK   13  A    between atoms: C_29  and  O_35
REMARK                            x       y       z     vdW  Elec       q    Type
REMARK                         _______ _______ _______ _____ _____    ______ ____
ROOT
ATOM      1  C   UNL     1      -4.152  -2.252   5.729  0.00  0.00    +0.101 C 
ATOM      2  C   UNL     1      -2.801  -2.461   6.419  0.00  0.00    +0.033 C 
ATOM      3  C   UNL     1      -2.384  -1.164   7.116  0.00  0.00    +0.107 C 
ATOM      4  N   UNL     1      -2.285  -0.084   6.126  0.00  0.00    -0.315 N 
ATOM      5  C   UNL     1      -3.582   0.167   5.483  0.00  0.00    +0.107 C 
ATOM      6  C   UNL     1      -4.035  -1.091   4.737  0.00  0.00    +0.033 C 
ATOM      7  C   UNL     1      -1.783   1.074   6.701  0.00  0.00    +0.123 A 
ATOM      8  C   UNL     1      -0.536   1.560   6.285  0.00  0.00    -0.024 A 
ATOM      9  C   UNL     1      -0.033   2.700   6.838  0.00  0.00    +0.018 A 
ATOM     10  C   UNL     1      -0.794   3.355   7.826  0.00  0.00    +0.046 A 
ATOM     11  C   UNL     1      -0.333   4.537   8.438  0.00  0.00    +0.129 A 
ATOM     12  C   UNL     1      -1.105   5.149   9.399  0.00  0.00    +0.050 A 
ATOM     13  C   UNL     1      -2.334   4.611   9.771  0.00  0.00    +0.051 A 
ATOM     14  C   UNL     1      -2.806   3.467   9.195  0.00  0.00    +0.146 A 
ATOM     15  C   UNL     1      -2.043   2.811   8.208  0.00  0.00    +0.118 A 
ATOM     16  N   UNL     1      -2.487   1.688   7.630  0.00  0.00    -0.228 NA
ENDROOT
BRANCH   1  17
ATOM     17  C   UNL     1      -4.540  -3.508   4.992  0.00  0.00    +0.310 C 
ATOM     18  O   UNL     1      -3.812  -4.472   5.015  0.00  0.00    -0.251 OA
BRANCH  17  19
ATOM     19  O   UNL     1      -5.695  -3.555   4.309  0.00  0.00    -0.465 OA
BRANCH  19  21
ATOM     20  C   UNL     1      -7.349  -4.662   2.905  0.00  0.00    +0.048 C 
ATOM     21  C   UNL     1      -6.005  -4.797   3.623  0.00  0.00    +0.229 C 
ENDBRANCH  19  21
ENDBRANCH  17  19
ENDBRANCH   1  17
BRANCH  14  22
ATOM     22  O   UNL     1      -4.010   2.960   9.573  0.00  0.00    -0.493 OA
ATOM     23  C   UNL     1      -4.728   3.676  10.580  0.00  0.00    +0.277 C 
ENDBRANCH  14  22
BRANCH  11  24
ATOM     24  O   UNL     1       0.865   5.070   8.081  0.00  0.00    -0.494 OA
ATOM     25  C   UNL     1       1.264   6.271   8.745  0.00  0.00    +0.277 C 
ENDBRANCH  11  24
BRANCH   8  26
ATOM     26  C   UNL     1       0.245   0.827   5.225  0.00  0.00    -0.043 C 
BRANCH  26  27
ATOM     27  N   UNL     1      -0.317   1.134   3.903  0.00  0.00    +0.384 N 
ATOM     28  H   UNL     1      -1.341   0.738   3.839  0.00  0.00    -0.085 HD
ATOM     29  H   UNL     1      -0.336   2.224   3.757  0.00  0.00    -0.085 HD
BRANCH  27  30
ATOM     30  C   UNL     1       0.489   0.529   2.835  0.00  0.00    -0.047 C 
BRANCH  30  31
ATOM     31  C   UNL     1      -0.126   0.870   1.476  0.00  0.00    +0.051 C 
ATOM     32  C   UNL     1       0.714   0.240   0.363  0.00  0.00    +0.033 C 
ATOM     33  C   UNL     1       0.099   0.581  -0.996  0.00  0.00    +0.003 C 
ATOM     34  C   UNL     1       0.070   2.100  -1.176  0.00  0.00    +0.000 C 
ATOM     35  C   UNL     1      -0.769   2.730  -0.063  0.00  0.00    +0.003 C 
ATOM     36  C   UNL     1      -0.154   2.389   1.296  0.00  0.00    +0.033 C 
BRANCH  31  37
ATOM     37  O   UNL     1      -1.459   0.358   1.415  0.00  0.00    -0.390 OA
ATOM     38  H   UNL     1      -2.064   0.507   0.508  0.00  0.00    +0.210 HD
ENDBRANCH  31  37
ENDBRANCH  30  31
ENDBRANCH  27  30
ENDBRANCH  26  27
ENDBRANCH   8  26
TORSDOF 10
