REMARK  Name = ZINC40645913
REMARK  8 active torsions:
REMARK  status: ('A' for Active; 'I' for Inactive)
REMARK    1  A    between atoms: C_4  and  C_7
REMARK    2  A    between atoms: C_7  and  C_8
REMARK    3  A    between atoms: N_10  and  N_11
REMARK    4  A    between atoms: C_13  and  N_33
REMARK    5  A    between atoms: C_14  and  N_18
REMARK    6  A    between atoms: N_18  and  C_19
REMARK    7  A    between atoms: C_22  and  N_25
REMARK    8  A    between atoms: N_26  and  C_27
REMARK                            x       y       z     vdW  Elec       q    Type
REMARK                         _______ _______ _______ _____ _____    ______ ____
ROOT
ATOM      1  N   UNL     1       9.921   2.474   4.990  0.00  0.00    -0.246 N 
ATOM      2  C   UNL     1      10.308   1.143   4.964  0.00  0.00    +0.171 A 
ATOM      3  C   UNL     1      11.383   0.705   5.732  0.00  0.00    +0.207 A 
ATOM      4  C   UNL     1      11.731  -0.641   5.671  0.00  0.00    +0.159 A 
ATOM      5  N   UNL     1      11.029  -1.455   4.885  0.00  0.00    -0.218 NA
ATOM      6  C   UNL     1      10.018  -1.002   4.173  0.00  0.00    +0.225 A 
ATOM      7  N   UNL     1       9.654   0.264   4.207  0.00  0.00    -0.217 NA
ATOM      8  H   UNL     1      10.403   3.108   5.544  0.00  0.00    +0.172 HD
ENDROOT
BRANCH   1  11
ATOM      9  C   UNL     1       8.458   4.197   4.243  0.00  0.00    +0.233 C 
ATOM     10  O   UNL     1       9.060   4.989   4.935  0.00  0.00    -0.274 OA
ATOM     11  N   UNL     1       8.834   2.902   4.217  0.00  0.00    -0.235 N 
ATOM     12  H   UNL     1       8.353   2.268   3.664  0.00  0.00    +0.173 HD
BRANCH   9  13
ATOM     13  C   UNL     1       7.289   4.658   3.412  0.00  0.00    +0.132 C 
BRANCH  13  17
ATOM     14  C   UNL     1       6.688   8.847   3.996  0.00  0.00    +0.000 A 
ATOM     15  C   UNL     1       7.526   8.402   2.991  0.00  0.00    +0.000 A 
ATOM     16  C   UNL     1       7.721   7.047   2.802  0.00  0.00    +0.004 A 
ATOM     17  C   UNL     1       7.077   6.136   3.618  0.00  0.00    -0.039 A 
ATOM     18  C   UNL     1       6.240   6.580   4.624  0.00  0.00    +0.004 A 
ATOM     19  C   UNL     1       6.044   7.935   4.812  0.00  0.00    +0.000 A 
ENDBRANCH  13  17
ENDBRANCH   9  13
ENDBRANCH   1  11
BRANCH   3  20
ATOM     20  N   UNL     1      12.136   1.646   6.592  0.00  0.00    +0.063 N 
ATOM     21  O   UNL     1      11.792   1.825   7.737  0.00  0.00    -0.126 OA
ATOM     22  O   UNL     1      13.094   2.234   6.149  0.00  0.00    -0.126 OA
ENDBRANCH   3  20
BRANCH   4  23
ATOM     23  N   UNL     1      12.795  -1.127   6.417  0.00  0.00    -0.297 N 
ATOM     24  H   UNL     1      13.372  -0.513   6.897  0.00  0.00    +0.154 HD
BRANCH  23  25
ATOM     25  C   UNL     1      13.034  -2.499   6.478  0.00  0.00    +0.033 A 
ATOM     26  C   UNL     1      13.568  -3.060   7.635  0.00  0.00    +0.025 A 
ATOM     27  C   UNL     1      13.805  -4.414   7.699  0.00  0.00    +0.031 A 
ATOM     28  C   UNL     1      13.509  -5.227   6.599  0.00  0.00    +0.086 A 
ATOM     29  C   UNL     1      12.973  -4.660   5.438  0.00  0.00    +0.031 A 
ATOM     30  C   UNL     1      12.734  -3.305   5.384  0.00  0.00    +0.025 A 
BRANCH  28  31
ATOM     31  N   UNL     1      13.743  -6.570   6.659  0.00  0.00    -0.149 NA
ATOM     32  N   UNL     1      13.929  -7.143   7.800  0.00  0.00    -0.149 NA
BRANCH  32  33
ATOM     33  C   UNL     1      13.204  -6.748   8.889  0.00  0.00    +0.086 A 
ATOM     34  C   UNL     1      13.617  -7.104  10.175  0.00  0.00    +0.029 A 
ATOM     35  C   UNL     1      12.880  -6.703  11.269  0.00  0.00    +0.002 A 
ATOM     36  C   UNL     1      11.733  -5.948  11.096  0.00  0.00    +0.000 A 
ATOM     37  C   UNL     1      11.317  -5.591   9.825  0.00  0.00    +0.002 A 
ATOM     38  C   UNL     1      12.047  -5.981   8.722  0.00  0.00    +0.029 A 
ENDBRANCH  32  33
ENDBRANCH  28  31
ENDBRANCH  23  25
ENDBRANCH   4  23
TORSDOF 8
