REMARK  Name = ZINC36495742
REMARK  19 active torsions:
REMARK  status: ('A' for Active; 'I' for Inactive)
REMARK    1  A    between atoms: C_1  and  C_2
REMARK    2  A    between atoms: C_2  and  C_3
REMARK    3  A    between atoms: C_2  and  C_4
REMARK    4  A    between atoms: C_2  and  C_5
REMARK    5  A    between atoms: C_5  and  C_6
REMARK    6  A    between atoms: C_6  and  C_7
REMARK    7  A    between atoms: C_6  and  C_8
REMARK    8  A    between atoms: C_6  and  N_9
REMARK    9  A    between atoms: C_10  and  C_12
REMARK   10  A    between atoms: C_12  and  C_14
REMARK   11  A    between atoms: C_12  and  N_23
REMARK   12  A    between atoms: C_17  and  N_20
REMARK   13  A    between atoms: N_20  and  C_21
REMARK   14  A    between atoms: N_20  and  C_22
REMARK   15  A    between atoms: N_23  and  C_24
REMARK   16  A    between atoms: C_24  and  C_25
REMARK   17  A    between atoms: C_30  and  C_32
REMARK   18  A    between atoms: C_32  and  C_33
REMARK   19  A    between atoms: C_33  and  C_34
REMARK                            x       y       z     vdW  Elec       q    Type
REMARK                         _______ _______ _______ _____ _____    ______ ____
ROOT
ATOM      1  C   UNL     1       5.197  -0.591  -4.199  0.00  0.00    +0.193 C 
ENDROOT
BRANCH   1   2
ATOM      2  C   UNL     1       5.720  -1.948  -4.595  0.00  0.00    -0.018 A 
ATOM      3  C   UNL     1       6.862  -2.448  -3.999  0.00  0.00    +0.008 A 
ATOM      4  C   UNL     1       7.344  -3.691  -4.360  0.00  0.00    +0.023 A 
ATOM      5  C   UNL     1       6.680  -4.438  -5.324  0.00  0.00    +0.029 A 
ATOM      6  C   UNL     1       5.532  -3.933  -5.921  0.00  0.00    +0.023 A 
ATOM      7  C   UNL     1       5.052  -2.692  -5.551  0.00  0.00    +0.008 A 
BRANCH   5   8
ATOM      8  N   UNL     1       7.165  -5.696  -5.692  0.00  0.00    -0.336 N 
ATOM      9  C   UNL     1       8.376  -6.227  -5.061  0.00  0.00    +0.129 C 
ATOM     10  C   UNL     1       6.462  -6.483  -6.708  0.00  0.00    +0.129 C 
ENDBRANCH   5   8
ENDBRANCH   1   2
BRANCH   1  12
ATOM     11  N   UNL     1       3.695  -1.699  -2.575  0.00  0.00    -0.308 N 
ATOM     12  C   UNL     1       4.537  -0.683  -2.846  0.00  0.00    +0.239 C 
ATOM     13  O   UNL     1       4.765   0.158  -2.003  0.00  0.00    -0.273 OA
ATOM     14  H   UNL     1       3.513  -2.372  -3.250  0.00  0.00    +0.149 HD
BRANCH  11  15
ATOM     15  C   UNL     1       3.054  -1.788  -1.260  0.00  0.00    +0.030 C 
ATOM     16  C   UNL     1       2.480  -0.422  -0.879  0.00  0.00    +0.031 C 
ATOM     17  C   UNL     1       4.088  -2.216  -0.217  0.00  0.00    +0.031 C 
BRANCH  15  18
ATOM     18  C   UNL     1       1.925  -2.819  -1.312  0.00  0.00    +0.031 C 
BRANCH  18  20
ATOM     19  C   UNL     1       1.799  -3.243  -3.771  0.00  0.00    +0.010 C 
ATOM     20  C   UNL     1       1.092  -2.600  -2.576  0.00  0.00    -0.036 C 
ATOM     21  C   UNL     1       0.930  -1.099  -2.827  0.00  0.00    +0.010 C 
ATOM     22  C   UNL     1      -0.287  -3.238  -2.396  0.00  0.00    +0.010 C 
ENDBRANCH  18  20
ENDBRANCH  15  18
ENDBRANCH  11  15
ENDBRANCH   1  12
BRANCH   1  23
ATOM     23  N   UNL     1       6.308   0.362  -4.137  0.00  0.00    -0.279 N 
ATOM     24  C   UNL     1       6.888   0.794  -5.273  0.00  0.00    +0.217 C 
ATOM     25  O   UNL     1       6.491   0.395  -6.347  0.00  0.00    -0.276 OA
BRANCH  23  26
ATOM     26  C   UNL     1       6.788   0.844  -2.839  0.00  0.00    +0.183 C 
BRANCH  26  27
ATOM     27  C   UNL     1       7.440  -0.290  -2.092  0.00  0.00    +0.122 A 
ATOM     28  C   UNL     1       8.719  -0.685  -2.220  0.00  0.00    +0.046 A 
ATOM     29  C   UNL     1       8.903  -1.774  -1.339  0.00  0.00    +0.041 A 
ATOM     30  C   UNL     1       7.724  -1.981  -0.723  0.00  0.00    +0.195 A 
ATOM     31  O   UNL     1       6.843  -1.075  -1.179  0.00  0.00    -0.466 OA
ENDBRANCH  26  27
ENDBRANCH  23  26
BRANCH  24  32
ATOM     32  C   UNL     1       8.031   1.774  -5.210  0.00  0.00    +0.096 C 
BRANCH  32  33
ATOM     33  C   UNL     1       8.504   2.099  -6.628  0.00  0.00    +0.013 C 
BRANCH  33  34
ATOM     34  C   UNL     1       9.665   3.094  -6.564  0.00  0.00    -0.011 C 
ATOM     35  C   UNL     1      10.864   2.436  -5.878  0.00  0.00    +0.003 C 
ATOM     36  C   UNL     1      12.024   3.431  -5.814  0.00  0.00    +0.000 C 
ATOM     37  C   UNL     1      12.415   3.851  -7.232  0.00  0.00    +0.000 C 
ATOM     38  C   UNL     1      11.216   4.510  -7.917  0.00  0.00    +0.000 C 
ATOM     39  C   UNL     1      10.056   3.515  -7.982  0.00  0.00    +0.003 C 
ENDBRANCH  33  34
ENDBRANCH  32  33
ENDBRANCH  24  32
ENDBRANCH   1  23
TORSDOF 12
