REMARK  Name = ZINC34685994
REMARK  6 active torsions:
REMARK  status: ('A' for Active; 'I' for Inactive)
REMARK    1  A    between atoms: C_3  and  C_6
REMARK    2  A    between atoms: C_6  and  C_7
REMARK    3  A    between atoms: C_13  and  C_16
REMARK    4  A    between atoms: C_16  and  N_17
REMARK    5  A    between atoms: C_23  and  C_25
REMARK    6  A    between atoms: C_28  and  C_31
REMARK                            x       y       z     vdW  Elec       q    Type
REMARK                         _______ _______ _______ _____ _____    ______ ____
ROOT
ATOM      1  N   UNL     1       8.910   1.572   5.361  0.00  0.00    -0.297 NA
ATOM      2  C   UNL     1       8.756   0.112   5.380  0.00  0.00    +0.103 C 
ATOM      3  C   UNL     1      10.071  -0.543   4.944  0.00  0.00    +0.123 C 
ATOM      4  N   UNL     1      11.156  -0.021   5.789  0.00  0.00    -0.295 N 
ATOM      5  C   UNL     1      11.288   1.437   5.930  0.00  0.00    +0.123 C 
ATOM      6  C   UNL     1       9.925   2.013   6.327  0.00  0.00    +0.103 C 
ATOM      7  C   UNL     1      12.006  -0.857   6.418  0.00  0.00    +0.247 C 
ATOM      8  O   UNL     1      12.938  -0.408   7.057  0.00  0.00    -0.270 OA
ENDROOT
BRANCH   7   9
ATOM      9  C   UNL     1      11.805  -2.319   6.331  0.00  0.00    +0.037 A 
ATOM     10  C   UNL     1      11.599  -2.926   5.091  0.00  0.00    +0.013 A 
ATOM     11  C   UNL     1      11.412  -4.290   5.017  0.00  0.00    +0.013 A 
ATOM     12  C   UNL     1      11.428  -5.058   6.169  0.00  0.00    +0.055 A 
ATOM     13  C   UNL     1      11.632  -4.462   7.401  0.00  0.00    +0.013 A 
ATOM     14  C   UNL     1      11.825  -3.099   7.489  0.00  0.00    +0.013 A 
BRANCH  12  15
ATOM     15  C   UNL     1      11.223  -6.548   6.080  0.00  0.00    +0.417 C 
ATOM     16  F   UNL     1      12.461  -7.180   5.920  0.00  0.00    -0.166 F 
ATOM     17  F   UNL     1      10.614  -7.005   7.253  0.00  0.00    -0.166 F 
ATOM     18  F   UNL     1      10.405  -6.842   4.984  0.00  0.00    -0.166 F 
ENDBRANCH  12  15
ENDBRANCH   7   9
BRANCH   1  19
ATOM     19  C   UNL     1       7.625   2.240   5.606  0.00  0.00    +0.117 C 
BRANCH  19  26
ATOM     20  C   UNL     1       3.234   2.069   3.562  0.00  0.00    +0.221 C 
ATOM     21  O   UNL     1       2.758   1.774   4.638  0.00  0.00    -0.275 OA
ATOM     22  N   UNL     1       4.503   2.517   3.487  0.00  0.00    -0.297 N 
ATOM     23  C   UNL     1       5.101   2.887   2.194  0.00  0.00    +0.136 C 
ATOM     24  C   UNL     1       6.452   2.175   2.065  0.00  0.00    +0.179 C 
ATOM     25  O   UNL     1       7.239   2.443   3.228  0.00  0.00    -0.372 OA
ATOM     26  C   UNL     1       6.671   1.952   4.445  0.00  0.00    +0.149 C 
ATOM     27  C   UNL     1       5.329   2.659   4.696  0.00  0.00    +0.140 C 
BRANCH  20  28
ATOM     28  C   UNL     1       2.408   1.933   2.309  0.00  0.00    +0.138 C 
BRANCH  28  31
ATOM     29  C   UNL     1      -1.240   1.417   3.278  0.00  0.00    +0.008 A 
ATOM     30  C   UNL     1      -0.081   2.110   2.985  0.00  0.00    +0.011 A 
ATOM     31  C   UNL     1       1.038   1.415   2.664  0.00  0.00    -0.001 A 
ATOM     32  S   UNL     1       0.467  -0.273   2.772  0.00  0.00    -0.101 S 
ATOM     33  C   UNL     1      -1.224   0.062   3.237  0.00  0.00    +0.045 A 
ENDBRANCH  28  31
ENDBRANCH  20  28
ENDBRANCH  19  26
ENDBRANCH   1  19
TORSDOF 6
