REMARK  Name = ZINC36005455
REMARK  12 active torsions:
REMARK  status: ('A' for Active; 'I' for Inactive)
REMARK    1  A    between atoms: C_1  and  C_2
REMARK    2  A    between atoms: C_2  and  N_3
REMARK    3  A    between atoms: N_10  and  C_13
REMARK    4  A    between atoms: C_13  and  C_14
REMARK    5  A    between atoms: C_15  and  C_31
REMARK    6  A    between atoms: C_16  and  C_23
REMARK    7  A    between atoms: N_21  and  C_22
REMARK    8  A    between atoms: C_25  and  C_30
REMARK    9  A    between atoms: C_28  and  C_29
REMARK   10  A    between atoms: C_31  and  O_33
REMARK   11  A    between atoms: O_33  and  C_34
REMARK   12  A    between atoms: C_34  and  C_35
REMARK                            x       y       z     vdW  Elec       q    Type
REMARK                         _______ _______ _______ _____ _____    ______ ____
ROOT
ATOM      1  C   UNL     1      -3.832  -5.914  -3.775  0.00  0.00    +0.010 C 
ATOM      2  C   UNL     1      -5.150  -6.204  -3.827  0.00  0.00    +0.076 C 
ATOM      3  C   UNL     1      -5.569  -7.635  -3.558  0.00  0.00    +0.144 C 
ATOM      4  N   UNL     1      -4.497  -8.599  -3.260  0.00  0.00    -0.288 N 
ATOM      5  C   UNL     1      -3.224  -8.158  -3.244  0.00  0.00    +0.307 C 
ATOM      6  O   UNL     1      -2.331  -8.946  -2.999  0.00  0.00    -0.252 OA
ATOM      7  N   UNL     1      -2.909  -6.881  -3.495  0.00  0.00    -0.264 N 
ATOM      8  C   UNL     1      -1.495  -6.498  -3.461  0.00  0.00    +0.139 C 
ATOM      9  H   UNL     1      -4.702  -9.530  -3.079  0.00  0.00    +0.151 HD
ENDROOT
BRANCH   3  10
ATOM     10  C   UNL     1      -6.524  -7.628  -2.392  0.00  0.00    -0.019 A 
ATOM     11  C   UNL     1      -6.537  -6.559  -1.516  0.00  0.00    +0.009 A 
ATOM     12  C   UNL     1      -7.413  -6.552  -0.446  0.00  0.00    -0.050 A 
ATOM     13  C   UNL     1      -8.276  -7.615  -0.254  0.00  0.00    +0.003 A 
ATOM     14  C   UNL     1      -8.264  -8.683  -1.130  0.00  0.00    +0.004 A 
ATOM     15  C   UNL     1      -7.391  -8.687  -2.202  0.00  0.00    -0.045 A 
ATOM     16  C   UNL     1      -7.381  -9.850  -3.162  0.00  0.00    +0.044 C 
ATOM     17  C   UNL     1      -7.426  -5.388   0.510  0.00  0.00    +0.044 C 
ENDBRANCH   3  10
BRANCH   2  18
ATOM     18  C   UNL     1      -6.107  -5.204  -4.122  0.00  0.00    +0.339 C 
ATOM     19  O   UNL     1      -5.759  -4.044  -4.237  0.00  0.00    -0.245 OA
BRANCH  18  20
ATOM     20  O   UNL     1      -7.405  -5.538  -4.276  0.00  0.00    -0.462 OA
BRANCH  20  21
ATOM     21  C   UNL     1      -8.298  -4.500  -4.684  0.00  0.00    +0.229 C 
ATOM     22  C   UNL     1      -9.732  -5.033  -4.691  0.00  0.00    +0.048 C 
ENDBRANCH  20  21
ENDBRANCH  18  20
ENDBRANCH   2  18
BRANCH   1  23
ATOM     23  C   UNL     1      -3.372  -4.503  -4.036  0.00  0.00    -0.026 C 
BRANCH  23  31
ATOM     24  N   UNL     1      -0.215  -3.076   0.105  0.00  0.00    -0.300 N 
ATOM     25  C   UNL     1      -0.998  -2.023  -0.205  0.00  0.00    +0.302 C 
ATOM     26  O   UNL     1      -0.540  -0.897  -0.179  0.00  0.00    -0.253 OA
ATOM     27  N   UNL     1      -2.287  -2.220  -0.544  0.00  0.00    -0.287 N 
ATOM     28  C   UNL     1      -3.094  -1.060  -0.975  0.00  0.00    +0.107 C 
ATOM     29  C   UNL     1      -3.989  -1.424  -2.174  0.00  0.00    +0.000 C 
ATOM     30  C   UNL     1      -3.219  -2.314  -3.125  0.00  0.00    -0.077 C 
ATOM     31  N   UNL     1      -3.492  -3.713  -2.804  0.00  0.00    +0.384 N 
ATOM     32  C   UNL     1      -2.640  -4.277  -1.828  0.00  0.00    -0.059 C 
ATOM     33  C   UNL     1      -2.831  -3.561  -0.477  0.00  0.00    +0.091 C 
ATOM     34  H   UNL     1      -0.596  -3.966   0.155  0.00  0.00    +0.150 HD
ATOM     35  H   UNL     1      -4.443  -3.785  -2.476  0.00  0.00    -0.081 HD
BRANCH  24  37
ATOM     36  C   UNL     1       1.866  -4.220   0.690  0.00  0.00    +0.024 C 
ATOM     37  C   UNL     1       1.213  -2.875   0.365  0.00  0.00    +0.102 C 
ENDBRANCH  24  37
ENDBRANCH  23  31
ENDBRANCH   1  23
TORSDOF 7
