REMARK  Name = ZINC39956944
REMARK  4 active torsions:
REMARK  status: ('A' for Active; 'I' for Inactive)
REMARK    1  A    between atoms: C_1  and  O_2
REMARK    2  A    between atoms: O_2  and  C_3
REMARK    3  A    between atoms: C_7  and  C_12
REMARK    4  A    between atoms: C_13  and  C_19
REMARK                            x       y       z     vdW  Elec       q    Type
REMARK                         _______ _______ _______ _____ _____    ______ ____
ROOT
ATOM      1  C   UNL     1       3.279  -2.269   5.282  0.00  0.00    +0.055 C 
ATOM      2  C   UNL     1       3.683  -3.116   6.342  0.00  0.00    +0.055 C 
ATOM      3  C   UNL     1       4.201  -2.216   7.397  0.00  0.00    +0.252 C 
ATOM      4  O   UNL     1       4.645  -2.568   8.472  0.00  0.00    -0.270 OA
ATOM      5  N   UNL     1       4.100  -0.947   6.971  0.00  0.00    -0.248 N 
ATOM      6  C   UNL     1       3.574  -0.891   5.736  0.00  0.00    +0.252 C 
ATOM      7  O   UNL     1       3.370   0.123   5.099  0.00  0.00    -0.270 OA
ATOM      8  H   UNL     1       4.375  -0.172   7.485  0.00  0.00    +0.158 HD
ENDROOT
BRANCH   2   9
ATOM      9  C   UNL     1       3.607  -4.512   6.383  0.00  0.00    -0.006 C 
ATOM     10  C   UNL     1       2.593  -5.288   6.949  0.00  0.00    +0.004 A 
ATOM     11  C   UNL     1       1.398  -4.954   7.616  0.00  0.00    +0.013 A 
ATOM     12  C   UNL     1       0.582  -5.940   8.071  0.00  0.00    +0.039 A 
ATOM     13  C   UNL     1       0.896  -7.295   7.896  0.00  0.00    +0.125 A 
ATOM     14  C   UNL     1       2.029  -7.689   7.264  0.00  0.00    +0.064 A 
ATOM     15  C   UNL     1       2.933  -6.712   6.759  0.00  0.00    +0.046 A 
ATOM     16  N   UNL     1       4.073  -6.832   6.122  0.00  0.00    -0.380 N 
ATOM     17  C   UNL     1       4.605  -5.500   5.819  0.00  0.00    +0.149 C 
ATOM     18  F   UNL     1       0.047  -8.233   8.370  0.00  0.00    -0.205 F 
ATOM     19  H   UNL     1       4.497  -7.671   5.886  0.00  0.00    +0.160 HD
ENDBRANCH   2   9
BRANCH   1  24
ATOM     20  C   UNL     1       4.201  -3.420   0.235  0.00  0.00    +0.122 A 
ATOM     21  C   UNL     1       5.133  -3.045   1.217  0.00  0.00    +0.046 A 
ATOM     22  C   UNL     1       4.753  -2.774   2.492  0.00  0.00    +0.014 A 
ATOM     23  C   UNL     1       3.394  -2.868   2.853  0.00  0.00    +0.004 A 
ATOM     24  C   UNL     1       2.721  -2.654   4.058  0.00  0.00    -0.006 C 
ATOM     25  C   UNL     1       1.263  -2.927   3.761  0.00  0.00    +0.149 C 
ATOM     26  N   UNL     1       1.199  -3.294   2.343  0.00  0.00    -0.380 N 
ATOM     27  C   UNL     1       2.406  -3.261   1.828  0.00  0.00    +0.047 A 
ATOM     28  C   UNL     1       2.874  -3.525   0.513  0.00  0.00    +0.071 A 
ATOM     29  H   UNL     1       0.390  -3.526   1.861  0.00  0.00    +0.160 HD
BRANCH  20  31
ATOM     30  C   UNL     1       6.039  -3.555  -1.264  0.00  0.00    +0.277 C 
ATOM     31  O   UNL     1       4.636  -3.679  -1.024  0.00  0.00    -0.495 OA
ENDBRANCH  20  31
ENDBRANCH   1  24
TORSDOF 3
