REMARK  Name = ZINC25150271
REMARK  14 active torsions:
REMARK  status: ('A' for Active; 'I' for Inactive)
REMARK    1  A    between atoms: C_1  and  C_2
REMARK    2  A    between atoms: C_2  and  N_3
REMARK    3  A    between atoms: N_3  and  C_4
REMARK    4  A    between atoms: N_3  and  C_6
REMARK    5  A    between atoms: C_4  and  C_5
REMARK    6  A    between atoms: C_6  and  C_7
REMARK    7  A    between atoms: C_7  and  C_8
REMARK    8  A    between atoms: C_8  and  C_9
REMARK    9  A    between atoms: C_9  and  C_11
REMARK   10  A    between atoms: C_9  and  N_12
REMARK   11  A    between atoms: C_13  and  C_15
REMARK   12  A    between atoms: C_17  and  C_31
REMARK   13  A    between atoms: N_22  and  C_24
REMARK   14  A    between atoms: C_24  and  C_25
REMARK                            x       y       z     vdW  Elec       q    Type
REMARK                         _______ _______ _______ _____ _____    ______ ____
ROOT
ATOM      1  C   UNL     1       1.458  -0.309  -1.990  0.00  0.00    +0.157 A 
ATOM      2  C   UNL     1       2.066  -1.058  -0.887  0.00  0.00    +0.059 A 
ATOM      3  C   UNL     1       3.056  -0.804   0.079  0.00  0.00    +0.003 A 
ATOM      4  C   UNL     1       3.349  -1.822   0.991  0.00  0.00    +0.029 A 
ATOM      5  C   UNL     1       2.667  -3.023   0.904  0.00  0.00    +0.114 A 
ATOM      6  N   UNL     1       1.749  -3.235  -0.016  0.00  0.00    -0.236 NA
ATOM      7  C   UNL     1       1.424  -2.310  -0.910  0.00  0.00    +0.160 A 
ATOM      8  N   UNL     1       0.534  -2.255  -1.949  0.00  0.00    -0.241 N 
ATOM      9  N   UNL     1       0.568  -1.112  -2.534  0.00  0.00    -0.164 NA
ENDROOT
BRANCH   3  10
ATOM     10  C   UNL     1       3.756   0.493   0.132  0.00  0.00    +0.020 A 
ATOM     11  C   UNL     1       3.860   1.377   1.175  0.00  0.00    +0.016 A 
ATOM     12  C   UNL     1       4.576   2.537   0.990  0.00  0.00    +0.008 A 
ATOM     13  C   UNL     1       5.148   2.777  -0.220  0.00  0.00    +0.046 A 
ATOM     14  S   UNL     1       4.681   1.325  -1.149  0.00  0.00    -0.097 S 
ENDBRANCH   3  10
BRANCH   1  16
ATOM     15  N   UNL     1       2.467   1.284  -3.546  0.00  0.00    -0.307 N 
ATOM     16  C   UNL     1       1.779   1.068  -2.407  0.00  0.00    +0.265 C 
ATOM     17  O   UNL     1       1.423   2.009  -1.724  0.00  0.00    -0.268 OA
ATOM     18  H   UNL     1       2.790   0.433  -4.163  0.00  0.00    +0.149 HD
BRANCH  15  19
ATOM     19  C   UNL     1       2.786   2.653  -3.961  0.00  0.00    +0.070 C 
ATOM     20  C   UNL     1       1.605   3.239  -4.737  0.00  0.00    +0.028 C 
BRANCH  19  21
ATOM     21  C   UNL     1       4.027   2.638  -4.855  0.00  0.00    +0.020 C 
BRANCH  21  22
ATOM     22  C   UNL     1       5.236   2.170  -4.043  0.00  0.00    -0.017 C 
BRANCH  22  23
ATOM     23  C   UNL     1       6.477   2.155  -4.937  0.00  0.00    -0.079 C 
BRANCH  23  24
ATOM     24  N   UNL     1       7.638   1.705  -4.157  0.00  0.00    +0.379 N 
ATOM     25  H   UNL     1       7.691   2.319  -3.246  0.00  0.00    -0.082 HD
BRANCH  24  27
ATOM     26  C   UNL     1       7.477  -0.592  -4.989  0.00  0.00    -0.017 C 
ATOM     27  C   UNL     1       7.486   0.302  -3.748  0.00  0.00    -0.082 C 
ENDBRANCH  24  27
BRANCH  24  28
ATOM     28  C   UNL     1       8.885   1.902  -4.908  0.00  0.00    -0.082 C 
ATOM     29  C   UNL     1      10.077   1.784  -3.956  0.00  0.00    -0.017 C 
ENDBRANCH  24  28
ENDBRANCH  23  24
ENDBRANCH  22  23
ENDBRANCH  21  22
ENDBRANCH  19  21
ENDBRANCH  15  19
ENDBRANCH   1  16
BRANCH   8  30
ATOM     30  C   UNL     1      -0.356  -3.353  -2.333  0.00  0.00    +0.181 C 
BRANCH  30  31
ATOM     31  C   UNL     1      -1.658  -3.229  -1.584  0.00  0.00    -0.026 A 
ATOM     32  C   UNL     1      -1.812  -3.848  -0.357  0.00  0.00    +0.005 A 
ATOM     33  C   UNL     1      -3.004  -3.730   0.332  0.00  0.00    +0.000 A 
ATOM     34  C   UNL     1      -4.047  -3.002  -0.210  0.00  0.00    +0.000 A 
ATOM     35  C   UNL     1      -3.895  -2.388  -1.439  0.00  0.00    +0.000 A 
ATOM     36  C   UNL     1      -2.701  -2.501  -2.126  0.00  0.00    +0.005 A 
ENDBRANCH  30  31
ENDBRANCH   8  30
TORSDOF 11
