REMARK  Name = ZINC66627890
REMARK  5 active torsions:
REMARK  status: ('A' for Active; 'I' for Inactive)
REMARK    1  A    between atoms: C_6  and  C_7
REMARK    2  A    between atoms: C_7  and  N_8
REMARK    3  A    between atoms: N_11  and  C_12
REMARK    4  A    between atoms: C_12  and  C_13
REMARK    5  A    between atoms: N_15  and  C_16
REMARK                            x       y       z     vdW  Elec       q    Type
REMARK                         _______ _______ _______ _____ _____    ______ ____
ROOT
ATOM      1  C   UNL     1      -4.503  -2.658  -3.134  0.00  0.00    +0.202 C 
ENDROOT
BRANCH   1   5
ATOM      2  N   UNL     1      -1.724  -1.022  -1.367  0.00  0.00    -0.295 N 
ATOM      3  C   UNL     1      -2.863  -1.702  -1.606  0.00  0.00    +0.300 C 
ATOM      4  O   UNL     1      -3.528  -2.119  -0.677  0.00  0.00    -0.253 OA
ATOM      5  N   UNL     1      -3.264  -1.919  -2.874  0.00  0.00    -0.291 N 
ATOM      6  H   UNL     1      -1.193  -0.689  -2.108  0.00  0.00    +0.151 HD
ATOM      7  H   UNL     1      -2.734  -1.587  -3.615  0.00  0.00    +0.151 HD
BRANCH   2   8
ATOM      8  C   UNL     1      -1.287  -0.786   0.011  0.00  0.00    +0.141 C 
BRANCH   8  14
ATOM      9  C   UNL     1      -0.019   1.372   0.018  0.00  0.00    +0.006 A 
ATOM     10  C   UNL     1       1.165   2.085   0.011  0.00  0.00    +0.020 A 
ATOM     11  C   UNL     1       2.375   1.414  -0.012  0.00  0.00    +0.041 A 
ATOM     12  C   UNL     1       2.398   0.031  -0.027  0.00  0.00    +0.020 A 
ATOM     13  C   UNL     1       1.214  -0.680  -0.020  0.00  0.00    +0.006 A 
ATOM     14  C   UNL     1       0.005  -0.010   0.003  0.00  0.00    -0.030 A 
ATOM     15 CL   UNL     1       3.863   2.308  -0.021  0.00  0.00    -0.084 Cl
ENDBRANCH   8  14
ENDBRANCH   2   8
ENDBRANCH   1   5
BRANCH   1  16
ATOM     16  C   UNL     1      -4.723  -2.762  -4.621  0.00  0.00    +0.234 C 
ATOM     17  O   UNL     1      -3.924  -2.268  -5.388  0.00  0.00    -0.274 OA
ATOM     18  N   UNL     1      -5.807  -3.405  -5.098  0.00  0.00    -0.284 N 
ATOM     19  H   UNL     1      -6.410  -3.857  -4.488  0.00  0.00    +0.155 HD
BRANCH  18  20
ATOM     20  C   UNL     1      -6.064  -3.419  -6.475  0.00  0.00    +0.034 A 
ATOM     21  C   UNL     1      -5.004  -3.476  -7.378  0.00  0.00    +0.027 A 
ATOM     22  C   UNL     1      -5.239  -3.490  -8.736  0.00  0.00    +0.049 A 
ATOM     23  C   UNL     1      -6.542  -3.448  -9.216  0.00  0.00    +0.139 A 
ATOM     24  C   UNL     1      -7.614  -3.390  -8.309  0.00  0.00    +0.019 A 
ATOM     25  C   UNL     1      -7.367  -3.382  -6.934  0.00  0.00    +0.035 A 
ATOM     26  C   UNL     1      -8.985  -3.346  -8.830  0.00  0.00    +0.018 A 
ATOM     27  C   UNL     1      -9.160  -3.363 -10.175  0.00  0.00    +0.092 A 
ATOM     28  C   UNL     1      -8.037  -3.421 -11.029  0.00  0.00    +0.337 A 
ATOM     29  O   UNL     1      -8.208  -3.435 -12.234  0.00  0.00    -0.245 OA
ATOM     30  O   UNL     1      -6.786  -3.461 -10.545  0.00  0.00    -0.422 OA
ENDBRANCH  18  20
ENDBRANCH   1  16
TORSDOF 5
