REMARK  Name = ZINC07718581
REMARK  4 active torsions:
REMARK  status: ('A' for Active; 'I' for Inactive)
REMARK    1  A    between atoms: C_1  and  C_2
REMARK    2  A    between atoms: C_6  and  N_9
REMARK    3  A    between atoms: C_7  and  C_8
REMARK    4  A    between atoms: N_19  and  C_22
REMARK                            x       y       z     vdW  Elec       q    Type
REMARK                         _______ _______ _______ _____ _____    ______ ____
ROOT
ATOM      1  N   UNL     1      -1.237   2.069   0.019  0.00  0.00    -0.248 N 
ATOM      2  C   UNL     1      -2.003   2.502  -1.112  0.00  0.00    +0.126 C 
ATOM      3  C   UNL     1      -1.967   1.913  -2.500  0.00  0.00    +0.190 C 
ATOM      4  S   UNL     1      -3.645   2.397  -3.120  0.00  0.00    -0.027 S 
ATOM      5  O   UNL     1      -4.367   1.224  -3.469  0.00  0.00    -0.174 OA
ATOM      6  O   UNL     1      -3.505   3.443  -4.073  0.00  0.00    -0.174 OA
ATOM      7  C   UNL     1      -4.346   3.097  -1.550  0.00  0.00    +0.190 C 
ATOM      8  C   UNL     1      -3.453   2.364  -0.552  0.00  0.00    +0.126 C 
ATOM      9  N   UNL     1      -3.232   2.850   0.791  0.00  0.00    -0.249 N 
ATOM     10  C   UNL     1      -1.961   2.466   1.111  0.00  0.00    +0.314 C 
ATOM     11  O   UNL     1      -1.520   2.477   2.244  0.00  0.00    -0.252 OA
ENDROOT
BRANCH   1  17
ATOM     12  C   UNL     1       1.229  -2.183  -0.022  0.00  0.00    +0.044 C 
ATOM     13  C   UNL     1       1.208  -0.677  -0.013  0.00  0.00    -0.046 A 
ATOM     14  C   UNL     1       2.396   0.031  -0.021  0.00  0.00    +0.004 A 
ATOM     15  C   UNL     1       2.381   1.413  -0.013  0.00  0.00    +0.002 A 
ATOM     16  C   UNL     1       1.178   2.092   0.002  0.00  0.00    +0.024 A 
ATOM     17  C   UNL     1      -0.017   1.385   0.010  0.00  0.00    +0.041 A 
ATOM     18  C   UNL     1       0.002  -0.004   0.002  0.00  0.00    -0.026 A 
ATOM     19  C   UNL     1      -1.292  -0.776   0.010  0.00  0.00    +0.046 C 
ENDBRANCH   1  17
BRANCH   9  20
ATOM     20  C   UNL     1      -4.133   3.558   1.594  0.00  0.00    +0.038 A 
ATOM     21  C   UNL     1      -5.397   3.871   1.113  0.00  0.00    +0.023 A 
ATOM     22  C   UNL     1      -6.286   4.566   1.911  0.00  0.00    +0.002 A 
ATOM     23  C   UNL     1      -5.913   4.959   3.183  0.00  0.00    +0.000 A 
ATOM     24  C   UNL     1      -4.652   4.655   3.662  0.00  0.00    +0.002 A 
ATOM     25  C   UNL     1      -3.761   3.956   2.872  0.00  0.00    +0.023 A 
ENDBRANCH   9  20
TORSDOF 2
