REMARK  Name = ZINC36553019
REMARK  14 active torsions:
REMARK  status: ('A' for Active; 'I' for Inactive)
REMARK    1  A    between atoms: C_1  and  C_2
REMARK    2  A    between atoms: C_5  and  C_8
REMARK    3  A    between atoms: C_8  and  C_10
REMARK    4  A    between atoms: C_8  and  N_21
REMARK    5  A    between atoms: N_12  and  C_13
REMARK    6  A    between atoms: C_13  and  C_14
REMARK    7  A    between atoms: C_13  and  C_15
REMARK    8  A    between atoms: C_13  and  C_16
REMARK    9  A    between atoms: C_16  and  C_17
REMARK   10  A    between atoms: C_17  and  C_18
REMARK   11  A    between atoms: C_17  and  C_19
REMARK   12  A    between atoms: C_17  and  C_20
REMARK   13  A    between atoms: N_21  and  C_22
REMARK   14  A    between atoms: C_29  and  C_31
REMARK                            x       y       z     vdW  Elec       q    Type
REMARK                         _______ _______ _______ _____ _____    ______ ____
ROOT
ATOM      1  C   UNL     1       0.708  -4.321  -1.242  0.00  0.00    +0.197 C 
ENDROOT
BRANCH   1   6
ATOM      2  C   UNL     1      -1.743  -1.365  -5.560  0.00  0.00    +0.044 C 
ATOM      3  C   UNL     1      -1.104  -2.136  -4.434  0.00  0.00    -0.050 A 
ATOM      4  C   UNL     1      -0.636  -3.418  -4.652  0.00  0.00    +0.004 A 
ATOM      5  C   UNL     1      -0.050  -4.125  -3.619  0.00  0.00    +0.006 A 
ATOM      6  C   UNL     1       0.070  -3.550  -2.368  0.00  0.00    -0.018 A 
ATOM      7  C   UNL     1      -0.397  -2.267  -2.150  0.00  0.00    +0.006 A 
ATOM      8  C   UNL     1      -0.980  -1.558  -3.184  0.00  0.00    +0.004 A 
ENDBRANCH   1   6
BRANCH   1   9
ATOM      9  C   UNL     1       1.855  -3.524  -0.674  0.00  0.00    +0.239 C 
ATOM     10  O   UNL     1       1.844  -3.192   0.492  0.00  0.00    -0.273 OA
ATOM     11  N   UNL     1       2.892  -3.181  -1.463  0.00  0.00    -0.308 N 
ATOM     12  H   UNL     1       2.901  -3.446  -2.396  0.00  0.00    +0.149 HD
BRANCH  11  13
ATOM     13  C   UNL     1       4.007  -2.406  -0.911  0.00  0.00    +0.030 C 
ATOM     14  C   UNL     1       3.523  -1.000  -0.554  0.00  0.00    +0.031 C 
ATOM     15  C   UNL     1       4.536  -3.099   0.346  0.00  0.00    +0.031 C 
BRANCH  13  16
ATOM     16  C   UNL     1       5.126  -2.312  -1.951  0.00  0.00    +0.031 C 
BRANCH  16  17
ATOM     17  C   UNL     1       5.043  -3.509  -2.900  0.00  0.00    -0.036 C 
ATOM     18  C   UNL     1       3.901  -3.292  -3.896  0.00  0.00    +0.010 C 
ATOM     19  C   UNL     1       6.363  -3.649  -3.660  0.00  0.00    +0.010 C 
ATOM     20  C   UNL     1       4.781  -4.782  -2.093  0.00  0.00    +0.010 C 
ENDBRANCH  16  17
ENDBRANCH  13  16
ENDBRANCH  11  13
ENDBRANCH   1   9
BRANCH   1  21
ATOM     21  N   UNL     1      -0.284  -4.563  -0.192  0.00  0.00    -0.254 N 
ATOM     22  C   UNL     1       0.034  -5.324   0.874  0.00  0.00    +0.241 C 
ATOM     23  O   UNL     1       1.166  -5.738   1.007  0.00  0.00    -0.273 OA
BRANCH  21  24
ATOM     24  C   UNL     1      -1.564  -4.005  -0.296  0.00  0.00    +0.039 A 
ATOM     25  C   UNL     1      -1.939  -2.965   0.543  0.00  0.00    +0.023 A 
ATOM     26  C   UNL     1      -3.202  -2.416   0.439  0.00  0.00    +0.003 A 
ATOM     27  C   UNL     1      -4.093  -2.901  -0.500  0.00  0.00    +0.020 A 
ATOM     28  C   UNL     1      -3.723  -3.939  -1.338  0.00  0.00    +0.043 A 
ATOM     29  C   UNL     1      -2.458  -4.487  -1.242  0.00  0.00    +0.043 A 
ATOM     30 CL   UNL     1      -4.845  -4.546  -2.515  0.00  0.00    -0.083 Cl
ENDBRANCH  21  24
BRANCH  22  31
ATOM     31  C   UNL     1      -1.016  -5.660   1.901  0.00  0.00    +0.160 C 
ATOM     32  C   UNL     1      -0.938  -4.673   3.088  0.00  0.00    +0.041 C 
ATOM     33  C   UNL     1      -0.018  -5.434   4.070  0.00  0.00    +0.098 C 
ATOM     34  C   UNL     1      -0.193  -6.888   3.692  0.00  0.00    +0.214 C 
ATOM     35  O   UNL     1       0.129  -7.830   4.385  0.00  0.00    -0.276 OA
ATOM     36  N   UNL     1      -0.760  -6.986   2.475  0.00  0.00    -0.304 N 
ATOM     37  H   UNL     1      -0.972  -7.823   2.034  0.00  0.00    +0.149 HD
ENDBRANCH  22  31
ENDBRANCH   1  21
TORSDOF 8
