REMARK  Name = ZINC21255488
REMARK  7 active torsions:
REMARK  status: ('A' for Active; 'I' for Inactive)
REMARK    1  A    between atoms: C_1  and  O_2
REMARK    2  A    between atoms: O_2  and  C_3
REMARK    3  A    between atoms: C_8  and  C_9
REMARK    4  A    between atoms: C_14  and  C_24
REMARK    5  A    between atoms: C_29  and  O_30
REMARK    6  A    between atoms: O_30  and  C_31
REMARK    7  A    between atoms: C_31  and  C_32
REMARK                            x       y       z     vdW  Elec       q    Type
REMARK                         _______ _______ _______ _____ _____    ______ ____
ROOT
ATOM      1  C   UNL     1      -3.421   2.294  -3.736  0.00  0.00    +0.035 C 
ATOM      2  C   UNL     1      -2.354   3.372  -3.558  0.00  0.00    +0.060 C 
ATOM      3  C   UNL     1      -1.870   3.389  -2.116  0.00  0.00    +0.017 C 
ATOM      4  C   UNL     1      -1.818   2.253  -1.405  0.00  0.00    +0.037 C 
ATOM      5  C   UNL     1      -1.332   2.119   0.020  0.00  0.00    +0.139 C 
ATOM      6  N   UNL     1      -1.147   3.380   0.706  0.00  0.00    -0.331 N 
ATOM      7  C   UNL     1      -0.190   4.298   0.280  0.00  0.00    +0.049 A 
ATOM      8  C   UNL     1       0.922   4.592   1.055  0.00  0.00    +0.025 A 
ATOM      9  C   UNL     1       1.888   5.451   0.561  0.00  0.00    +0.002 A 
ATOM     10  C   UNL     1       1.750   6.015  -0.694  0.00  0.00    +0.002 A 
ATOM     11  C   UNL     1       0.630   5.741  -1.462  0.00  0.00    +0.025 A 
ATOM     12  C   UNL     1      -0.345   4.897  -0.961  0.00  0.00    +0.052 A 
ATOM     13  N   UNL     1      -1.517   4.617  -1.656  0.00  0.00    -0.316 N 
ATOM     14  C   UNL     1      -2.247   1.032  -1.977  0.00  0.00    +0.163 C 
ATOM     15  O   UNL     1      -2.174   0.016  -1.313  0.00  0.00    -0.292 OA
ATOM     16  C   UNL     1      -2.786   0.946  -3.373  0.00  0.00    +0.088 C 
ATOM     17  H   UNL     1      -1.769   3.627   1.579  0.00  0.00    +0.147 HD
ATOM     18  H   UNL     1      -2.179   5.479  -1.826  0.00  0.00    +0.152 HD
ENDROOT
BRANCH   1  24
ATOM     19  C   UNL     1      -5.232   2.463  -5.461  0.00  0.00    +0.124 A 
ATOM     20  C   UNL     1      -5.660   2.444  -6.781  0.00  0.00    +0.046 A 
ATOM     21  C   UNL     1      -4.752   2.222  -7.798  0.00  0.00    +0.004 A 
ATOM     22  C   UNL     1      -3.416   2.024  -7.501  0.00  0.00    +0.001 A 
ATOM     23  C   UNL     1      -2.986   2.047  -6.188  0.00  0.00    +0.007 A 
ATOM     24  C   UNL     1      -3.890   2.269  -5.167  0.00  0.00    -0.002 A 
BRANCH  19  26
ATOM     25  C   UNL     1      -7.489   2.868  -4.836  0.00  0.00    +0.277 C 
ATOM     26  O   UNL     1      -6.125   2.676  -4.459  0.00  0.00    -0.495 OA
ENDBRANCH  19  26
ENDBRANCH   1  24
BRANCH   5  27
ATOM     27  C   UNL     1      -0.017   1.383   0.010  0.00  0.00    +0.019 A 
ATOM     28  C   UNL     1       0.704   1.271  -1.164  0.00  0.00    +0.009 A 
ATOM     29  C   UNL     1       1.907   0.590  -1.175  0.00  0.00    +0.001 A 
ATOM     30  C   UNL     1       2.393   0.021  -0.013  0.00  0.00    +0.004 A 
ATOM     31  C   UNL     1       1.676   0.130   1.163  0.00  0.00    +0.046 A 
ATOM     32  C   UNL     1       0.468   0.812   1.177  0.00  0.00    +0.126 A 
BRANCH  32  33
ATOM     33  O   UNL     1      -0.238   0.921   2.333  0.00  0.00    -0.487 OA
BRANCH  33  34
ATOM     34  C   UNL     1       0.322   0.309   3.496  0.00  0.00    +0.264 C 
BRANCH  34  35
ATOM     35  C   UNL     1      -0.595   0.532   4.672  0.00  0.00    -0.010 A 
ATOM     36  C   UNL     1      -0.434   1.648   5.471  0.00  0.00    +0.007 A 
ATOM     37  C   UNL     1      -1.277   1.855   6.546  0.00  0.00    +0.000 A 
ATOM     38  C   UNL     1      -2.275   0.941   6.829  0.00  0.00    +0.000 A 
ATOM     39  C   UNL     1      -2.432  -0.178   6.032  0.00  0.00    +0.000 A 
ATOM     40  C   UNL     1      -1.592  -0.383   4.954  0.00  0.00    +0.007 A 
ENDBRANCH  34  35
ENDBRANCH  33  34
ENDBRANCH  32  33
ENDBRANCH   5  27
TORSDOF 6
