REMARK  Name = ZINC19633356
REMARK  3 active torsions:
REMARK  status: ('A' for Active; 'I' for Inactive)
REMARK    1  A    between atoms: C_4  and  C_7
REMARK    2  A    between atoms: C_8  and  C_9
REMARK    3  A    between atoms: C_9  and  N_10
REMARK                            x       y       z     vdW  Elec       q    Type
REMARK                         _______ _______ _______ _____ _____    ______ ____
ROOT
ATOM      1  N   UNL     1       0.792  -0.477  -1.143  0.00  0.00    -0.296 NA
ATOM      2  C   UNL     1       0.138  -0.132  -2.413  0.00  0.00    +0.103 C 
ATOM      3  C   UNL     1       1.028  -0.570  -3.578  0.00  0.00    +0.122 C 
ATOM      4  N   UNL     1       1.271  -2.017  -3.489  0.00  0.00    -0.314 N 
ATOM      5  C   UNL     1       1.925  -2.361  -2.219  0.00  0.00    +0.122 C 
ATOM      6  C   UNL     1       1.034  -1.923  -1.054  0.00  0.00    +0.103 C 
ATOM      7  C   UNL     1       2.018  -2.464  -4.572  0.00  0.00    +0.099 A 
ATOM      8  C   UNL     1       1.563  -2.233  -5.866  0.00  0.00    +0.042 A 
ATOM      9  C   UNL     1       2.317  -2.684  -6.935  0.00  0.00    +0.005 A 
ATOM     10  C   UNL     1       3.505  -3.353  -6.672  0.00  0.00    +0.018 A 
ATOM     11  C   UNL     1       3.897  -3.547  -5.363  0.00  0.00    +0.084 A 
ATOM     12  N   UNL     1       3.160  -3.101  -4.363  0.00  0.00    -0.350 N 
ATOM     13  H   UNL     1       3.515  -3.271  -3.336  0.00  0.00    +0.166 HD
ENDROOT
BRANCH   1  14
ATOM     14  C   UNL     1       0.002  -0.004   0.002  0.00  0.00    +0.111 C 
BRANCH  14  16
ATOM     15  C   UNL     1      -1.175   2.150   0.019  0.00  0.00    +0.005 C 
ATOM     16  C   UNL     1      -0.018   1.503   0.010  0.00  0.00    -0.011 C 
BRANCH  15  20
ATOM     17  C   UNL     1      -1.233   6.397   0.043  0.00  0.00    +0.000 A 
ATOM     18  C   UNL     1      -2.423   5.692   0.044  0.00  0.00    +0.001 A 
ATOM     19  C   UNL     1      -2.411   4.312   0.037  0.00  0.00    +0.008 A 
ATOM     20  C   UNL     1      -1.195   3.628   0.027  0.00  0.00    -0.025 A 
ATOM     21  C   UNL     1       0.002   4.345   0.031  0.00  0.00    +0.008 A 
ATOM     22  C   UNL     1      -0.024   5.724   0.033  0.00  0.00    +0.001 A 
ENDBRANCH  15  20
ENDBRANCH  14  16
ENDBRANCH   1  14
TORSDOF 3
