REMARK  Name = ZINC47006469
REMARK  7 active torsions:
REMARK  status: ('A' for Active; 'I' for Inactive)
REMARK    1  A    between atoms: C_1  and  C_2
REMARK    2  A    between atoms: C_2  and  C_3
REMARK    3  A    between atoms: N_15  and  C_16
REMARK    4  A    between atoms: C_16  and  C_18
REMARK    5  A    between atoms: C_16  and  C_19
REMARK    6  A    between atoms: N_22  and  C_25
REMARK    7  A    between atoms: C_23  and  C_24
REMARK                            x       y       z     vdW  Elec       q    Type
REMARK                         _______ _______ _______ _____ _____    ______ ____
ROOT
ATOM      1  C   UNL     1       3.037  -0.807   0.212  0.00  0.00    +0.108 C 
ATOM      2  C   UNL     1       2.314  -0.859  -1.133  0.00  0.00    -0.017 A 
ATOM      3  C   UNL     1       2.948  -1.199  -2.327  0.00  0.00    +0.013 A 
ATOM      4  C   UNL     1       2.244  -1.229  -3.482  0.00  0.00    +0.046 A 
ATOM      5  S   UNL     1       0.610  -0.767  -2.928  0.00  0.00    -0.101 S 
ATOM      6  C   UNL     1       0.988  -0.566  -1.207  0.00  0.00    -0.004 A 
ATOM      7  C   UNL     1       0.072  -0.166  -0.096  0.00  0.00    +0.062 C 
ATOM      8  C   UNL     1       0.741  -0.515   1.243  0.00  0.00    +0.115 C 
ATOM      9  N   UNL     1       2.157  -0.122   1.169  0.00  0.00    -0.278 N 
ATOM     10  C   UNL     1       2.640   0.850   1.967  0.00  0.00    +0.303 C 
ATOM     11  O   UNL     1       1.887   1.476   2.688  0.00  0.00    -0.253 OA
ATOM     12  N   UNL     1       3.959   1.130   1.966  0.00  0.00    -0.293 N 
ATOM     13  H   UNL     1       4.549   0.682   1.340  0.00  0.00    +0.151 HD
ENDROOT
BRANCH   1  15
ATOM     14  C   UNL     1       4.143  -2.166   1.993  0.00  0.00    +0.006 C 
ATOM     15  C   UNL     1       3.328  -2.227   0.700  0.00  0.00    +0.024 C 
ENDBRANCH   1  15
BRANCH  12  16
ATOM     16  C   UNL     1       4.501   2.111   2.910  0.00  0.00    +0.105 C 
ATOM     17  C   UNL     1       4.797   1.424   4.244  0.00  0.00    +0.033 C 
BRANCH  16  18
ATOM     18  C   UNL     1       5.773   2.695   2.352  0.00  0.00    +0.013 A 
ATOM     19  C   UNL     1       6.569   2.129   1.351  0.00  0.00    +0.140 A 
ATOM     20  N   UNL     1       7.584   2.926   1.137  0.00  0.00    -0.179 NA
ATOM     21  N   UNL     1       7.466   4.026   1.996  0.00  0.00    -0.271 N 
ATOM     22  C   UNL     1       6.344   3.863   2.728  0.00  0.00    +0.041 A 
ATOM     23  C   UNL     1       5.822   4.810   3.777  0.00  0.00    +0.065 C 
ATOM     24  C   UNL     1       8.394   5.156   2.082  0.00  0.00    +0.172 C 
ENDBRANCH  16  18
ENDBRANCH  12  16
TORSDOF 3
