REMARK  Name = ZINC20876314
REMARK  10 active torsions:
REMARK  status: ('A' for Active; 'I' for Inactive)
REMARK    1  A    between atoms: C_1  and  C_2
REMARK    2  A    between atoms: C_2  and  C_4
REMARK    3  A    between atoms: C_2  and  N_10
REMARK    4  A    between atoms: N_10  and  C_11
REMARK    5  A    between atoms: C_11  and  C_12
REMARK    6  A    between atoms: C_14  and  O_29
REMARK    7  A    between atoms: C_15  and  O_19
REMARK    8  A    between atoms: O_19  and  C_20
REMARK    9  A    between atoms: C_20  and  C_21
REMARK   10  A    between atoms: O_29  and  C_30
REMARK                            x       y       z     vdW  Elec       q    Type
REMARK                         _______ _______ _______ _____ _____    ______ ____
ROOT
ATOM      1  C   UNL     1      -0.367   5.119   0.562  0.00  0.00    -0.060 A 
ATOM      2  C   UNL     1      -0.254   3.751   0.398  0.00  0.00    +0.051 A 
ATOM      3  C   UNL     1      -0.787   2.893   1.346  0.00  0.00    +0.163 A 
ATOM      4  C   UNL     1      -1.427   3.411   2.468  0.00  0.00    +0.176 A 
ATOM      5  C   UNL     1      -1.532   4.784   2.630  0.00  0.00    +0.063 A 
ATOM      6  C   UNL     1      -1.001   5.635   1.676  0.00  0.00    +0.021 A 
ATOM      7 BR   UNL     1      -2.400   5.494   4.152  0.00  0.00    -0.046 Br
ENDROOT
BRANCH   3   8
ATOM      8  O   UNL     1      -0.682   1.547   1.184  0.00  0.00    -0.491 OA
ATOM      9  C   UNL     1      -0.013   1.086   0.008  0.00  0.00    +0.277 C 
ENDBRANCH   3   8
BRANCH   1  10
ATOM     10  C   UNL     1       0.208   6.050  -0.474  0.00  0.00    -0.046 C 
BRANCH  10  11
ATOM     11  N   UNL     1       1.601   6.365  -0.130  0.00  0.00    +0.386 N 
ATOM     12  H   UNL     1       2.177   5.429  -0.099  0.00  0.00    -0.085 HD
ATOM     13  H   UNL     1       1.620   6.841   0.861  0.00  0.00    -0.085 HD
BRANCH  11  15
ATOM     14  C   UNL     1       2.739   6.459  -2.297  0.00  0.00    -0.009 C 
ATOM     15  C   UNL     1       2.195   7.273  -1.121  0.00  0.00    -0.044 C 
BRANCH  15  16
ATOM     16  C   UNL     1       3.320   8.046  -0.482  0.00  0.00    -0.062 A 
ATOM     17  C   UNL     1       4.177   7.416   0.401  0.00  0.00    +0.002 A 
ATOM     18  C   UNL     1       5.212   8.124   0.983  0.00  0.00    +0.000 A 
ATOM     19  C   UNL     1       5.384   9.464   0.690  0.00  0.00    +0.000 A 
ATOM     20  C   UNL     1       4.524  10.095  -0.190  0.00  0.00    +0.000 A 
ATOM     21  C   UNL     1       3.492   9.386  -0.775  0.00  0.00    +0.002 A 
ENDBRANCH  15  16
ENDBRANCH  11  15
ENDBRANCH  10  11
ENDBRANCH   1  10
BRANCH   4  22
ATOM     22  O   UNL     1      -1.947   2.573   3.405  0.00  0.00    -0.483 OA
BRANCH  22  23
ATOM     23  C   UNL     1      -1.086   2.185   4.478  0.00  0.00    +0.264 C 
BRANCH  23  24
ATOM     24  C   UNL     1      -1.830   1.263   5.409  0.00  0.00    -0.009 A 
ATOM     25  C   UNL     1      -2.536   1.782   6.478  0.00  0.00    +0.008 A 
ATOM     26  C   UNL     1      -3.223   0.938   7.330  0.00  0.00    +0.022 A 
ATOM     27  C   UNL     1      -3.194  -0.429   7.120  0.00  0.00    +0.059 A 
ATOM     28  C   UNL     1      -2.482  -0.950   6.053  0.00  0.00    +0.060 A 
ATOM     29  C   UNL     1      -1.800  -0.103   5.198  0.00  0.00    +0.028 A 
ATOM     30 CL   UNL     1      -2.446  -2.665   5.788  0.00  0.00    -0.082 Cl
ATOM     31 CL   UNL     1      -4.051  -1.491   8.193  0.00  0.00    -0.082 Cl
ENDBRANCH  23  24
ENDBRANCH  22  23
ENDBRANCH   4  22
TORSDOF 8
