REMARK  Name = ZINC07260099
REMARK  7 active torsions:
REMARK  status: ('A' for Active; 'I' for Inactive)
REMARK    1  A    between atoms: C_1  and  C_2
REMARK    2  A    between atoms: C_5  and  N_9
REMARK    3  A    between atoms: C_10  and  C_12
REMARK    4  A    between atoms: C_12  and  C_14
REMARK    5  A    between atoms: C_12  and  S_15
REMARK    6  A    between atoms: S_15  and  C_16
REMARK    7  A    between atoms: C_18  and  C_22
REMARK                            x       y       z     vdW  Elec       q    Type
REMARK                         _______ _______ _______ _____ _____    ______ ____
ROOT
ATOM      1  C   UNL     1       0.306  -6.353   1.116  0.00  0.00    +0.137 C 
ATOM      2  C   UNL     1      -1.074  -6.985   0.928  0.00  0.00    +0.029 C 
ENDROOT
BRANCH   1   4
ATOM      3  N   UNL     1       0.057  -4.171  -0.023  0.00  0.00    -0.285 N 
ATOM      4  C   UNL     1       0.174  -4.852   1.134  0.00  0.00    +0.230 C 
ATOM      5  O   UNL     1       0.172  -4.256   2.191  0.00  0.00    -0.274 OA
ATOM      6  H   UNL     1      -0.018  -4.652  -0.863  0.00  0.00    +0.155 HD
BRANCH   3  11
ATOM      7  C   UNL     1       0.013   1.503   0.016  0.00  0.00    +0.047 C 
ATOM      8  C   UNL     1       0.024  -0.004   0.005  0.00  0.00    -0.015 A 
ATOM      9  C   UNL     1       0.778  -0.695   0.935  0.00  0.00    +0.008 A 
ATOM     10  C   UNL     1       0.791  -2.076   0.928  0.00  0.00    +0.024 A 
ATOM     11  C   UNL     1       0.045  -2.772  -0.014  0.00  0.00    +0.036 A 
ATOM     12  C   UNL     1      -0.713  -2.078  -0.947  0.00  0.00    +0.062 A 
ATOM     13  C   UNL     1      -0.726  -0.694  -0.932  0.00  0.00    +0.128 A 
ATOM     14  F   UNL     1      -1.467  -0.016  -1.836  0.00  0.00    -0.205 F 
ENDBRANCH   3  11
ENDBRANCH   1   4
BRANCH   1  15
ATOM     15  S   UNL     1       1.020  -6.916   2.686  0.00  0.00    -0.074 S 
BRANCH  15  16
ATOM     16  C   UNL     1       1.247  -8.648   2.454  0.00  0.00    +0.185 A 
ATOM     17  N   UNL     1       0.950  -9.327   1.368  0.00  0.00    -0.200 NA
ATOM     18  C   UNL     1       1.256 -10.621   1.548  0.00  0.00    +0.189 A 
ATOM     19  N   UNL     1       1.754 -10.776   2.756  0.00  0.00    -0.151 NA
ATOM     20  H   UNL     1       2.076  -9.293   4.252  0.00  0.00    +0.191 HD
ATOM     21  N   UNL     1       1.763  -9.508   3.360  0.00  0.00    -0.253 N 
BRANCH  18  22
ATOM     22  C   UNL     1       1.065 -11.697   0.551  0.00  0.00    +0.058 A 
ATOM     23  C   UNL     1       1.345 -13.032   0.660  0.00  0.00    +0.019 A 
ATOM     24  C   UNL     1       1.080 -13.854  -0.414  0.00  0.00    +0.008 A 
ATOM     25  C   UNL     1       0.550 -13.317  -1.543  0.00  0.00    +0.046 A 
ATOM     26  S   UNL     1       0.402 -11.593  -1.103  0.00  0.00    -0.093 S 
ENDBRANCH  18  22
ENDBRANCH  15  16
ENDBRANCH   1  15
TORSDOF 5
