REMARK  Name = ZINC13029430
REMARK  8 active torsions:
REMARK  status: ('A' for Active; 'I' for Inactive)
REMARK    1  A    between atoms: C_1  and  C_2
REMARK    2  A    between atoms: C_5  and  C_8
REMARK    3  A    between atoms: C_11  and  C_13
REMARK    4  A    between atoms: C_13  and  C_24
REMARK    5  A    between atoms: C_14  and  C_15
REMARK    6  A    between atoms: C_18  and  O_23
REMARK    7  A    between atoms: C_19  and  O_21
REMARK    8  A    between atoms: O_21  and  C_22
REMARK                            x       y       z     vdW  Elec       q    Type
REMARK                         _______ _______ _______ _____ _____    ______ ____
ROOT
ATOM      1  C   UNL     1       2.367  -2.882   0.063  0.00  0.00    +0.084 C 
ATOM      2  C   UNL     1       2.182  -4.229  -0.041  0.00  0.00    +0.029 C 
ENDROOT
BRANCH   2   3
ATOM      3  C   UNL     1       3.339  -5.121  -0.167  0.00  0.00    -0.020 A 
ATOM      4  C   UNL     1       4.509  -4.670  -0.793  0.00  0.00    +0.012 A 
ATOM      5  C   UNL     1       5.596  -5.509  -0.905  0.00  0.00    +0.050 A 
ATOM      6  C   UNL     1       5.532  -6.805  -0.410  0.00  0.00    +0.158 A 
ATOM      7  C   UNL     1       4.370  -7.263   0.209  0.00  0.00    +0.162 A 
ATOM      8  C   UNL     1       3.277  -6.429   0.332  0.00  0.00    +0.057 A 
BRANCH   7   9
ATOM      9  O   UNL     1       4.313  -8.533   0.692  0.00  0.00    -0.491 OA
ATOM     10  C   UNL     1       3.091  -8.937   1.315  0.00  0.00    +0.277 C 
ENDBRANCH   7   9
BRANCH   6  11
ATOM     11  O   UNL     1       6.606  -7.628  -0.529  0.00  0.00    -0.503 OA
ATOM     12  H   UNL     1       6.613  -8.150  -1.343  0.00  0.00    +0.292 HD
ENDBRANCH   6  11
ENDBRANCH   2   3
BRANCH   1  16
ATOM     13  C   UNL     1       0.031   0.009   0.087  0.00  0.00    +0.079 A 
ATOM     14  C   UNL     1      -1.144  -0.685  -0.046  0.00  0.00    +0.075 A 
ATOM     15  S   UNL     1      -0.532  -2.364  -0.114  0.00  0.00    -0.074 S 
ATOM     16  C   UNL     1       1.206  -1.974   0.039  0.00  0.00    +0.119 A 
ATOM     17  N   UNL     1       1.173  -0.651   0.120  0.00  0.00    -0.238 NA
BRANCH  13  22
ATOM     18  C   UNL     1      -0.015   5.755   0.469  0.00  0.00    +0.044 C 
ATOM     19  C   UNL     1      -0.003   4.251   0.370  0.00  0.00    -0.050 A 
ATOM     20  C   UNL     1       1.199   3.568   0.411  0.00  0.00    +0.004 A 
ATOM     21  C   UNL     1       1.216   2.191   0.320  0.00  0.00    +0.010 A 
ATOM     22  C   UNL     1       0.019   1.489   0.185  0.00  0.00    +0.001 A 
ATOM     23  C   UNL     1      -1.188   2.183   0.138  0.00  0.00    +0.010 A 
ATOM     24  C   UNL     1      -1.194   3.560   0.236  0.00  0.00    +0.004 A 
ENDBRANCH  13  22
ENDBRANCH   1  16
BRANCH   1  25
ATOM     25  C   UNL     1       3.690  -2.349   0.195  0.00  0.00    +0.102 C 
ATOM     26  N   UNL     1       4.739  -1.926   0.299  0.00  0.00    -0.191 NA
ENDBRANCH   1  25
TORSDOF 6
