REMARK  Name = ZINC12565971
REMARK  11 active torsions:
REMARK  status: ('A' for Active; 'I' for Inactive)
REMARK    1  A    between atoms: C_1  and  N_2
REMARK    2  A    between atoms: N_2  and  C_3
REMARK    3  A    between atoms: N_2  and  C_4
REMARK    4  A    between atoms: C_4  and  C_6
REMARK    5  A    between atoms: C_4  and  C_29
REMARK    6  A    between atoms: C_6  and  N_7
REMARK    7  A    between atoms: N_7  and  C_8
REMARK    8  A    between atoms: C_8  and  C_10
REMARK    9  A    between atoms: C_8  and  C_16
REMARK   10  A    between atoms: N_18  and  C_19
REMARK   11  A    between atoms: C_22  and  N_26
REMARK                            x       y       z     vdW  Elec       q    Type
REMARK                         _______ _______ _______ _____ _____    ______ ____
ROOT
ATOM      1  C   UNL     1      -2.806   1.765  -2.512  0.00  0.00    +0.171 C 
ENDROOT
BRANCH   1   2
ATOM      2  C   UNL     1      -4.229   2.074  -2.123  0.00  0.00    -0.022 A 
ATOM      3  C   UNL     1      -4.493   2.747  -0.946  0.00  0.00    +0.005 A 
ATOM      4  C   UNL     1      -5.798   3.030  -0.590  0.00  0.00    +0.000 A 
ATOM      5  C   UNL     1      -6.839   2.640  -1.411  0.00  0.00    +0.000 A 
ATOM      6  C   UNL     1      -6.575   1.967  -2.589  0.00  0.00    +0.000 A 
ATOM      7  C   UNL     1      -5.269   1.688  -2.947  0.00  0.00    +0.005 A 
ENDBRANCH   1   2
BRANCH   1   8
ATOM      8  C   UNL     1      -2.170   2.994  -3.109  0.00  0.00    +0.239 C 
ATOM      9  O   UNL     1      -1.186   3.479  -2.594  0.00  0.00    -0.273 OA
ATOM     10  N   UNL     1      -2.696   3.553  -4.217  0.00  0.00    -0.283 N 
ATOM     11  H   UNL     1      -3.433   3.120  -4.676  0.00  0.00    +0.155 HD
BRANCH  10  12
ATOM     12  C   UNL     1      -2.179   4.759  -4.705  0.00  0.00    +0.048 A 
ATOM     13  C   UNL     1      -1.512   5.626  -3.850  0.00  0.00    +0.026 A 
ATOM     14  C   UNL     1      -1.003   6.815  -4.335  0.00  0.00    +0.034 A 
ATOM     15  C   UNL     1      -1.157   7.143  -5.670  0.00  0.00    +0.127 A 
ATOM     16  C   UNL     1      -1.821   6.282  -6.524  0.00  0.00    +0.049 A 
ATOM     17  C   UNL     1      -2.327   5.088  -6.047  0.00  0.00    +0.041 A 
ATOM     18 BR   UNL     1      -3.228   3.907  -7.217  0.00  0.00    -0.048 Br
BRANCH  15  19
ATOM     19  N   UNL     1      -0.611   8.418  -6.185  0.00  0.00    +0.056 N 
ATOM     20  O   UNL     1      -0.030   9.173  -5.439  0.00  0.00    -0.126 OA
ATOM     21  O   UNL     1      -0.745   8.706  -7.351  0.00  0.00    -0.126 OA
ENDBRANCH  15  19
ENDBRANCH  10  12
ENDBRANCH   1   8
BRANCH   1  22
ATOM     22  N   UNL     1      -2.051   1.354  -1.320  0.00  0.00    -0.303 NA
ATOM     23  H   UNL     1      -2.317   1.903  -0.517  0.00  0.00    +0.123 HD
BRANCH  22  24
ATOM     24  C   UNL     1      -2.224  -0.081  -1.057  0.00  0.00    +0.071 C 
BRANCH  24  25
ATOM     25  C   UNL     1      -1.425  -0.471   0.189  0.00  0.00    -0.024 C 
BRANCH  25  26
ATOM     26  C   UNL     1      -1.656  -1.927   0.498  0.00  0.00    -0.060 A 
ATOM     27  C   UNL     1      -0.966  -2.900  -0.201  0.00  0.00    +0.002 A 
ATOM     28  C   UNL     1      -1.177  -4.237   0.083  0.00  0.00    +0.000 A 
ATOM     29  C   UNL     1      -2.079  -4.600   1.066  0.00  0.00    +0.000 A 
ATOM     30  C   UNL     1      -2.769  -3.627   1.765  0.00  0.00    +0.000 A 
ATOM     31  C   UNL     1      -2.554  -2.291   1.484  0.00  0.00    +0.002 A 
ENDBRANCH  25  26
BRANCH  25  33
ATOM     32  C   UNL     1       0.243   1.191  -0.267  0.00  0.00    -0.096 C 
ATOM     33  N   UNL     1       0.005  -0.243  -0.056  0.00  0.00    +0.381 N 
ATOM     34  C   UNL     1       0.780  -0.702   1.105  0.00  0.00    -0.096 C 
ATOM     35  H   UNL     1       0.292  -0.755  -0.876  0.00  0.00    -0.082 HD
ENDBRANCH  25  33
ENDBRANCH  24  25
ENDBRANCH  22  24
ENDBRANCH   1  22
TORSDOF 9
