REMARK  Name = ZINC29126774
REMARK  6 active torsions:
REMARK  status: ('A' for Active; 'I' for Inactive)
REMARK    1  A    between atoms: C_1  and  N_2
REMARK    2  A    between atoms: N_2  and  C_3
REMARK    3  A    between atoms: N_2  and  C_4
REMARK    4  A    between atoms: C_4  and  C_7
REMARK    5  A    between atoms: C_7  and  O_8
REMARK    6  A    between atoms: O_8  and  C_9
REMARK                            x       y       z     vdW  Elec       q    Type
REMARK                         _______ _______ _______ _____ _____    ______ ____
ROOT
ATOM      1  C   UNL     1      -1.059  -2.128   0.020  0.00  0.00    +0.217 C 
ENDROOT
BRANCH   1   2
ATOM      2  C   UNL     1      -2.456  -2.751   0.009  0.00  0.00    -0.032 C 
ATOM      3  C   UNL     1      -2.856  -3.611   1.211  0.00  0.00    -0.010 C 
ATOM      4  C   UNL     1      -2.551  -4.271  -0.135  0.00  0.00    -0.010 C 
BRANCH   2   6
ATOM      5  C   UNL     1      -3.257  -1.795  -2.066  0.00  0.00    -0.096 C 
ATOM      6  N   UNL     1      -3.506  -1.943  -0.625  0.00  0.00    +0.382 N 
ATOM      7  C   UNL     1      -4.835  -2.517  -0.377  0.00  0.00    -0.096 C 
ATOM      8  H   UNL     1      -3.481  -0.940  -0.173  0.00  0.00    -0.082 HD
ENDBRANCH   2   6
ENDBRANCH   1   2
BRANCH   1   9
ATOM      9  O   UNL     1      -1.173  -0.704   0.056  0.00  0.00    -0.492 OA
BRANCH   9  10
ATOM     10  C   UNL     1      -0.015   0.007   0.070  0.00  0.00    +0.139 A 
ATOM     11  C   UNL     1      -0.042   1.398   0.105  0.00  0.00    +0.050 A 
ATOM     12  C   UNL     1       1.164   2.080   0.117  0.00  0.00    +0.039 A 
ATOM     13  C   UNL     1       2.346   1.362   0.094  0.00  0.00    +0.106 A 
ATOM     14  N   UNL     1       2.336   0.043   0.061  0.00  0.00    -0.245 NA
ATOM     15  C   UNL     1       1.210  -0.642   0.048  0.00  0.00    +0.157 A 
ATOM     16 BR   UNL     1       3.998   2.282   0.109  0.00  0.00    -0.029 Br
ENDBRANCH   9  10
ENDBRANCH   1   9
TORSDOF 4
