REMARK  Name = ZINC19899426
REMARK  4 active torsions:
REMARK  status: ('A' for Active; 'I' for Inactive)
REMARK    1  A    between atoms: C_3  and  N_9
REMARK    2  A    between atoms: C_19  and  C_21
REMARK    3  A    between atoms: C_21  and  S_22
REMARK    4  A    between atoms: S_22  and  C_23
REMARK                            x       y       z     vdW  Elec       q    Type
REMARK                         _______ _______ _______ _____ _____    ______ ____
ROOT
ATOM      1  N   UNL     1       2.353   4.178  -0.035  0.00  0.00    -0.326 N 
ATOM      2  C   UNL     1       3.549   3.504   0.065  0.00  0.00    +0.180 C 
ATOM      3  N   UNL     1       3.566   2.202   0.049  0.00  0.00    -0.371 N 
ATOM      4  N   UNL     1       4.730   4.208   0.183  0.00  0.00    -0.298 N 
ATOM      5  C   UNL     1       4.725   5.579   0.088  0.00  0.00    +0.211 A 
ATOM      6  N   UNL     1       5.906   6.252   0.075  0.00  0.00    -0.293 N 
ATOM      7  H   UNL     1       6.744   5.766   0.132  0.00  0.00    +0.172 HD
ATOM      8  C   UNL     1       5.910   7.599  -0.018  0.00  0.00    +0.253 A 
ATOM      9  O   UNL     1       6.961   8.219  -0.032  0.00  0.00    -0.268 OA
ATOM     10  C   UNL     1       4.678   8.274  -0.099  0.00  0.00    +0.094 A 
ATOM     11  C   UNL     1       3.525   7.545  -0.081  0.00  0.00    +0.060 A 
ATOM     12  N   UNL     1       3.575   6.218   0.007  0.00  0.00    -0.218 NA
ATOM     13  H   UNL     1       2.346   5.145  -0.112  0.00  0.00    +0.169 HD
ATOM     14  H   UNL     1       4.398   1.726   0.193  0.00  0.00    +0.159 HD
ATOM     15  H   UNL     1       5.563   3.736   0.332  0.00  0.00    +0.172 HD
ATOM     16  H   UNL     1       2.746   1.708  -0.108  0.00  0.00    +0.159 HD
ENDROOT
BRANCH   1  19
ATOM     17  C   UNL     1      -0.850   2.749  -1.143  0.00  0.00    +0.022 A 
ATOM     18  C   UNL     1       0.340   3.451  -1.155  0.00  0.00    +0.028 A 
ATOM     19  C   UNL     1       1.147   3.468  -0.025  0.00  0.00    +0.060 A 
ATOM     20  C   UNL     1       0.754   2.778   1.116  0.00  0.00    +0.066 A 
ATOM     21  C   UNL     1      -0.437   2.078   1.122  0.00  0.00    +0.042 A 
ATOM     22  C   UNL     1      -1.239   2.063  -0.006  0.00  0.00    +0.042 A 
ATOM     23 CL   UNL     1      -2.735   1.183   0.005  0.00  0.00    -0.083 Cl
ATOM     24 CL   UNL     1       1.759   2.795   2.531  0.00  0.00    -0.081 Cl
ENDBRANCH   1  19
BRANCH  11  25
ATOM     25  C   UNL     1       2.192   8.243  -0.167  0.00  0.00    +0.132 C 
BRANCH  25  26
ATOM     26  S   UNL     1       1.498   8.019  -1.828  0.00  0.00    -0.091 S 
BRANCH  26  27
ATOM     27  C   UNL     1      -0.038   8.881  -1.768  0.00  0.00    +0.160 A 
ATOM     28  N   UNL     1      -0.582   9.550  -0.770  0.00  0.00    -0.133 NA
ATOM     29  N   UNL     1      -1.806  10.156  -0.940  0.00  0.00    -0.125 NA
ATOM     30  C   UNL     1      -2.428  10.066  -2.099  0.00  0.00    +0.180 A 
ATOM     31  S   UNL     1      -1.269   9.090  -3.045  0.00  0.00    -0.025 S 
ATOM     32  N   UNL     1      -3.654  10.595  -2.483  0.00  0.00    -0.336 N 
ATOM     33  H   UNL     1      -4.177  11.116  -1.854  0.00  0.00    +0.144 HD
ATOM     34  H   UNL     1      -3.987  10.444  -3.382  0.00  0.00    +0.144 HD
ENDBRANCH  26  27
ENDBRANCH  25  26
ENDBRANCH  11  25
TORSDOF 4
