REMARK  Name = ZINC07750193
REMARK  6 active torsions:
REMARK  status: ('A' for Active; 'I' for Inactive)
REMARK    1  A    between atoms: C_1  and  C_2
REMARK    2  A    between atoms: C_5  and  N_9
REMARK    3  A    between atoms: C_6  and  C_8
REMARK    4  A    between atoms: C_10  and  C_12
REMARK    5  A    between atoms: C_12  and  C_23
REMARK    6  A    between atoms: C_13  and  C_14
REMARK                            x       y       z     vdW  Elec       q    Type
REMARK                         _______ _______ _______ _____ _____    ______ ____
ROOT
ATOM      1  C   UNL     1      -3.664   2.107  -0.181  0.00  0.00    +0.116 C 
ATOM      2  C   UNL     1      -4.860   1.400  -0.285  0.00  0.00    +0.053 C 
ENDROOT
BRANCH   2   3
ATOM      3  C   UNL     1      -6.072   2.088  -0.380  0.00  0.00    +0.087 A 
ATOM      4  C   UNL     1      -6.514   3.112   0.452  0.00  0.00    +0.156 A 
ATOM      5  N   UNL     1      -7.708   3.498   0.025  0.00  0.00    -0.209 NA
ATOM      6  C   UNL     1      -8.058   2.782  -1.017  0.00  0.00    +0.179 A 
ATOM      7  N   UNL     1      -7.087   1.875  -1.335  0.00  0.00    -0.292 N 
ATOM      8  C   UNL     1      -7.322   1.055  -2.412  0.00  0.00    +0.101 A 
ATOM      9  C   UNL     1      -8.456   1.151  -3.108  0.00  0.00    +0.067 A 
ATOM     10  S   UNL     1      -9.303   2.468  -2.247  0.00  0.00    -0.058 S 
ATOM     11 CL   UNL     1      -5.652   3.771   1.807  0.00  0.00    -0.060 Cl
ENDBRANCH   2   3
BRANCH   1  13
ATOM     12  N   UNL     1      -1.236   2.069   0.019  0.00  0.00    -0.281 N 
ATOM     13  C   UNL     1      -2.393   1.385  -0.081  0.00  0.00    +0.259 C 
ATOM     14  O   UNL     1      -2.382   0.168  -0.088  0.00  0.00    -0.269 OA
ATOM     15  H   UNL     1      -1.249   3.036   0.090  0.00  0.00    +0.155 HD
BRANCH  12  20
ATOM     16  C   UNL     1       3.704  -0.717   0.008  0.00  0.00    +0.044 C 
ATOM     17  C   UNL     1       2.392   0.024   0.012  0.00  0.00    -0.050 A 
ATOM     18  C   UNL     1       1.282  -0.542   0.613  0.00  0.00    +0.005 A 
ATOM     19  C   UNL     1       0.078   0.134   0.619  0.00  0.00    +0.024 A 
ATOM     20  C   UNL     1      -0.017   1.384   0.020  0.00  0.00    +0.037 A 
ATOM     21  C   UNL     1       1.099   1.950  -0.582  0.00  0.00    -0.029 A 
ATOM     22  C   UNL     1       2.300   1.268  -0.585  0.00  0.00    +0.008 A 
ATOM     23  C   UNL     1       1.000   3.305  -1.232  0.00  0.00    +0.045 C 
ENDBRANCH  12  20
ENDBRANCH   1  13
BRANCH   1  24
ATOM     24  C   UNL     1      -3.677   3.539  -0.173  0.00  0.00    +0.104 C 
ATOM     25  N   UNL     1      -3.687   4.675  -0.167  0.00  0.00    -0.191 NA
ENDBRANCH   1  24
TORSDOF 4
