REMARK  Name = ZINC35374849
REMARK  11 active torsions:
REMARK  status: ('A' for Active; 'I' for Inactive)
REMARK    1  A    between atoms: C_1  and  C_2
REMARK    2  A    between atoms: C_2  and  C_3
REMARK    3  A    between atoms: C_3  and  C_4
REMARK    4  A    between atoms: C_4  and  C_5
REMARK    5  A    between atoms: C_8  and  C_11
REMARK    6  A    between atoms: C_20  and  C_24
REMARK    7  A    between atoms: N_26  and  C_27
REMARK    8  A    between atoms: C_27  and  C_28
REMARK    9  A    between atoms: C_28  and  C_30
REMARK   10  A    between atoms: C_28  and  C_31
REMARK   11  A    between atoms: C_31  and  C_32
REMARK                            x       y       z     vdW  Elec       q    Type
REMARK                         _______ _______ _______ _____ _____    ______ ____
ROOT
ATOM      1  C   UNL     1       3.432  -3.884  -6.000  0.00  0.00    +0.247 C 
ATOM      2  O   UNL     1       2.885  -3.391  -5.033  0.00  0.00    -0.270 OA
ATOM      3  N   UNL     1       4.744  -4.191  -5.948  0.00  0.00    -0.298 N 
ATOM      4  C   UNL     1       5.493  -4.061  -4.690  0.00  0.00    +0.107 C 
ATOM      5  C   UNL     1       6.716  -3.171  -4.936  0.00  0.00    +0.017 C 
ATOM      6  C   UNL     1       7.514  -3.718  -6.111  0.00  0.00    -0.016 C 
ATOM      7  C   UNL     1       6.674  -3.767  -7.380  0.00  0.00    +0.017 C 
ATOM      8  C   UNL     1       5.448  -4.666  -7.146  0.00  0.00    +0.107 C 
ATOM      9  N   UNL     1       8.083  -5.039  -5.799  0.00  0.00    +0.397 N 
ATOM     10  C   UNL     1       9.543  -5.089  -5.674  0.00  0.00    +0.028 C 
ATOM     11  C   UNL     1      10.215  -4.038  -6.606  0.00  0.00    +0.061 C 
ATOM     12  S   UNL     1       8.994  -2.664  -6.394  0.00  0.00    -0.174 S 
ATOM     13  H   UNL     1       7.681  -5.358  -4.931  0.00  0.00    -0.083 HD
ATOM     14  H   UNL     1       7.807  -5.681  -6.527  0.00  0.00    -0.083 HD
ENDROOT
BRANCH   1  18
ATOM     15  C   UNL     1       1.213  -4.638  -9.542  0.00  0.00    -0.047 A 
ATOM     16  C   UNL     1       2.126  -5.574  -9.089  0.00  0.00    +0.004 A 
ATOM     17  C   UNL     1       2.850  -5.335  -7.939  0.00  0.00    +0.013 A 
ATOM     18  C   UNL     1       2.660  -4.146  -7.233  0.00  0.00    +0.037 A 
ATOM     19  C   UNL     1       1.737  -3.207  -7.695  0.00  0.00    +0.013 A 
ATOM     20  C   UNL     1       1.024  -3.455  -8.849  0.00  0.00    +0.004 A 
BRANCH  15  21
ATOM     21  C   UNL     1       0.425  -4.906 -10.799  0.00  0.00    +0.035 C 
BRANCH  21  22
ATOM     22  C   UNL     1       1.196  -4.371 -12.007  0.00  0.00    +0.004 C 
BRANCH  22  24
ATOM     23  C   UNL     1       1.168  -4.109 -14.492  0.00  0.00    +0.004 C 
ATOM     24  C   UNL     1       0.397  -4.643 -13.283  0.00  0.00    -0.003 C 
ENDBRANCH  22  24
ENDBRANCH  21  22
ENDBRANCH  15  21
ENDBRANCH   1  18
BRANCH  10  25
ATOM     25  C   UNL     1      10.027  -6.465  -6.052  0.00  0.00    +0.200 C 
ATOM     26  O   UNL     1       9.231  -7.316  -6.392  0.00  0.00    -0.278 OA
ATOM     27  N   UNL     1      11.343  -6.752  -6.013  0.00  0.00    -0.316 N 
ATOM     28  H   UNL     1      11.979  -6.072  -5.742  0.00  0.00    +0.149 HD
BRANCH  27  29
ATOM     29  C   UNL     1      11.813  -8.090  -6.381  0.00  0.00    +0.107 C 
BRANCH  29  30
ATOM     30  C   UNL     1      13.336  -8.149  -6.252  0.00  0.00    +0.003 C 
ATOM     31  C   UNL     1      13.972  -7.202  -7.272  0.00  0.00    +0.009 C 
BRANCH  30  32
ATOM     32  C   UNL     1      13.816  -9.578  -6.515  0.00  0.00    +0.001 C 
ATOM     33  C   UNL     1      15.322  -9.664  -6.264  0.00  0.00    +0.004 C 
ENDBRANCH  30  32
ENDBRANCH  29  30
ENDBRANCH  27  29
ENDBRANCH  10  25
TORSDOF 8
