REMARK  Name = ZINC04696662
REMARK  6 active torsions:
REMARK  status: ('A' for Active; 'I' for Inactive)
REMARK    1  A    between atoms: C_1  and  C_2
REMARK    2  A    between atoms: C_6  and  C_9
REMARK    3  A    between atoms: C_10  and  C_12
REMARK    4  A    between atoms: C_10  and  N_16
REMARK    5  A    between atoms: C_10  and  N_34
REMARK    6  A    between atoms: C_17  and  C_19
REMARK                            x       y       z     vdW  Elec       q    Type
REMARK                         _______ _______ _______ _____ _____    ______ ____
ROOT
ATOM      1  C   UNL     1      -1.290   1.681   0.017  0.00  0.00    +0.071 C 
ENDROOT
BRANCH   1   9
ATOM      2  C   UNL     1      -4.131   0.736  -3.000  0.00  0.00    +0.036 C 
ATOM      3  C   UNL     1      -3.671   2.188  -2.857  0.00  0.00    +0.099 C 
ATOM      4  C   UNL     1      -3.065   2.398  -1.467  0.00  0.00    -0.044 C 
ATOM      5  C   UNL     1      -0.879   1.875  -2.362  0.00  0.00    -0.044 C 
ATOM      6  C   UNL     1      -1.507   1.670  -3.743  0.00  0.00    +0.099 C 
ATOM      7  O   UNL     1      -2.683   2.476  -3.850  0.00  0.00    -0.378 OA
ATOM      8  C   UNL     1      -0.506   2.080  -4.825  0.00  0.00    +0.036 C 
ATOM      9  N   UNL     1      -1.879   1.527  -1.331  0.00  0.00    +0.398 N 
ATOM     10  H   UNL     1      -2.166   0.549  -1.459  0.00  0.00    -0.079 HD
ENDBRANCH   1   9
BRANCH   1  11
ATOM     11  N   UNL     1       0.045   1.077   0.032  0.00  0.00    -0.325 N 
ATOM     12  C   UNL     1       1.140   1.863   0.035  0.00  0.00    +0.209 C 
ATOM     13  O   UNL     1       1.020   3.070   0.030  0.00  0.00    -0.276 OA
ATOM     14  C   UNL     1       2.513   1.243   0.043  0.00  0.00    +0.109 C 
ATOM     15  H   UNL     1       0.141   0.112   0.036  0.00  0.00    +0.147 HD
ENDBRANCH   1  11
BRANCH   1  16
ATOM     16  C   UNL     1      -2.184   0.965   1.031  0.00  0.00    +0.194 C 
ATOM     17 CL   UNL     1      -1.359   0.918   2.633  0.00  0.00    -0.084 Cl
ATOM     18 CL   UNL     1      -3.747   1.851   1.185  0.00  0.00    -0.084 Cl
ATOM     19 CL   UNL     1      -2.501  -0.719   0.469  0.00  0.00    -0.084 Cl
ENDBRANCH   1  16
TORSDOF 3
