REMARK  Name = ZINC23682906
REMARK  12 active torsions:
REMARK  status: ('A' for Active; 'I' for Inactive)
REMARK    1  A    between atoms: C_1  and  C_2
REMARK    2  A    between atoms: C_2  and  C_3
REMARK    3  A    between atoms: C_2  and  C_4
REMARK    4  A    between atoms: C_7  and  C_10
REMARK    5  A    between atoms: C_12  and  C_15
REMARK    6  A    between atoms: C_15  and  C_16
REMARK    7  A    between atoms: C_16  and  C_17
REMARK    8  A    between atoms: N_19  and  C_20
REMARK    9  A    between atoms: C_20  and  C_21
REMARK   10  A    between atoms: C_21  and  C_22
REMARK   11  A    between atoms: C_25  and  S_28
REMARK   12  A    between atoms: S_28  and  N_31
REMARK                            x       y       z     vdW  Elec       q    Type
REMARK                         _______ _______ _______ _____ _____    ______ ____
ROOT
ATOM      1  C   UNL     1      -5.918   6.933   7.423  0.00  0.00    +0.213 C 
ATOM      2  O   UNL     1      -5.193   7.417   8.267  0.00  0.00    -0.276 OA
ATOM      3  N   UNL     1      -7.144   7.450   7.212  0.00  0.00    -0.315 N 
ATOM      4  H   UNL     1      -7.802   7.011   6.447  0.00  0.00    +0.149 HD
ENDROOT
BRANCH   1   5
ATOM      5  C   UNL     1      -5.448   5.753   6.613  0.00  0.00    +0.105 C 
BRANCH   5   6
ATOM      6  C   UNL     1      -4.033   5.366   7.048  0.00  0.00    +0.108 C 
BRANCH   6   9
ATOM      7  C   UNL     1      -2.708   2.943   4.747  0.00  0.00    +0.202 A 
ATOM      8  N   UNL     1      -2.914   4.232   5.100  0.00  0.00    -0.191 NA
ATOM      9  C   UNL     1      -3.562   4.186   6.237  0.00  0.00    +0.228 A 
ATOM     10  O   UNL     1      -3.723   2.896   6.546  0.00  0.00    -0.338 OA
ATOM     11  N   UNL     1      -3.230   2.198   5.686  0.00  0.00    -0.056 NA
BRANCH   7  15
ATOM     12  C   UNL     1      -0.718   1.572   1.248  0.00  0.00    -0.045 A 
ATOM     13  C   UNL     1      -0.854   2.929   1.476  0.00  0.00    +0.004 A 
ATOM     14  C   UNL     1      -1.504   3.380   2.607  0.00  0.00    +0.012 A 
ATOM     15  C   UNL     1      -2.013   2.465   3.526  0.00  0.00    +0.022 A 
ATOM     16  C   UNL     1      -1.868   1.098   3.294  0.00  0.00    +0.012 A 
ATOM     17  C   UNL     1      -1.222   0.659   2.157  0.00  0.00    +0.004 A 
BRANCH  12  19
ATOM     18  C   UNL     1       1.423   1.615  -0.003  0.00  0.00    +0.012 C 
ATOM     19  C   UNL     1      -0.013   1.086   0.008  0.00  0.00    +0.013 C 
ATOM     20  C   UNL     1      -0.753   1.593  -1.232  0.00  0.00    +0.012 C 
ENDBRANCH  12  19
ENDBRANCH   7  15
ENDBRANCH   6   9
ENDBRANCH   5   6
ENDBRANCH   1   5
BRANCH   3  21
ATOM     21  C   UNL     1      -7.602   8.597   8.000  0.00  0.00    +0.109 C 
BRANCH  21  22
ATOM     22  C   UNL     1      -9.017   8.983   7.565  0.00  0.00    +0.054 C 
BRANCH  22  23
ATOM     23  C   UNL     1      -9.487  10.164   8.375  0.00  0.00    -0.046 A 
ATOM     24  C   UNL     1     -10.163   9.960   9.564  0.00  0.00    +0.005 A 
ATOM     25  C   UNL     1     -10.591  11.043  10.310  0.00  0.00    +0.029 A 
ATOM     26  C   UNL     1     -10.350  12.328   9.863  0.00  0.00    +0.105 A 
ATOM     27  C   UNL     1      -9.678  12.532   8.672  0.00  0.00    +0.029 A 
ATOM     28  C   UNL     1      -9.247  11.449   7.928  0.00  0.00    +0.005 A 
BRANCH  26  29
ATOM     29  S   UNL     1     -10.899  13.708  10.811  0.00  0.00    +0.056 S 
ATOM     30  O   UNL     1     -11.021  13.256  12.153  0.00  0.00    -0.153 OA
ATOM     31  O   UNL     1     -10.071  14.805  10.449  0.00  0.00    -0.153 OA
BRANCH  29  32
ATOM     32  N   UNL     1     -12.428  14.079  10.296  0.00  0.00    -0.204 NA
ATOM     33  H   UNL     1     -12.809  14.939  10.867  0.00  0.00    +0.144 HD
ATOM     34  H   UNL     1     -13.089  13.213  10.454  0.00  0.00    +0.144 HD
ENDBRANCH  29  32
ENDBRANCH  26  29
ENDBRANCH  22  23
ENDBRANCH  21  22
ENDBRANCH   3  21
TORSDOF 10
