REMARK  Name = ZINC33292174
REMARK  9 active torsions:
REMARK  status: ('A' for Active; 'I' for Inactive)
REMARK    1  A    between atoms: N_9  and  C_27
REMARK    2  A    between atoms: C_12  and  S_15
REMARK    3  A    between atoms: S_15  and  C_16
REMARK    4  A    between atoms: C_16  and  C_17
REMARK    5  A    between atoms: N_19  and  C_20
REMARK    6  A    between atoms: C_20  and  C_21
REMARK    7  A    between atoms: C_27  and  C_28
REMARK    8  A    between atoms: C_28  and  C_29
REMARK    9  A    between atoms: N_31  and  C_32
REMARK                            x       y       z     vdW  Elec       q    Type
REMARK                         _______ _______ _______ _____ _____    ______ ____
ROOT
ATOM      1  C   UNL     1      11.910   4.250  -1.388  0.00  0.00    +0.001 A 
ATOM      2  C   UNL     1      12.739   3.218  -0.976  0.00  0.00    +0.002 A 
ATOM      3  C   UNL     1      12.254   2.204  -0.175  0.00  0.00    +0.027 A 
ATOM      4  C   UNL     1      10.925   2.215   0.223  0.00  0.00    +0.064 A 
ATOM      5  C   UNL     1      10.085   3.259  -0.193  0.00  0.00    +0.064 A 
ATOM      6  C   UNL     1      10.587   4.277  -1.001  0.00  0.00    +0.015 A 
ATOM      7  C   UNL     1       8.676   3.251   0.242  0.00  0.00    +0.263 A 
ATOM      8  O   UNL     1       7.919   4.140  -0.099  0.00  0.00    -0.267 OA
ATOM      9  N   UNL     1       8.242   2.242   1.023  0.00  0.00    -0.276 N 
ATOM     10  C   UNL     1       9.099   1.227   1.422  0.00  0.00    +0.240 A 
ATOM     11  N   UNL     1      10.410   1.203   1.031  0.00  0.00    -0.256 N 
ATOM     12  C   UNL     1      10.993   0.089   1.570  0.00  0.00    +0.198 A 
ATOM     13  N   UNL     1      10.081  -0.552   2.260  0.00  0.00    -0.120 NA
ATOM     14  N   UNL     1       8.882   0.164   2.164  0.00  0.00    -0.109 NA
ENDROOT
BRANCH  12  15
ATOM     15  S   UNL     1      12.675  -0.399   1.372  0.00  0.00    -0.076 S 
BRANCH  15  16
ATOM     16  C   UNL     1      12.800  -1.938   2.323  0.00  0.00    +0.173 C 
BRANCH  16  17
ATOM     17  C   UNL     1      14.208  -2.469   2.236  0.00  0.00    +0.223 C 
ATOM     18  O   UNL     1      15.044  -1.868   1.596  0.00  0.00    -0.275 OA
ATOM     19  N   UNL     1      14.538  -3.611   2.870  0.00  0.00    -0.312 N 
ATOM     20  H   UNL     1      13.779  -4.157   3.451  0.00  0.00    +0.149 HD
BRANCH  19  21
ATOM     21  C   UNL     1      15.906  -4.127   2.786  0.00  0.00    +0.135 C 
BRANCH  21  22
ATOM     22  C   UNL     1      16.012  -5.426   3.588  0.00  0.00    +0.135 C 
ATOM     23  C   UNL     1      17.449  -5.977   3.506  0.00  0.00    +0.035 C 
ATOM     24  C   UNL     1      17.914  -6.047   4.981  0.00  0.00    +0.031 C 
ATOM     25  C   UNL     1      16.566  -6.060   5.746  0.00  0.00    +0.160 C 
ATOM     26  O   UNL     1      15.733  -5.168   4.974  0.00  0.00    -0.375 OA
ENDBRANCH  21  22
ENDBRANCH  19  21
ENDBRANCH  16  17
ENDBRANCH  15  16
ENDBRANCH  12  15
BRANCH   9  27
ATOM     27  C   UNL     1       6.845   2.220   1.464  0.00  0.00    +0.137 C 
BRANCH  27  28
ATOM     28  C   UNL     1       6.000   1.457   0.442  0.00  0.00    +0.117 C 
BRANCH  28  29
ATOM     29  C   UNL     1       4.563   1.435   0.895  0.00  0.00    +0.215 C 
ATOM     30  O   UNL     1       4.245   1.976   1.933  0.00  0.00    -0.276 OA
ATOM     31  N   UNL     1       3.630   0.814   0.146  0.00  0.00    -0.312 N 
ATOM     32  H   UNL     1       3.917   0.323  -0.795  0.00  0.00    +0.149 HD
BRANCH  31  33
ATOM     33  C   UNL     1       2.232   0.792   0.586  0.00  0.00    +0.073 C 
ATOM     34  C   UNL     1       1.453   1.995  -0.001  0.00  0.00    +0.022 C 
ATOM     35  C   UNL     1      -0.019   1.534   0.011  0.00  0.00    +0.002 C 
ATOM     36  C   UNL     1       0.002  -0.004   0.002  0.00  0.00    +0.002 C 
ATOM     37  C   UNL     1       1.486  -0.425  -0.014  0.00  0.00    +0.022 C 
ENDBRANCH  31  33
ENDBRANCH  28  29
ENDBRANCH  27  28
ENDBRANCH   9  27
TORSDOF 9
