REMARK  Name = ZINC10058971
REMARK  12 active torsions:
REMARK  status: ('A' for Active; 'I' for Inactive)
REMARK    1  A    between atoms: C_1  and  C_2
REMARK    2  A    between atoms: C_2  and  C_3
REMARK    3  A    between atoms: C_2  and  C_4
REMARK    4  A    between atoms: C_2  and  C_5
REMARK    5  A    between atoms: C_14  and  O_38
REMARK    6  A    between atoms: C_16  and  C_19
REMARK    7  A    between atoms: C_22  and  O_25
REMARK    8  A    between atoms: O_25  and  C_26
REMARK    9  A    between atoms: C_26  and  C_28
REMARK   10  A    between atoms: C_29  and  C_30
REMARK   11  A    between atoms: C_33  and  O_36
REMARK   12  A    between atoms: O_36  and  C_37
REMARK                            x       y       z     vdW  Elec       q    Type
REMARK                         _______ _______ _______ _____ _____    ______ ____
ROOT
ATOM      1  C   UNL     1      -7.190   4.851  -7.088  0.00  0.00    -0.000 C 
ATOM      2  C   UNL     1      -8.578   4.484  -6.555  0.00  0.00    +0.009 C 
ATOM      3  C   UNL     1      -8.451   3.830  -5.178  0.00  0.00    +0.037 C 
ATOM      4  C   UNL     1      -7.618   4.735  -4.279  0.00  0.00    -0.023 A 
ATOM      5  C   UNL     1      -6.825   5.697  -4.807  0.00  0.00    -0.004 A 
ATOM      6  S   UNL     1      -6.068   6.482  -3.408  0.00  0.00    -0.078 S 
ATOM      7  C   UNL     1      -6.788   5.558  -2.162  0.00  0.00    +0.080 A 
ATOM      8  C   UNL     1      -7.609   4.641  -2.829  0.00  0.00    +0.068 A 
ATOM      9  C   UNL     1      -8.375   3.679  -1.995  0.00  0.00    +0.220 C 
ATOM     10  N   UNL     1      -8.086   3.613  -0.725  0.00  0.00    -0.223 NA
ATOM     11  C   UNL     1      -6.999   4.340  -0.080  0.00  0.00    +0.224 C 
ATOM     12  N   UNL     1      -6.684   5.592  -0.792  0.00  0.00    -0.313 N 
ATOM     13  C   UNL     1      -6.636   6.018  -6.256  0.00  0.00    +0.046 C 
ATOM     14  H   UNL     1      -6.418   6.396  -0.319  0.00  0.00    +0.149 HD
ENDROOT
BRANCH  11  15
ATOM     15  C   UNL     1      -5.771   3.467  -0.054  0.00  0.00    -0.005 A 
ATOM     16  C   UNL     1      -5.903   2.092   0.010  0.00  0.00    +0.011 A 
ATOM     17  C   UNL     1      -4.779   1.290   0.035  0.00  0.00    +0.047 A 
ATOM     18  C   UNL     1      -3.517   1.865  -0.005  0.00  0.00    +0.132 A 
ATOM     19  C   UNL     1      -3.387   3.245  -0.064  0.00  0.00    +0.047 A 
ATOM     20  C   UNL     1      -4.515   4.042  -0.094  0.00  0.00    +0.011 A 
BRANCH  18  21
ATOM     21  O   UNL     1      -2.409   1.077   0.019  0.00  0.00    -0.423 OA
BRANCH  21  22
ATOM     22  C   UNL     1      -2.062   0.438  -1.117  0.00  0.00    +0.337 C 
ATOM     23  O   UNL     1      -2.781   0.503  -2.096  0.00  0.00    -0.245 OA
BRANCH  22  24
ATOM     24  C   UNL     1      -0.858  -0.310  -1.170  0.00  0.00    +0.092 C 
ATOM     25  C   UNL     1      -0.513  -0.955  -2.305  0.00  0.00    +0.015 C 
BRANCH  25  26
ATOM     26  C   UNL     1       0.731  -1.735  -2.358  0.00  0.00    -0.025 A 
ATOM     27  C   UNL     1       1.563  -1.807  -1.235  0.00  0.00    +0.011 A 
ATOM     28  C   UNL     1       2.725  -2.544  -1.288  0.00  0.00    +0.046 A 
ATOM     29  C   UNL     1       3.078  -3.206  -2.458  0.00  0.00    +0.120 A 
ATOM     30  C   UNL     1       2.258  -3.134  -3.578  0.00  0.00    +0.046 A 
ATOM     31  C   UNL     1       1.091  -2.404  -3.534  0.00  0.00    +0.011 A 
BRANCH  29  32
ATOM     32  O   UNL     1       4.228  -3.926  -2.507  0.00  0.00    -0.495 OA
ATOM     33  C   UNL     1       5.024  -3.959  -1.321  0.00  0.00    +0.277 C 
ENDBRANCH  29  32
ENDBRANCH  25  26
ENDBRANCH  22  24
ENDBRANCH  21  22
ENDBRANCH  18  21
ENDBRANCH  11  15
BRANCH   1  35
ATOM     34  C   UNL     1      -5.912   5.656  -9.078  0.00  0.00    +0.011 C 
ATOM     35  C   UNL     1      -7.298   5.272  -8.555  0.00  0.00    -0.035 C 
ATOM     36  C   UNL     1      -7.850   4.108  -9.380  0.00  0.00    +0.011 C 
ATOM     37  C   UNL     1      -8.239   6.472  -8.673  0.00  0.00    +0.011 C 
ENDBRANCH   1  35
BRANCH   9  38
ATOM     38  O   UNL     1      -9.339   2.898  -2.535  0.00  0.00    -0.492 OA
ATOM     39  H   UNL     1      -9.771   2.311  -1.899  0.00  0.00    +0.294 HD
ENDBRANCH   9  38
TORSDOF 8
