REMARK  Name = ZINC59015975
REMARK  8 active torsions:
REMARK  status: ('A' for Active; 'I' for Inactive)
REMARK    1  A    between atoms: C_3  and  C_7
REMARK    2  A    between atoms: N_8  and  N_9
REMARK    3  A    between atoms: C_12  and  S_15
REMARK    4  A    between atoms: S_15  and  C_16
REMARK    5  A    between atoms: C_16  and  C_17
REMARK    6  A    between atoms: N_19  and  C_20
REMARK    7  A    between atoms: C_20  and  C_21
REMARK    8  A    between atoms: C_21  and  C_22
REMARK                            x       y       z     vdW  Elec       q    Type
REMARK                         _______ _______ _______ _____ _____    ______ ____
ROOT
ATOM      1  N   UNL     1       6.015   1.988  -0.046  0.00  0.00    -0.205 N 
ATOM      2  C   UNL     1       7.185   1.252  -0.061  0.00  0.00    +0.232 A 
ATOM      3  N   UNL     1       7.273  -0.062  -0.074  0.00  0.00    -0.186 NA
ATOM      4  C   UNL     1       8.559  -0.427  -0.087  0.00  0.00    +0.211 A 
ATOM      5  N   UNL     1       9.308   0.650  -0.082  0.00  0.00    -0.144 NA
ATOM      6  N   UNL     1       8.439   1.753  -0.070  0.00  0.00    -0.245 N 
ATOM      7  H   UNL     1       6.052   2.958  -0.041  0.00  0.00    +0.177 HD
ATOM      8  H   UNL     1       8.690   2.690  -0.068  0.00  0.00    +0.192 HD
ENDROOT
BRANCH   1  10
ATOM      9  C   UNL     1       3.678   2.026  -0.023  0.00  0.00    +0.139 C 
ATOM     10  N   UNL     1       4.776   1.335  -0.037  0.00  0.00    -0.187 NA
BRANCH   9  13
ATOM     11  C   UNL     1      -0.017   1.379   0.010  0.00  0.00    +0.020 A 
ATOM     12  C   UNL     1       1.180   2.073   0.002  0.00  0.00    +0.012 A 
ATOM     13  C   UNL     1       2.373   1.339  -0.013  0.00  0.00    +0.013 A 
ATOM     14  C   UNL     1       2.306  -0.057  -0.020  0.00  0.00    +0.120 A 
ATOM     15  N   UNL     1       1.141  -0.670  -0.012  0.00  0.00    -0.263 NA
ATOM     16  C   UNL     1       0.002  -0.004   0.002  0.00  0.00    +0.111 A 
ENDBRANCH   9  13
ENDBRANCH   1  10
BRANCH   4  17
ATOM     17  S   UNL     1       9.152  -2.086  -0.106  0.00  0.00    -0.075 S 
BRANCH  17  18
ATOM     18  C   UNL     1      10.957  -1.906  -0.118  0.00  0.00    +0.173 C 
BRANCH  18  19
ATOM     19  C   UNL     1      11.598  -3.270  -0.136  0.00  0.00    +0.223 C 
ATOM     20  O   UNL     1      10.905  -4.266  -0.140  0.00  0.00    -0.275 OA
ATOM     21  N   UNL     1      12.941  -3.384  -0.146  0.00  0.00    -0.314 N 
ATOM     22  H   UNL     1      13.495  -2.588  -0.143  0.00  0.00    +0.149 HD
BRANCH  21  23
ATOM     23  C   UNL     1      13.563  -4.710  -0.163  0.00  0.00    +0.109 C 
BRANCH  23  24
ATOM     24  C   UNL     1      15.086  -4.559  -0.173  0.00  0.00    +0.054 C 
BRANCH  24  25
ATOM     25  C   UNL     1      15.726  -5.923  -0.190  0.00  0.00    -0.046 A 
ATOM     26  C   UNL     1      16.023  -6.562   0.999  0.00  0.00    +0.005 A 
ATOM     27  C   UNL     1      16.611  -7.813   0.984  0.00  0.00    +0.020 A 
ATOM     28  C   UNL     1      16.901  -8.426  -0.222  0.00  0.00    +0.041 A 
ATOM     29  C   UNL     1      16.603  -7.786  -1.412  0.00  0.00    +0.020 A 
ATOM     30  C   UNL     1      16.011  -6.537  -1.395  0.00  0.00    +0.005 A 
ATOM     31 CL   UNL     1      17.639  -9.997  -0.242  0.00  0.00    -0.084 Cl
ENDBRANCH  24  25
ENDBRANCH  23  24
ENDBRANCH  21  23
ENDBRANCH  18  19
ENDBRANCH  17  18
ENDBRANCH   4  17
TORSDOF 8
