REMARK  Name = ZINC21251760
REMARK  11 active torsions:
REMARK  status: ('A' for Active; 'I' for Inactive)
REMARK    1  A    between atoms: C_1  and  C_2
REMARK    2  A    between atoms: C_2  and  C_3
REMARK    3  A    between atoms: C_2  and  O_4
REMARK    4  A    between atoms: O_4  and  C_5
REMARK    5  A    between atoms: C_8  and  C_13
REMARK    6  A    between atoms: C_10  and  O_11
REMARK    7  A    between atoms: O_11  and  C_12
REMARK    8  A    between atoms: C_18  and  C_24
REMARK    9  A    between atoms: C_29  and  O_30
REMARK   10  A    between atoms: O_30  and  C_31
REMARK   11  A    between atoms: C_31  and  C_32
REMARK                            x       y       z     vdW  Elec       q    Type
REMARK                         _______ _______ _______ _____ _____    ______ ____
ROOT
ATOM      1  C   UNL     1       1.148   3.596   0.009  0.00  0.00    +0.032 C 
ATOM      2  C   UNL     1       1.609   4.123  -1.352  0.00  0.00    +0.059 C 
ATOM      3  C   UNL     1       1.635   5.631  -1.328  0.00  0.00    +0.018 C 
ATOM      4  C   UNL     1       1.893   6.301  -0.185  0.00  0.00    +0.020 C 
ATOM      5  C   UNL     1       1.919   7.811  -0.187  0.00  0.00    +0.066 C 
ATOM      6  C   UNL     1       0.871   8.336  -1.170  0.00  0.00    +0.109 C 
ATOM      7  C   UNL     1       1.011   7.602  -2.478  0.00  0.00    +0.218 C 
ATOM      8  O   UNL     1       0.780   8.177  -3.521  0.00  0.00    -0.275 OA
ATOM      9  N   UNL     1       1.391   6.313  -2.493  0.00  0.00    -0.289 N 
ATOM     10  C   UNL     1       2.138   5.622   1.021  0.00  0.00    +0.162 C 
ATOM     11  O   UNL     1       2.381   6.259   2.026  0.00  0.00    -0.292 OA
ATOM     12  C   UNL     1       2.105   4.119   1.085  0.00  0.00    +0.088 C 
ATOM     13  H   UNL     1       1.505   5.805  -3.462  0.00  0.00    +0.155 HD
ENDROOT
BRANCH   1  17
ATOM     14  C   UNL     1       1.218  -0.680  -0.013  0.00  0.00    +0.162 A 
ATOM     15  C   UNL     1       2.383   0.036  -0.239  0.00  0.00    +0.050 A 
ATOM     16  C   UNL     1       2.357   1.418  -0.231  0.00  0.00    +0.008 A 
ATOM     17  C   UNL     1       1.171   2.089   0.002  0.00  0.00    -0.040 A 
ATOM     18  C   UNL     1       0.005   1.381   0.228  0.00  0.00    +0.053 A 
ATOM     19  C   UNL     1       0.024  -0.005   0.221  0.00  0.00    +0.162 A 
BRANCH  19  20
ATOM     20  O   UNL     1      -1.121  -0.703   0.444  0.00  0.00    -0.491 OA
ATOM     21  C   UNL     1      -2.309   0.056   0.678  0.00  0.00    +0.277 C 
ENDBRANCH  19  20
BRANCH  14  22
ATOM     22  O   UNL     1       1.242  -2.040  -0.021  0.00  0.00    -0.486 OA
BRANCH  22  24
ATOM     23  C   UNL     1       2.465  -4.067   0.464  0.00  0.00    +0.051 C 
ATOM     24  C   UNL     1       2.520  -2.666  -0.148  0.00  0.00    +0.167 C 
ATOM     25  C   UNL     1       2.892  -2.770  -1.629  0.00  0.00    +0.051 C 
ENDBRANCH  22  24
ENDBRANCH  14  22
ENDBRANCH   1  17
BRANCH   5  26
ATOM     26  C   UNL     1       3.285   8.290  -0.606  0.00  0.00    +0.002 A 
ATOM     27  C   UNL     1       3.789   7.945  -1.845  0.00  0.00    +0.008 A 
ATOM     28  C   UNL     1       5.042   8.384  -2.230  0.00  0.00    +0.001 A 
ATOM     29  C   UNL     1       5.795   9.170  -1.376  0.00  0.00    +0.004 A 
ATOM     30  C   UNL     1       5.295   9.518  -0.136  0.00  0.00    +0.046 A 
ATOM     31  C   UNL     1       4.036   9.082   0.251  0.00  0.00    +0.125 A 
BRANCH  31  32
ATOM     32  O   UNL     1       3.541   9.427   1.468  0.00  0.00    -0.487 OA
BRANCH  32  33
ATOM     33  C   UNL     1       4.369  10.244   2.298  0.00  0.00    +0.264 C 
BRANCH  33  34
ATOM     34  C   UNL     1       3.659  10.522   3.598  0.00  0.00    -0.010 A 
ATOM     35  C   UNL     1       2.847  11.635   3.718  0.00  0.00    +0.007 A 
ATOM     36  C   UNL     1       2.193  11.887   4.909  0.00  0.00    +0.000 A 
ATOM     37  C   UNL     1       2.358  11.033   5.983  0.00  0.00    +0.000 A 
ATOM     38  C   UNL     1       3.174   9.923   5.864  0.00  0.00    +0.000 A 
ATOM     39  C   UNL     1       3.824   9.668   4.672  0.00  0.00    +0.007 A 
ENDBRANCH  33  34
ENDBRANCH  32  33
ENDBRANCH  31  32
ENDBRANCH   5  26
TORSDOF 8
