REMARK  Name = ZINC10060994
REMARK  4 active torsions:
REMARK  status: ('A' for Active; 'I' for Inactive)
REMARK    1  A    between atoms: C_5  and  C_6
REMARK    2  A    between atoms: C_6  and  C_7
REMARK    3  A    between atoms: N_9  and  C_10
REMARK    4  A    between atoms: C_11  and  C_20
REMARK                            x       y       z     vdW  Elec       q    Type
REMARK                         _______ _______ _______ _____ _____    ______ ____
ROOT
ATOM      1  C   UNL     1       4.353  -1.688   1.453  0.00  0.00    +0.084 A 
ATOM      2  C   UNL     1       2.999  -1.642   1.746  0.00  0.00    +0.068 A 
ATOM      3  C   UNL     1       2.179  -0.684   1.016  0.00  0.00    -0.023 A 
ATOM      4  C   UNL     1       2.846   0.061   0.110  0.00  0.00    -0.004 A 
ATOM      5  S   UNL     1       4.530  -0.479   0.225  0.00  0.00    -0.077 S 
ATOM      6  C   UNL     1       2.288   1.105  -0.807  0.00  0.00    +0.043 C 
ATOM      7  C   UNL     1       1.406   2.068  -0.000  0.00  0.00    +0.005 C 
ATOM      8  C   UNL     1      -0.019   1.523   0.010  0.00  0.00    +0.001 C 
ATOM      9  C   UNL     1       0.002  -0.004   0.002  0.00  0.00    +0.005 C 
ATOM     10  C   UNL     1       0.683  -0.535   1.259  0.00  0.00    +0.037 C 
ENDROOT
BRANCH   2  11
ATOM     11  C   UNL     1       2.412  -2.527   2.757  0.00  0.00    +0.244 C 
ATOM     12  O   UNL     1       1.982  -3.619   2.434  0.00  0.00    -0.270 OA
ATOM     13  N   UNL     1       2.347  -2.131   4.044  0.00  0.00    -0.325 N 
ATOM     14  H   UNL     1       2.689  -1.260   4.301  0.00  0.00    +0.145 HD
ATOM     15  H   UNL     1       1.959  -2.716   4.713  0.00  0.00    +0.145 HD
ENDBRANCH   2  11
BRANCH   1  18
ATOM     16  C   UNL     1       6.606  -2.403   1.592  0.00  0.00    +0.222 C 
ATOM     17  O   UNL     1       6.903  -1.601   0.732  0.00  0.00    -0.275 OA
ATOM     18  N   UNL     1       5.328  -2.502   2.008  0.00  0.00    -0.279 N 
ATOM     19  H   UNL     1       5.090  -3.144   2.696  0.00  0.00    +0.155 HD
BRANCH  16  20
ATOM     20  C   UNL     1       7.665  -3.289   2.195  0.00  0.00    +0.138 C 
BRANCH  20  25
ATOM     21  C   UNL     1       9.937  -2.082   1.943  0.00  0.00    +0.013 A 
ATOM     22  C   UNL     1      11.098  -1.969   1.202  0.00  0.00    +0.028 A 
ATOM     23  C   UNL     1      11.263  -2.763   0.115  0.00  0.00    +0.078 A 
ATOM     24  S   UNL     1       9.752  -3.712   0.118  0.00  0.00    -0.081 S 
ATOM     25  C   UNL     1       8.998  -2.981   1.562  0.00  0.00    -0.000 A 
ATOM     26 CL   UNL     1      12.601  -2.841  -0.989  0.00  0.00    -0.076 Cl
ENDBRANCH  20  25
ENDBRANCH  16  20
ENDBRANCH   1  18
TORSDOF 4
