REMARK  Name = ZINC64678403
REMARK  7 active torsions:
REMARK  status: ('A' for Active; 'I' for Inactive)
REMARK    1  A    between atoms: C_1  and  C_2
REMARK    2  A    between atoms: C_7  and  C_12
REMARK    3  A    between atoms: C_15  and  C_18
REMARK    4  A    between atoms: C_18  and  C_19
REMARK    5  A    between atoms: C_19  and  N_20
REMARK    6  A    between atoms: N_20  and  C_21
REMARK    7  A    between atoms: C_22  and  C_24
REMARK                            x       y       z     vdW  Elec       q    Type
REMARK                         _______ _______ _______ _____ _____    ______ ____
ROOT
ATOM      1  C   UNL     1      -1.316  -5.232   1.991  0.00  0.00    +0.318 C 
ATOM      2  N   UNL     1      -1.253  -6.539   1.317  0.00  0.00    -0.291 N 
ATOM      3  C   UNL     1      -2.349  -6.614   0.490  0.00  0.00    +0.139 C 
ATOM      4  N   UNL     1      -3.066  -5.552   0.561  0.00  0.00    -0.072 NA
ATOM      5  O   UNL     1      -2.509  -4.621   1.475  0.00  0.00    -0.367 OA
ATOM      6  H   UNL     1      -0.569  -7.218   1.434  0.00  0.00    +0.151 HD
ENDROOT
BRANCH   1  13
ATOM      7  C   UNL     1      -0.291   1.551   0.322  0.00  0.00    +0.044 C 
ATOM      8  C   UNL     1      -0.235   0.045   0.278  0.00  0.00    -0.050 A 
ATOM      9  C   UNL     1      -0.199  -0.600  -0.966  0.00  0.00    +0.005 A 
ATOM     10  C   UNL     1      -0.147  -1.943  -1.089  0.00  0.00    +0.026 A 
ATOM     11  C   UNL     1      -0.130  -2.771   0.067  0.00  0.00    +0.043 A 
ATOM     12  N   UNL     1      -0.084  -4.074   0.208  0.00  0.00    -0.373 N 
ATOM     13  C   UNL     1      -0.088  -4.390   1.641  0.00  0.00    +0.165 C 
ATOM     14  C   UNL     1      -0.144  -3.060   2.359  0.00  0.00    +0.012 C 
ATOM     15  C   UNL     1      -0.168  -2.113   1.393  0.00  0.00    -0.004 A 
ATOM     16  C   UNL     1      -0.216  -0.647   1.439  0.00  0.00    +0.013 A 
ATOM     17  H   UNL     1      -0.053  -4.720  -0.514  0.00  0.00    +0.160 HD
ENDBRANCH   1  13
BRANCH   3  18
ATOM     18  C   UNL     1      -2.668  -7.795  -0.390  0.00  0.00    +0.094 C 
BRANCH  18  19
ATOM     19  C   UNL     1      -3.959  -7.520  -1.164  0.00  0.00    +0.115 C 
BRANCH  19  20
ATOM     20  N   UNL     1      -4.270  -8.668  -2.019  0.00  0.00    -0.300 N 
ATOM     21  C   UNL     1      -5.100  -9.761  -1.505  0.00  0.00    +0.132 C 
ATOM     22  C   UNL     1      -3.792  -8.720  -3.278  0.00  0.00    +0.246 C 
ATOM     23  O   UNL     1      -3.018  -7.868  -3.669  0.00  0.00    -0.270 OA
BRANCH  22  24
ATOM     24  C   UNL     1      -4.209  -9.811  -4.183  0.00  0.00    +0.037 A 
ATOM     25  C   UNL     1      -5.507 -10.320  -4.115  0.00  0.00    +0.014 A 
ATOM     26  C   UNL     1      -5.891 -11.339  -4.962  0.00  0.00    +0.016 A 
ATOM     27  C   UNL     1      -4.991 -11.857  -5.878  0.00  0.00    +0.018 A 
ATOM     28  C   UNL     1      -3.702 -11.356  -5.951  0.00  0.00    +0.016 A 
ATOM     29  C   UNL     1      -3.308 -10.333  -5.113  0.00  0.00    +0.014 A 
ATOM     30 BR   UNL     1      -5.524 -13.254  -7.036  0.00  0.00    -0.050 Br
ENDBRANCH  22  24
ENDBRANCH  19  20
ENDBRANCH  18  19
ENDBRANCH   3  18
TORSDOF 5
