REMARK  Name = ZINC07342804
REMARK  6 active torsions:
REMARK  status: ('A' for Active; 'I' for Inactive)
REMARK    1  A    between atoms: C_1  and  C_2
REMARK    2  A    between atoms: C_2  and  O_3
REMARK    3  A    between atoms: O_3  and  C_4
REMARK    4  A    between atoms: C_13  and  C_15
REMARK    5  A    between atoms: C_20  and  C_26
REMARK    6  A    between atoms: C_21  and  C_25
REMARK                            x       y       z     vdW  Elec       q    Type
REMARK                         _______ _______ _______ _____ _____    ______ ____
ROOT
ATOM      1  C   UNL     1      -1.498  -1.849   0.006  0.00  0.00    +0.165 A 
ATOM      2  C   UNL     1      -0.390  -2.676  -0.014  0.00  0.00    +0.071 A 
ATOM      3  C   UNL     1      -0.538  -4.056  -0.015  0.00  0.00    +0.064 A 
ATOM      4  C   UNL     1      -1.795  -4.620  -0.006  0.00  0.00    +0.070 A 
ATOM      5  C   UNL     1      -2.931  -3.796   0.010  0.00  0.00    +0.042 A 
ATOM      6  C   UNL     1      -2.780  -2.399   0.016  0.00  0.00    +0.182 A 
ATOM      7  O   UNL     1      -3.860  -1.586   0.030  0.00  0.00    -0.418 OA
ATOM      8  C   UNL     1      -5.108  -2.081   0.039  0.00  0.00    +0.348 A 
ATOM      9  O   UNL     1      -6.061  -1.324   0.051  0.00  0.00    -0.244 OA
ATOM     10  C   UNL     1      -5.326  -3.532   0.033  0.00  0.00    +0.102 A 
ATOM     11  C   UNL     1      -4.228  -4.370   0.018  0.00  0.00    +0.031 A 
ATOM     12 CL   UNL     1      -1.973  -6.347  -0.014  0.00  0.00    -0.081 Cl
ATOM     13 CL   UNL     1       0.867  -5.075  -0.034  0.00  0.00    -0.082 Cl
ENDROOT
BRANCH  10  14
ATOM     14  C   UNL     1      -6.693  -4.085   0.042  0.00  0.00    +0.146 A 
ATOM     15  N   UNL     1      -7.844  -3.343   0.057  0.00  0.00    -0.338 N 
ATOM     16  H   UNL     1      -7.907  -2.345   0.063  0.00  0.00    +0.167 HD
ATOM     17  C   UNL     1      -8.903  -4.231   0.061  0.00  0.00    +0.067 A 
ATOM     18  C   UNL     1     -10.283  -4.084   0.074  0.00  0.00    +0.031 A 
ATOM     19  C   UNL     1     -11.090  -5.203   0.074  0.00  0.00    -0.045 A 
ATOM     20  C   UNL     1     -10.531  -6.473   0.062  0.00  0.00    -0.045 A 
ATOM     21  C   UNL     1      -9.175  -6.638   0.050  0.00  0.00    +0.033 A 
ATOM     22  C   UNL     1      -8.337  -5.518   0.049  0.00  0.00    +0.090 A 
ATOM     23  N   UNL     1      -6.991  -5.363   0.032  0.00  0.00    -0.227 NA
ATOM     24  C   UNL     1     -11.430  -7.683   0.064  0.00  0.00    +0.044 C 
ATOM     25  C   UNL     1     -12.588  -5.045   0.089  0.00  0.00    +0.044 C 
ENDBRANCH  10  14
BRANCH   1  26
ATOM     26  O   UNL     1      -1.339  -0.499   0.012  0.00  0.00    -0.488 OA
BRANCH  26  28
ATOM     27  C   UNL     1      -0.019   1.526   0.010  0.00  0.00    +0.048 C 
ATOM     28  C   UNL     1       0.002  -0.004   0.002  0.00  0.00    +0.226 C 
ENDBRANCH  26  28
ENDBRANCH   1  26
TORSDOF 3
