REMARK  Name = ZINC08918080
REMARK  14 active torsions:
REMARK  status: ('A' for Active; 'I' for Inactive)
REMARK    1  A    between atoms: C_1  and  C_2
REMARK    2  A    between atoms: C_6  and  C_12
REMARK    3  A    between atoms: C_7  and  C_11
REMARK    4  A    between atoms: C_13  and  O_15
REMARK    5  A    between atoms: O_15  and  C_16
REMARK    6  A    between atoms: C_16  and  C_18
REMARK    7  A    between atoms: C_16  and  C_19
REMARK    8  A    between atoms: N_21  and  C_22
REMARK    9  A    between atoms: C_22  and  C_23
REMARK   10  A    between atoms: C_23  and  C_24
REMARK   11  A    between atoms: C_24  and  C_25
REMARK   12  A    between atoms: C_25  and  C_26
REMARK   13  A    between atoms: C_26  and  C_27
REMARK   14  A    between atoms: C_32  and  O_40
REMARK                            x       y       z     vdW  Elec       q    Type
REMARK                         _______ _______ _______ _____ _____    ______ ____
ROOT
ATOM      1  C   UNL     1       4.805   3.997  -0.049  0.00  0.00    +0.254 C 
ATOM      2  O   UNL     1       5.716   3.314   0.369  0.00  0.00    -0.272 OA
ATOM      3  N   UNL     1       4.883   5.340   0.018  0.00  0.00    -0.312 N 
ATOM      4  H   UNL     1       4.154   5.886  -0.316  0.00  0.00    +0.149 HD
ENDROOT
BRANCH   1   5
ATOM      5  C   UNL     1       3.584   3.342  -0.644  0.00  0.00    +0.255 C 
ATOM      6  C   UNL     1       3.489   3.696  -2.129  0.00  0.00    +0.062 C 
BRANCH   5   7
ATOM      7  O   UNL     1       3.686   1.924  -0.498  0.00  0.00    -0.479 OA
BRANCH   7  20
ATOM      8  C   UNL     1      -1.168   1.854  -0.971  0.00  0.00    +0.044 C 
ATOM      9  C   UNL     1       0.135   1.145  -0.705  0.00  0.00    -0.043 A 
ATOM     10  C   UNL     1       0.133  -0.213  -0.454  0.00  0.00    +0.050 A 
ATOM     11  C   UNL     1       1.327  -0.878  -0.213  0.00  0.00    +0.143 A 
ATOM     12  C   UNL     1       2.535  -0.158  -0.227  0.00  0.00    +0.062 A 
ATOM     13  C   UNL     1       3.789  -0.868   0.029  0.00  0.00    -0.027 A 
ATOM     14  C   UNL     1       3.732  -2.204   0.271  0.00  0.00    +0.038 A 
ATOM     15  C   UNL     1       2.485  -2.864   0.270  0.00  0.00    +0.340 A 
ATOM     16  O   UNL     1       2.448  -4.061   0.488  0.00  0.00    -0.245 OA
ATOM     17  O   UNL     1       1.339  -2.205   0.034  0.00  0.00    -0.422 OA
ATOM     18  C   UNL     1       4.996  -2.978   0.539  0.00  0.00    +0.051 C 
ATOM     19  C   UNL     1       5.107  -0.138   0.024  0.00  0.00    +0.045 C 
ATOM     20  C   UNL     1       2.524   1.222  -0.483  0.00  0.00    +0.133 A 
ATOM     21  C   UNL     1       1.320   1.861  -0.720  0.00  0.00    +0.050 A 
ENDBRANCH   7  20
ENDBRANCH   5   7
ENDBRANCH   1   5
BRANCH   3  22
ATOM     22  C   UNL     1       6.069   5.977   0.597  0.00  0.00    +0.104 C 
BRANCH  22  23
ATOM     23  C   UNL     1       5.905   7.497   0.553  0.00  0.00    +0.019 C 
BRANCH  23  24
ATOM     24  C   UNL     1       7.144   8.162   1.157  0.00  0.00    +0.002 C 
BRANCH  24  25
ATOM     25  C   UNL     1       6.979   9.682   1.113  0.00  0.00    +0.009 C 
BRANCH  25  26
ATOM     26  C   UNL     1       8.218  10.347   1.716  0.00  0.00    +0.096 C 
BRANCH  26  27
ATOM     27  C   UNL     1       8.056  11.845   1.673  0.00  0.00    +0.216 C 
ATOM     28  O   UNL     1       7.049  12.332   1.205  0.00  0.00    -0.276 OA
ATOM     29  N   UNL     1       9.030  12.642   2.154  0.00  0.00    -0.301 N 
ATOM     30  C   UNL     1      10.254  12.066   2.730  0.00  0.00    +0.110 C 
ATOM     31  C   UNL     1      11.466  12.687   2.019  0.00  0.00    +0.054 C 
ATOM     32  C   UNL     1      11.386  14.212   2.120  0.00  0.00    +0.072 C 
ATOM     33  C   UNL     1      12.606  14.828   1.431  0.00  0.00    +0.035 C 
ATOM     34  C   UNL     1      12.632  14.397  -0.037  0.00  0.00    +0.003 C 
ATOM     35  C   UNL     1      11.357  14.877  -0.734  0.00  0.00    +0.001 C 
ATOM     36  C   UNL     1      10.136  14.270  -0.041  0.00  0.00    +0.008 C 
ATOM     37  C   UNL     1      10.114  14.704   1.425  0.00  0.00    +0.038 C 
ATOM     38  C   UNL     1       8.888  14.104   2.119  0.00  0.00    +0.114 C 
BRANCH  32  39
ATOM     39  O   UNL     1      11.363  14.606   3.494  0.00  0.00    -0.388 OA
ATOM     40  H   UNL     1      12.140  14.326   3.996  0.00  0.00    +0.210 HD
ENDBRANCH  32  39
ENDBRANCH  26  27
ENDBRANCH  25  26
ENDBRANCH  24  25
ENDBRANCH  23  24
ENDBRANCH  22  23
ENDBRANCH   3  22
TORSDOF 10
