REMARK  Name = ZINC39302783
REMARK  5 active torsions:
REMARK  status: ('A' for Active; 'I' for Inactive)
REMARK    1  A    between atoms: C_4  and  C_8
REMARK    2  A    between atoms: C_8  and  N_9
REMARK    3  A    between atoms: C_12  and  N_15
REMARK    4  A    between atoms: C_16  and  C_18
REMARK    5  A    between atoms: C_24  and  C_26
REMARK                            x       y       z     vdW  Elec       q    Type
REMARK                         _______ _______ _______ _____ _____    ______ ____
ROOT
ATOM      1  N   UNL     1       7.474  -1.391   2.811  0.00  0.00    -0.313 N 
ATOM      2  C   UNL     1       8.677  -0.872   3.129  0.00  0.00    +0.234 C 
ATOM      3  O   UNL     1       8.996   0.221   2.711  0.00  0.00    -0.274 OA
ATOM      4  H   UNL     1       7.218  -2.265   3.145  0.00  0.00    +0.149 HD
ENDROOT
BRANCH   2   5
ATOM      5  C   UNL     1       9.625  -1.651   4.004  0.00  0.00    +0.162 C 
ATOM      6  C   UNL     1       9.222  -1.492   5.486  0.00  0.00    +0.033 C 
ATOM      7  C   UNL     1      10.591  -1.397   6.210  0.00  0.00    +0.021 C 
ATOM      8  C   UNL     1      11.437  -0.615   5.174  0.00  0.00    +0.109 C 
ATOM      9  N   UNL     1      10.988  -1.120   3.860  0.00  0.00    -0.283 N 
ATOM     10  C   UNL     1      11.706  -1.098   2.720  0.00  0.00    +0.283 C 
ATOM     11  O   UNL     1      11.231  -1.545   1.693  0.00  0.00    -0.267 OA
BRANCH  10  12
ATOM     12  C   UNL     1      13.061  -0.536   2.717  0.00  0.00    +0.189 A 
ATOM     13  C   UNL     1      13.891  -0.448   1.636  0.00  0.00    +0.054 A 
ATOM     14  C   UNL     1      15.077   0.152   2.086  0.00  0.00    +0.042 A 
ATOM     15  C   UNL     1      14.922   0.401   3.405  0.00  0.00    +0.196 A 
ATOM     16  O   UNL     1      13.704  -0.011   3.780  0.00  0.00    -0.458 OA
ENDBRANCH  10  12
ENDBRANCH   2   5
BRANCH   1  20
ATOM     17  N   UNL     1       4.214  -0.848   1.335  0.00  0.00    +0.384 N 
ATOM     18  C   UNL     1       4.427   0.490   1.927  0.00  0.00    -0.077 C 
ATOM     19  C   UNL     1       5.689   0.334   2.812  0.00  0.00    +0.002 C 
ATOM     20  C   UNL     1       6.552  -0.634   1.960  0.00  0.00    +0.055 C 
ATOM     21  C   UNL     1       5.501  -1.567   1.323  0.00  0.00    -0.056 C 
ATOM     22  H   UNL     1       3.544  -1.360   1.891  0.00  0.00    -0.081 HD
BRANCH  17  23
ATOM     23  C   UNL     1       3.713  -0.707  -0.038  0.00  0.00    -0.040 C 
BRANCH  23  27
ATOM     24  C   UNL     1      -0.208   0.989   0.040  0.00  0.00    +0.003 A 
ATOM     25  C   UNL     1       0.886   1.792  -0.220  0.00  0.00    +0.020 A 
ATOM     26  C   UNL     1       2.156   1.243  -0.245  0.00  0.00    +0.044 A 
ATOM     27  C   UNL     1       2.330  -0.109  -0.011  0.00  0.00    -0.027 A 
ATOM     28  C   UNL     1       1.234  -0.912   0.249  0.00  0.00    +0.044 A 
ATOM     29  C   UNL     1      -0.035  -0.362   0.274  0.00  0.00    +0.020 A 
ATOM     30 CL   UNL     1       1.451  -2.609   0.543  0.00  0.00    -0.083 Cl
ATOM     31 CL   UNL     1       3.531   2.252  -0.572  0.00  0.00    -0.083 Cl
ENDBRANCH  23  27
ENDBRANCH  17  23
ENDBRANCH   1  20
TORSDOF 5
