REMARK  Name = ZINC28288591
REMARK  8 active torsions:
REMARK  status: ('A' for Active; 'I' for Inactive)
REMARK    1  A    between atoms: C_1  and  C_2
REMARK    2  A    between atoms: C_5  and  C_28
REMARK    3  A    between atoms: C_6  and  C_12
REMARK    4  A    between atoms: C_10  and  C_11
REMARK    5  A    between atoms: N_14  and  C_15
REMARK    6  A    between atoms: C_15  and  C_16
REMARK    7  A    between atoms: C_16  and  C_17
REMARK    8  A    between atoms: C_20  and  C_22
REMARK                            x       y       z     vdW  Elec       q    Type
REMARK                         _______ _______ _______ _____ _____    ______ ____
ROOT
ATOM      1  C   UNL     1      -1.320   4.779   0.039  0.00  0.00    +0.280 C 
ATOM      2  O   UNL     1      -0.773   5.865   0.040  0.00  0.00    -0.267 OA
ATOM      3  N   UNL     1      -2.665   4.702   0.051  0.00  0.00    -0.308 N 
ATOM      4  H   UNL     1      -3.160   3.719   0.051  0.00  0.00    +0.149 HD
ENDROOT
BRANCH   1  10
ATOM      5  C   UNL     1       3.711  -0.730  -0.038  0.00  0.00    +0.044 C 
ATOM      6  C   UNL     1       2.406   0.024  -0.021  0.00  0.00    -0.047 A 
ATOM      7  C   UNL     1       2.413   1.391  -0.013  0.00  0.00    +0.015 A 
ATOM      8  C   UNL     1       1.203   2.088   0.002  0.00  0.00    +0.024 A 
ATOM      9  C   UNL     1       0.844   3.506   0.012  0.00  0.00    +0.008 A 
ATOM     10  C   UNL     1      -0.514   3.550   0.025  0.00  0.00    +0.193 A 
ATOM     11  O   UNL     1      -1.010   2.295   0.019  0.00  0.00    -0.450 OA
ATOM     12  C   UNL     1      -0.017   1.386   0.010  0.00  0.00    +0.136 A 
ATOM     13  C   UNL     1       0.002  -0.004   0.002  0.00  0.00    +0.050 A 
ATOM     14  C   UNL     1       1.207  -0.674  -0.013  0.00  0.00    -0.044 A 
ATOM     15  C   UNL     1       1.221  -2.181  -0.021  0.00  0.00    +0.044 C 
ATOM     16  C   UNL     1       1.788   4.680   0.009  0.00  0.00    +0.048 C 
ENDBRANCH   1  10
BRANCH   3  17
ATOM     17  C   UNL     1      -3.469   5.927   0.065  0.00  0.00    +0.111 C 
BRANCH  17  18
ATOM     18  C   UNL     1      -4.955   5.562   0.077  0.00  0.00    +0.074 C 
BRANCH  18  19
ATOM     19  C   UNL     1      -5.781   6.822   0.091  0.00  0.00    +0.051 A 
ATOM     20  C   UNL     1      -6.725   7.028  -0.866  0.00  0.00    +0.070 A 
ATOM     21  S   UNL     1      -7.364   8.620  -0.361  0.00  0.00    -0.075 S 
ATOM     22  C   UNL     1      -6.301   8.841   1.060  0.00  0.00    +0.109 A 
ATOM     23  N   UNL     1      -5.588   7.724   1.024  0.00  0.00    -0.244 NA
BRANCH  22  24
ATOM     24  C   UNL     1      -6.235   9.966   2.017  0.00  0.00    +0.007 A 
ATOM     25  C   UNL     1      -5.324   9.936   3.073  0.00  0.00    +0.010 A 
ATOM     26  C   UNL     1      -5.264  10.991   3.959  0.00  0.00    +0.001 A 
ATOM     27  C   UNL     1      -6.112  12.073   3.809  0.00  0.00    +0.000 A 
ATOM     28  C   UNL     1      -7.022  12.108   2.768  0.00  0.00    +0.001 A 
ATOM     29  C   UNL     1      -7.088  11.061   1.871  0.00  0.00    +0.010 A 
ENDBRANCH  22  24
ENDBRANCH  18  19
ENDBRANCH  17  18
ENDBRANCH   3  17
TORSDOF 5
