REMARK  Name = ZINC13786648
REMARK  8 active torsions:
REMARK  status: ('A' for Active; 'I' for Inactive)
REMARK    1  A    between atoms: C_1  and  O_2
REMARK    2  A    between atoms: O_2  and  C_3
REMARK    3  A    between atoms: C_8  and  C_9
REMARK    4  A    between atoms: C_17  and  O_33
REMARK    5  A    between atoms: C_20  and  C_21
REMARK    6  A    between atoms: C_20  and  N_61
REMARK    7  A    between atoms: N_23  and  C_24
REMARK    8  A    between atoms: C_27  and  N_30
REMARK                            x       y       z     vdW  Elec       q    Type
REMARK                         _______ _______ _______ _____ _____    ______ ____
ROOT
ATOM      1  C   UNL     1      -3.237   1.526   2.107  0.00  0.00    -0.028 C 
ATOM      2  C   UNL     1      -2.783   1.032   0.733  0.00  0.00    +0.011 C 
ATOM      3  C   UNL     1      -1.393   1.581   0.412  0.00  0.00    +0.005 C 
ATOM      4  C   UNL     1      -0.952   1.070  -0.961  0.00  0.00    +0.000 C 
ATOM      5  C   UNL     1      -1.946   1.536  -2.026  0.00  0.00    +0.003 C 
ATOM      6  C   UNL     1      -3.341   0.997  -1.699  0.00  0.00    +0.035 C 
ATOM      7  C   UNL     1      -3.774   1.518  -0.328  0.00  0.00    +0.066 C 
ATOM      8  C   UNL     1      -5.170   0.992   0.013  0.00  0.00    +0.016 C 
ATOM      9  C   UNL     1      -5.561   1.479   1.411  0.00  0.00    -0.075 C 
ATOM     10  N   UNL     1      -4.578   0.971   2.393  0.00  0.00    +0.390 N 
ATOM     11  H   UNL     1      -4.537  -0.053   2.323  0.00  0.00    -0.080 HD
ENDROOT
BRANCH   1  17
ATOM     12  C   UNL     1      -1.116   1.760   3.425  0.00  0.00    +0.122 A 
ATOM     13  C   UNL     1      -0.233   1.313   4.398  0.00  0.00    +0.046 A 
ATOM     14  C   UNL     1      -0.502   0.150   5.091  0.00  0.00    +0.004 A 
ATOM     15  C   UNL     1      -1.653  -0.568   4.821  0.00  0.00    +0.000 A 
ATOM     16  C   UNL     1      -2.537  -0.122   3.856  0.00  0.00    +0.005 A 
ATOM     17  C   UNL     1      -2.273   1.041   3.159  0.00  0.00    -0.019 A 
BRANCH  12  19
ATOM     18  C   UNL     1       0.358   3.589   3.063  0.00  0.00    +0.277 C 
ATOM     19  O   UNL     1      -0.851   2.901   2.737  0.00  0.00    -0.495 OA
ENDBRANCH  12  19
ENDBRANCH   1  17
BRANCH   7  20
ATOM     20  O   UNL     1      -3.793   2.947  -0.345  0.00  0.00    -0.388 OA
ATOM     21  H   UNL     1      -4.398   3.324  -0.998  0.00  0.00    +0.210 HD
ENDBRANCH   7  20
BRANCH  10  22
ATOM     22  C   UNL     1      -4.996   1.341   3.761  0.00  0.00    +0.020 C 
BRANCH  22  23
ATOM     23  C   UNL     1      -5.130   2.836   3.890  0.00  0.00    +0.201 C 
ATOM     24  O   UNL     1      -4.795   3.556   2.973  0.00  0.00    -0.278 OA
ATOM     25  N   UNL     1      -5.620   3.374   5.024  0.00  0.00    -0.287 N 
ATOM     26  H   UNL     1      -5.815   2.805   5.785  0.00  0.00    +0.155 HD
BRANCH  25  27
ATOM     27  C   UNL     1      -5.849   4.752   5.104  0.00  0.00    +0.033 A 
ATOM     28  C   UNL     1      -4.980   5.638   4.481  0.00  0.00    +0.025 A 
ATOM     29  C   UNL     1      -5.211   6.998   4.556  0.00  0.00    +0.034 A 
ATOM     30  C   UNL     1      -6.300   7.477   5.260  0.00  0.00    +0.126 A 
ATOM     31  C   UNL     1      -7.164   6.597   5.887  0.00  0.00    +0.034 A 
ATOM     32  C   UNL     1      -6.941   5.237   5.810  0.00  0.00    +0.025 A 
BRANCH  30  33
ATOM     33  N   UNL     1      -6.542   8.935   5.344  0.00  0.00    +0.056 N 
ATOM     34  O   UNL     1      -7.500   9.359   5.965  0.00  0.00    -0.126 OA
ATOM     35  O   UNL     1      -5.782   9.711   4.793  0.00  0.00    -0.126 OA
ENDBRANCH  30  33
ENDBRANCH  25  27
ENDBRANCH  22  23
ENDBRANCH  10  22
TORSDOF 7
