REMARK  Name = ZINC10957269
REMARK  13 active torsions:
REMARK  status: ('A' for Active; 'I' for Inactive)
REMARK    1  A    between atoms: C_1  and  C_2
REMARK    2  A    between atoms: C_4  and  C_8
REMARK    3  A    between atoms: C_5  and  C_7
REMARK    4  A    between atoms: C_10  and  C_20
REMARK    5  A    between atoms: N_14  and  C_17
REMARK    6  A    between atoms: C_17  and  C_18
REMARK    7  A    between atoms: C_17  and  C_19
REMARK    8  A    between atoms: C_20  and  O_22
REMARK    9  A    between atoms: O_22  and  C_23
REMARK   10  A    between atoms: C_23  and  C_25
REMARK   11  A    between atoms: C_23  and  C_26
REMARK   12  A    between atoms: N_28  and  C_29
REMARK   13  A    between atoms: C_30  and  C_34
REMARK                            x       y       z     vdW  Elec       q    Type
REMARK                         _______ _______ _______ _____ _____    ______ ____
ROOT
ATOM      1  C   UNL     1       6.540  -4.197  -0.200  0.00  0.00    +0.077 A 
ATOM      2  C   UNL     1       5.253  -3.652  -0.133  0.00  0.00    +0.044 A 
ATOM      3  C   UNL     1       4.191  -4.348  -0.698  0.00  0.00    +0.073 A 
ATOM      4  C   UNL     1       4.468  -5.582  -1.332  0.00  0.00    +0.053 A 
ATOM      5  C   UNL     1       3.672  -6.536  -2.000  0.00  0.00    +0.145 A 
ATOM      6  N   UNL     1       4.439  -7.509  -2.403  0.00  0.00    -0.177 NA
ATOM      7  N   UNL     1       5.763  -7.253  -2.028  0.00  0.00    -0.244 N 
ATOM      8  C   UNL     1       5.795  -6.056  -1.360  0.00  0.00    +0.160 A 
ATOM      9  N   UNL     1       6.769  -5.354  -0.800  0.00  0.00    -0.227 NA
ENDROOT
BRANCH   1  13
ATOM     10  C   UNL     1       9.318  -0.673   2.243  0.00  0.00    +0.086 C 
ATOM     11  C   UNL     1       8.877  -1.899   1.485  0.00  0.00    +0.103 A 
ATOM     12  C   UNL     1       7.616  -2.172   1.111  0.00  0.00    +0.054 A 
ATOM     13  C   UNL     1       7.673  -3.459   0.408  0.00  0.00    +0.041 A 
ATOM     14  C   UNL     1       8.978  -3.837   0.435  0.00  0.00    +0.111 A 
ATOM     15  O   UNL     1       9.680  -2.893   1.077  0.00  0.00    -0.464 OA
ATOM     16  C   UNL     1       9.541  -5.103  -0.158  0.00  0.00    +0.087 C 
ENDBRANCH   1  13
BRANCH   7  17
ATOM     17  C   UNL     1       6.916  -8.115  -2.302  0.00  0.00    +0.103 C 
ATOM     18  C   UNL     1       6.696  -9.483  -1.653  0.00  0.00    +0.032 C 
ATOM     19  C   UNL     1       7.075  -8.287  -3.814  0.00  0.00    +0.032 C 
ENDBRANCH   7  17
BRANCH   3  20
ATOM     20  C   UNL     1       2.815  -3.812  -0.644  0.00  0.00    +0.341 C 
ATOM     21  O   UNL     1       1.901  -4.433  -1.149  0.00  0.00    -0.245 OA
BRANCH  20  22
ATOM     22  O   UNL     1       2.574  -2.634  -0.036  0.00  0.00    -0.449 OA
BRANCH  22  23
ATOM     23  C   UNL     1       1.199  -2.169  -0.021  0.00  0.00    +0.259 C 
ATOM     24  C   UNL     1       0.496  -2.695   1.232  0.00  0.00    +0.062 C 
BRANCH  23  25
ATOM     25  C   UNL     1       1.178  -0.662  -0.012  0.00  0.00    +0.258 C 
ATOM     26  O   UNL     1       2.220  -0.041  -0.018  0.00  0.00    -0.271 OA
ATOM     27  N   UNL     1       0.002  -0.004   0.002  0.00  0.00    -0.276 N 
ATOM     28  H   UNL     1      -0.831  -0.500   0.007  0.00  0.00    +0.155 HD
BRANCH  27  29
ATOM     29  C   UNL     1      -0.017   1.382   0.010  0.00  0.00    +0.084 A 
ATOM     30  C   UNL     1      -1.117   2.231   0.019  0.00  0.00    +0.065 A 
ATOM     31  C   UNL     1      -0.845   3.648   0.029  0.00  0.00    +0.022 A 
ATOM     32  C   UNL     1       0.447   4.025   0.019  0.00  0.00    +0.048 A 
ATOM     33  S   UNL     1       1.325   2.476   0.003  0.00  0.00    -0.081 S 
BRANCH  30  34
ATOM     34  C   UNL     1      -2.489   1.712   0.021  0.00  0.00    +0.244 C 
ATOM     35  O   UNL     1      -2.685   0.510   0.015  0.00  0.00    -0.270 OA
ATOM     36  N   UNL     1      -3.532   2.565   0.030  0.00  0.00    -0.325 N 
ATOM     37  H   UNL     1      -3.376   3.522   0.034  0.00  0.00    +0.145 HD
ATOM     38  H   UNL     1      -4.439   2.221   0.032  0.00  0.00    +0.145 HD
ENDBRANCH  30  34
ENDBRANCH  27  29
ENDBRANCH  23  25
ENDBRANCH  22  23
ENDBRANCH  20  22
ENDBRANCH   3  20
TORSDOF 8
