REMARK  Name = ZINC22473228
REMARK  9 active torsions:
REMARK  status: ('A' for Active; 'I' for Inactive)
REMARK    1  A    between atoms: C_4  and  C_7
REMARK    2  A    between atoms: C_7  and  C_8
REMARK    3  A    between atoms: N_10  and  C_11
REMARK    4  A    between atoms: N_10  and  C_26
REMARK    5  A    between atoms: C_11  and  C_12
REMARK    6  A    between atoms: C_12  and  C_13
REMARK    7  A    between atoms: C_13  and  N_14
REMARK    8  A    between atoms: C_17  and  O_18
REMARK    9  A    between atoms: C_26  and  C_27
REMARK                            x       y       z     vdW  Elec       q    Type
REMARK                         _______ _______ _______ _____ _____    ______ ____
ROOT
ATOM      1  C   UNL     1      -6.626   2.952  -1.057  0.00  0.00    +0.220 C 
ATOM      2  O   UNL     1      -6.154   2.738  -2.153  0.00  0.00    -0.275 OA
ATOM      3  N   UNL     1      -5.945   2.599   0.051  0.00  0.00    -0.297 N 
ENDROOT
BRANCH   1   4
ATOM      4  C   UNL     1      -7.974   3.614  -0.933  0.00  0.00    +0.131 C 
BRANCH   4   8
ATOM      5  C   UNL     1      -9.650   4.168  -4.823  0.00  0.00    +0.000 A 
ATOM      6  C   UNL     1      -9.900   3.003  -4.123  0.00  0.00    +0.000 A 
ATOM      7  C   UNL     1      -9.358   2.823  -2.864  0.00  0.00    +0.004 A 
ATOM      8  C   UNL     1      -8.566   3.809  -2.305  0.00  0.00    -0.039 A 
ATOM      9  C   UNL     1      -8.320   4.977  -3.004  0.00  0.00    +0.004 A 
ATOM     10  C   UNL     1      -8.859   5.154  -4.265  0.00  0.00    +0.000 A 
ENDBRANCH   4   8
ENDBRANCH   1   4
BRANCH   3  11
ATOM     11  C   UNL     1      -4.687   1.858  -0.068  0.00  0.00    +0.110 C 
BRANCH  11  12
ATOM     12  C   UNL     1      -3.520   2.844  -0.160  0.00  0.00    +0.040 C 
BRANCH  12  13
ATOM     13  C   UNL     1      -2.207   2.069  -0.284  0.00  0.00    +0.114 C 
BRANCH  13  14
ATOM     14  N   UNL     1      -1.090   3.013  -0.373  0.00  0.00    -0.384 N 
ATOM     15  C   UNL     1       0.200   2.545  -0.492  0.00  0.00    +0.053 A 
ATOM     16  C   UNL     1       0.463   1.199  -0.529  0.00  0.00    +0.113 A 
ATOM     17  C   UNL     1       1.784   0.753  -0.656  0.00  0.00    +0.286 A 
ATOM     18  O   UNL     1       2.816   1.609  -0.744  0.00  0.00    -0.425 OA
ATOM     19  C   UNL     1       2.634   2.947  -0.714  0.00  0.00    +0.141 A 
ATOM     20  C   UNL     1       1.339   3.473  -0.589  0.00  0.00    +0.041 A 
ATOM     21  C   UNL     1       1.146   4.855  -0.559  0.00  0.00    +0.013 A 
ATOM     22  C   UNL     1       2.233   5.696  -0.652  0.00  0.00    +0.001 A 
ATOM     23  C   UNL     1       3.512   5.176  -0.777  0.00  0.00    +0.004 A 
ATOM     24  C   UNL     1       3.716   3.812  -0.807  0.00  0.00    +0.047 A 
ATOM     25  H   UNL     1      -1.281   4.096  -0.345  0.00  0.00    +0.160 HD
BRANCH  17  26
ATOM     26  O   UNL     1       2.004  -0.445  -0.688  0.00  0.00    -0.480 OA
ATOM     27  H   UNL     1       3.036  -0.812  -0.788  0.00  0.00    +0.295 HD
ENDBRANCH  17  26
ENDBRANCH  13  14
ENDBRANCH  12  13
ENDBRANCH  11  12
ENDBRANCH   3  11
BRANCH   3  28
ATOM     28  C   UNL     1      -6.462   2.957   1.375  0.00  0.00    +0.142 C 
BRANCH  28  29
ATOM     29  C   UNL     1      -7.238   1.796   1.941  0.00  0.00    -0.030 A 
ATOM     30  C   UNL     1      -8.614   1.755   1.812  0.00  0.00    +0.005 A 
ATOM     31  C   UNL     1      -9.325   0.688   2.327  0.00  0.00    +0.000 A 
ATOM     32  C   UNL     1      -8.662  -0.333   2.981  0.00  0.00    +0.000 A 
ATOM     33  C   UNL     1      -7.287  -0.290   3.115  0.00  0.00    +0.000 A 
ATOM     34  C   UNL     1      -6.575   0.775   2.595  0.00  0.00    +0.005 A 
ENDBRANCH  28  29
ENDBRANCH   3  28
TORSDOF 9
