REMARK  Name = ZINC37324796
REMARK  10 active torsions:
REMARK  status: ('A' for Active; 'I' for Inactive)
REMARK    1  A    between atoms: C_1  and  C_2
REMARK    2  A    between atoms: C_2  and  C_3
REMARK    3  A    between atoms: C_3  and  C_4
REMARK    4  A    between atoms: C_4  and  C_5
REMARK    5  A    between atoms: C_5  and  C_7
REMARK    6  A    between atoms: C_5  and  C_9
REMARK    7  A    between atoms: C_7  and  C_8
REMARK    8  A    between atoms: C_9  and  N_10
REMARK    9  A    between atoms: N_10  and  C_11
REMARK   10  A    between atoms: C_11  and  C_12
REMARK                            x       y       z     vdW  Elec       q    Type
REMARK                         _______ _______ _______ _____ _____    ______ ____
ROOT
ATOM      1  C   UNL     1       2.171  -5.900   3.803  0.00  0.00    -0.047 C 
ENDROOT
BRANCH   1   2
ATOM      2  C   UNL     1       2.812  -6.378   5.080  0.00  0.00    -0.060 A 
ATOM      3  C   UNL     1       4.179  -6.574   5.134  0.00  0.00    +0.051 A 
ATOM      4  C   UNL     1       4.772  -7.014   6.308  0.00  0.00    +0.163 A 
ATOM      5  C   UNL     1       3.989  -7.255   7.430  0.00  0.00    +0.176 A 
ATOM      6  C   UNL     1       2.617  -7.058   7.369  0.00  0.00    +0.063 A 
ATOM      7  C   UNL     1       2.033  -6.615   6.197  0.00  0.00    +0.021 A 
ATOM      8 BR   UNL     1       1.546  -7.389   8.892  0.00  0.00    -0.046 Br
ATOM      9  O   UNL     1       4.552  -7.680   8.595  0.00  0.00    -0.484 OA
ATOM     10  C   UNL     1       5.874  -8.223   8.510  0.00  0.00    +0.270 C 
ATOM     11  C   UNL     1       6.723  -7.285   7.640  0.00  0.00    +0.270 C 
ATOM     12  O   UNL     1       6.119  -7.207   6.344  0.00  0.00    -0.485 OA
ENDBRANCH   1   2
BRANCH   1  13
ATOM     13  N   UNL     1       2.140  -4.431   3.790  0.00  0.00    +0.382 N 
ATOM     14  H   UNL     1       3.083  -4.075   3.848  0.00  0.00    -0.085 HD
ATOM     15  H   UNL     1       1.607  -4.099   4.580  0.00  0.00    -0.085 HD
BRANCH  13  16
ATOM     16  C   UNL     1       1.515  -3.965   2.546  0.00  0.00    -0.079 C 
BRANCH  16  17
ATOM     17  C   UNL     1       1.484  -2.435   2.533  0.00  0.00    -0.028 C 
BRANCH  17  18
ATOM     18  C   UNL     1       2.915  -1.896   2.494  0.00  0.00    -0.002 C 
ATOM     19  C   UNL     1       2.889  -0.371   2.623  0.00  0.00    +0.004 C 
ENDBRANCH  17  18
BRANCH  17  20
ATOM     20  C   UNL     1       0.723  -1.951   1.297  0.00  0.00    +0.002 C 
BRANCH  20  21
ATOM     21  C   UNL     1      -0.745  -2.371   1.405  0.00  0.00    -0.000 C 
BRANCH  21  23
ATOM     22  C   UNL     1      -3.000  -2.196   0.344  0.00  0.00    +0.004 C 
ATOM     23  C   UNL     1      -1.533  -1.776   0.236  0.00  0.00    -0.003 C 
ENDBRANCH  21  23
ENDBRANCH  20  21
ENDBRANCH  17  20
ENDBRANCH  16  17
ENDBRANCH  13  16
ENDBRANCH   1  13
TORSDOF 8
