REMARK  Name = ZINC58450509
REMARK  9 active torsions:
REMARK  status: ('A' for Active; 'I' for Inactive)
REMARK    1  A    between atoms: C_1  and  C_2
REMARK    2  A    between atoms: C_2  and  N_3
REMARK    3  A    between atoms: N_3  and  C_4
REMARK    4  A    between atoms: N_3  and  C_6
REMARK    5  A    between atoms: C_4  and  C_5
REMARK    6  A    between atoms: C_6  and  S_8
REMARK    7  A    between atoms: S_8  and  C_9
REMARK    8  A    between atoms: C_9  and  C_10
REMARK    9  A    between atoms: C_20  and  C_24
REMARK                            x       y       z     vdW  Elec       q    Type
REMARK                         _______ _______ _______ _____ _____    ______ ____
ROOT
ATOM      1  C   UNL     1       5.814  -1.923   2.983  0.00  0.00    +0.142 A 
ATOM      2  N   UNL     1       6.342  -1.047   3.819  0.00  0.00    -0.216 NA
ATOM      3  C   UNL     1       6.765  -1.390   5.024  0.00  0.00    +0.128 A 
ATOM      4  C   UNL     1       6.650  -2.746   5.439  0.00  0.00    +0.051 A 
ATOM      5  C   UNL     1       7.043  -3.352   6.712  0.00  0.00    -0.025 A 
ATOM      6  C   UNL     1       6.824  -4.675   6.853  0.00  0.00    -0.004 A 
ATOM      7  S   UNL     1       6.090  -5.188   5.323  0.00  0.00    -0.073 S 
ATOM      8  C   UNL     1       6.078  -3.620   4.493  0.00  0.00    +0.114 A 
ATOM      9  N   UNL     1       5.676  -3.192   3.312  0.00  0.00    -0.224 NA
ATOM     10  C   UNL     1       7.133  -5.524   8.048  0.00  0.00    +0.046 C 
ATOM     11  C   UNL     1       7.401  -4.599   9.244  0.00  0.00    -0.009 C 
ATOM     12  C   UNL     1       8.374  -3.501   8.805  0.00  0.00    +0.008 C 
ATOM     13  C   UNL     1       7.675  -2.542   7.840  0.00  0.00    +0.037 C 
ATOM     14  C   UNL     1       8.015  -5.406  10.389  0.00  0.00    +0.008 C 
ATOM     15  N   UNL     1       7.314  -0.443   5.870  0.00  0.00    -0.343 N 
ATOM     16  H   UNL     1       7.409  -0.635   6.816  0.00  0.00    +0.144 HD
ATOM     17  H   UNL     1       7.603   0.413   5.518  0.00  0.00    +0.144 HD
ENDROOT
BRANCH   1  18
ATOM     18  C   UNL     1       5.352  -1.460   1.625  0.00  0.00    +0.152 C 
BRANCH  18  19
ATOM     19  S   UNL     1       3.616  -0.940   1.721  0.00  0.00    -0.095 S 
BRANCH  19  20
ATOM     20  C   UNL     1       3.231  -0.434   0.078  0.00  0.00    +0.110 C 
ATOM     21  S   UNL     1       4.425  -0.520  -1.146  0.00  0.00    -0.028 S 
BRANCH  20  22
ATOM     22  N   UNL     1       1.997   0.021  -0.215  0.00  0.00    -0.320 N 
BRANCH  22  24
ATOM     23  C   UNL     1       1.985   1.931  -1.742  0.00  0.00    +0.024 C 
ATOM     24  C   UNL     1       1.676   0.441  -1.581  0.00  0.00    +0.102 C 
ENDBRANCH  22  24
BRANCH  22  25
ATOM     25  C   UNL     1       0.975   0.094   0.832  0.00  0.00    +0.102 C 
ATOM     26  C   UNL     1       0.200  -1.224   0.882  0.00  0.00    +0.024 C 
ENDBRANCH  22  25
ENDBRANCH  20  22
ENDBRANCH  19  20
ENDBRANCH  18  19
ENDBRANCH   1  18
TORSDOF 6
