REMARK  Name = ZINC43647457
REMARK  4 active torsions:
REMARK  status: ('A' for Active; 'I' for Inactive)
REMARK    1  A    between atoms: C_8  and  C_13
REMARK    2  A    between atoms: C_10  and  N_12
REMARK    3  A    between atoms: C_13  and  C_14
REMARK    4  A    between atoms: C_17  and  N_21
REMARK                            x       y       z     vdW  Elec       q    Type
REMARK                         _______ _______ _______ _____ _____    ______ ____
ROOT
ATOM      1  C   UNL     1      -0.017   1.377   0.010  0.00  0.00    +0.000 A 
ATOM      2  C   UNL     1       1.172   2.083   0.002  0.00  0.00    +0.000 A 
ATOM      3  C   UNL     1       2.376   1.406  -0.013  0.00  0.00    +0.002 A 
ATOM      4  C   UNL     1       2.396   0.021  -0.021  0.00  0.00    -0.058 A 
ATOM      5  C   UNL     1       1.208  -0.685  -0.013  0.00  0.00    -0.046 A 
ATOM      6  C   UNL     1       0.002  -0.004   0.002  0.00  0.00    +0.004 A 
ATOM      7  C   UNL     1       1.496  -2.171  -0.025  0.00  0.00    +0.038 C 
ATOM      8  C   UNL     1       2.966  -2.294  -0.480  0.00  0.00    -0.013 C 
ATOM      9  C   UNL     1       3.564  -0.942  -0.037  0.00  0.00    -0.040 C 
ENDROOT
BRANCH   9  10
ATOM     10  N   UNL     1       4.148  -1.058   1.305  0.00  0.00    +0.383 N 
ATOM     11  H   UNL     1       3.443  -1.376   1.953  0.00  0.00    -0.089 HD
ATOM     12  H   UNL     1       4.909  -1.720   1.285  0.00  0.00    -0.089 HD
ATOM     13  H   UNL     1       4.494  -0.157   1.601  0.00  0.00    -0.089 HD
ENDBRANCH   9  10
BRANCH   8  14
ATOM     14  C   UNL     1       3.659  -3.459   0.230  0.00  0.00    +0.038 C 
BRANCH  14  15
ATOM     15  C   UNL     1       3.041  -4.759  -0.217  0.00  0.00    -0.033 A 
ATOM     16  C   UNL     1       2.027  -5.334   0.526  0.00  0.00    +0.007 A 
ATOM     17  C   UNL     1       1.461  -6.526   0.116  0.00  0.00    +0.033 A 
ATOM     18  C   UNL     1       1.908  -7.144  -1.038  0.00  0.00    +0.127 A 
ATOM     19  C   UNL     1       2.921  -6.569  -1.781  0.00  0.00    +0.048 A 
ATOM     20  C   UNL     1       3.485  -5.373  -1.373  0.00  0.00    +0.023 A 
ATOM     21 BR   UNL     1       4.867  -4.583  -2.394  0.00  0.00    -0.050 Br
BRANCH  18  22
ATOM     22  N   UNL     1       1.301  -8.421  -1.476  0.00  0.00    +0.056 N 
ATOM     23  O   UNL     1       0.414  -8.924  -0.826  0.00  0.00    -0.126 OA
ATOM     24  O   UNL     1       1.692  -8.961  -2.485  0.00  0.00    -0.126 OA
ENDBRANCH  18  22
ENDBRANCH  14  15
ENDBRANCH   8  14
TORSDOF 4
