REMARK  Name = ZINC39223246
REMARK  5 active torsions:
REMARK  status: ('A' for Active; 'I' for Inactive)
REMARK    1  A    between atoms: C_4  and  C_7
REMARK    2  A    between atoms: C_8  and  N_14
REMARK    3  A    between atoms: N_14  and  N_15
REMARK    4  A    between atoms: C_18  and  C_23
REMARK    5  A    between atoms: C_26  and  O_29
REMARK                            x       y       z     vdW  Elec       q    Type
REMARK                         _______ _______ _______ _____ _____    ______ ____
ROOT
ATOM      1  N   UNL     1       1.223  -2.336   0.194  0.00  0.00    -0.194 N 
ATOM      2  C   UNL     1       0.725  -2.369   1.472  0.00  0.00    +0.040 C 
ATOM      3  C   UNL     1      -0.267  -1.532   1.841  0.00  0.00    +0.022 C 
ATOM      4  C   UNL     1      -0.830  -0.545   0.845  0.00  0.00    +0.063 C 
ATOM      5  C   UNL     1      -0.831  -1.176  -0.549  0.00  0.00    +0.111 C 
ATOM      6  C   UNL     1       0.522  -1.786  -0.812  0.00  0.00    +0.237 C 
ATOM      7  O   UNL     1       0.977  -1.784  -1.936  0.00  0.00    -0.274 OA
ATOM      8  C   UNL     1      -0.798  -1.556   3.141  0.00  0.00    +0.161 C 
ATOM      9  O   UNL     1      -1.683  -0.779   3.440  0.00  0.00    -0.292 OA
ATOM     10  C   UNL     1      -0.288  -2.529   4.170  0.00  0.00    +0.080 C 
ATOM     11  C   UNL     1       0.235  -3.779   3.456  0.00  0.00    +0.014 C 
ATOM     12  C   UNL     1       1.309  -3.355   2.452  0.00  0.00    +0.053 C 
ENDROOT
BRANCH   4  13
ATOM     13  C   UNL     1       0.021   0.698   0.833  0.00  0.00    -0.039 A 
ATOM     14  C   UNL     1       1.388   0.598   0.654  0.00  0.00    +0.008 A 
ATOM     15  C   UNL     1       2.170   1.736   0.644  0.00  0.00    +0.045 A 
ATOM     16  C   UNL     1       1.582   2.982   0.813  0.00  0.00    +0.117 A 
ATOM     17  C   UNL     1       0.210   3.080   0.992  0.00  0.00    +0.045 A 
ATOM     18  C   UNL     1      -0.568   1.939   0.996  0.00  0.00    +0.008 A 
BRANCH  16  19
ATOM     19  O   UNL     1       2.350   4.104   0.803  0.00  0.00    -0.507 OA
ATOM     20  H   UNL     1       2.463   4.495  -0.073  0.00  0.00    +0.292 HD
ENDBRANCH  16  19
ENDBRANCH   4  13
BRANCH   1  21
ATOM     21  N   UNL     1       2.488  -2.879  -0.065  0.00  0.00    -0.259 N 
ATOM     22  H   UNL     1       3.287  -2.387   0.180  0.00  0.00    +0.170 HD
BRANCH  21  24
ATOM     23  C   UNL     1       3.831  -4.684  -0.889  0.00  0.00    +0.110 C 
ATOM     24  C   UNL     1       2.595  -4.088  -0.657  0.00  0.00    +0.059 C 
ATOM     25  C   UNL     1       1.372  -4.872  -1.105  0.00  0.00    +0.153 C 
ATOM     26  C   UNL     1       1.659  -6.215  -1.753  0.00  0.00    +0.260 C 
ATOM     27  O   UNL     1       0.759  -6.926  -2.150  0.00  0.00    -0.272 OA
ATOM     28  N   UNL     1       2.942  -6.587  -1.872  0.00  0.00    -0.080 NA
ATOM     29  N   UNL     1       3.921  -5.870  -1.476  0.00  0.00    -0.155 NA
BRANCH  23  33
ATOM     30  C   UNL     1       7.381  -2.662   0.286  0.00  0.00    +0.000 A 
ATOM     31  C   UNL     1       7.189  -3.983   0.648  0.00  0.00    +0.001 A 
ATOM     32  C   UNL     1       6.039  -4.645   0.269  0.00  0.00    +0.010 A 
ATOM     33  C   UNL     1       5.069  -3.979  -0.479  0.00  0.00    +0.003 A 
ATOM     34  C   UNL     1       5.268  -2.647  -0.840  0.00  0.00    +0.010 A 
ATOM     35  C   UNL     1       6.423  -1.996  -0.456  0.00  0.00    +0.001 A 
ENDBRANCH  23  33
ENDBRANCH  21  24
ENDBRANCH   1  21
TORSDOF 5
