REMARK  Name = ZINC05721488
REMARK  7 active torsions:
REMARK  status: ('A' for Active; 'I' for Inactive)
REMARK    1  A    between atoms: C_1  and  C_2
REMARK    2  A    between atoms: C_2  and  C_4
REMARK    3  A    between atoms: C_2  and  O_20
REMARK    4  A    between atoms: N_6  and  N_7
REMARK    5  A    between atoms: C_8  and  C_9
REMARK    6  A    between atoms: C_18  and  O_19
REMARK    7  A    between atoms: O_20  and  C_21
REMARK                            x       y       z     vdW  Elec       q    Type
REMARK                         _______ _______ _______ _____ _____    ______ ____
ROOT
ATOM      1  C   UNL     1       2.373  -3.931  -0.959  0.00  0.00    +0.273 C 
ATOM      2  O   UNL     1       1.286  -4.260  -1.386  0.00  0.00    -0.270 OA
ATOM      3  N   UNL     1       3.455  -4.694  -1.209  0.00  0.00    -0.204 N 
ATOM      4  H   UNL     1       4.324  -4.430  -0.867  0.00  0.00    +0.177 HD
ENDROOT
BRANCH   1   6
ATOM      5  C   UNL     1       3.052  -3.011   1.242  0.00  0.00    +0.062 C 
ATOM      6  C   UNL     1       2.512  -2.668  -0.148  0.00  0.00    +0.257 C 
BRANCH   6   7
ATOM      7  O   UNL     1       1.235  -2.040  -0.021  0.00  0.00    -0.478 OA
BRANCH   7   8
ATOM      8  C   UNL     1       1.226  -0.698   0.200  0.00  0.00    +0.140 A 
ATOM      9  C   UNL     1       2.419  -0.021   0.405  0.00  0.00    +0.048 A 
ATOM     10  C   UNL     1       2.408   1.343   0.629  0.00  0.00    +0.023 A 
ATOM     11  C   UNL     1       1.209   2.033   0.650  0.00  0.00    +0.043 A 
ATOM     12  C   UNL     1       0.018   1.359   0.446  0.00  0.00    +0.043 A 
ATOM     13  C   UNL     1       0.024  -0.005   0.221  0.00  0.00    +0.084 A 
ATOM     14 CL   UNL     1      -1.470  -0.850  -0.036  0.00  0.00    -0.080 Cl
ATOM     15 CL   UNL     1       1.199   3.745   0.931  0.00  0.00    -0.083 Cl
ENDBRANCH   7   8
ENDBRANCH   6   7
ENDBRANCH   1   6
BRANCH   3  16
ATOM     16  N   UNL     1       3.325  -5.868  -1.962  0.00  0.00    -0.187 NA
ATOM     17  C   UNL     1       4.369  -6.604  -2.204  0.00  0.00    +0.142 C 
BRANCH  17  18
ATOM     18  C   UNL     1       4.233  -7.835  -2.994  0.00  0.00    +0.044 A 
ATOM     19  C   UNL     1       5.396  -8.675  -3.275  0.00  0.00    -0.006 A 
ATOM     20  C   UNL     1       6.671  -8.338  -2.804  0.00  0.00    +0.009 A 
ATOM     21  C   UNL     1       7.730  -9.148  -3.088  0.00  0.00    +0.001 A 
ATOM     22  C   UNL     1       7.562 -10.308  -3.840  0.00  0.00    +0.001 A 
ATOM     23  C   UNL     1       6.336 -10.665  -4.313  0.00  0.00    +0.008 A 
ATOM     24  C   UNL     1       5.222  -9.853  -4.041  0.00  0.00    -0.017 A 
ATOM     25  C   UNL     1       3.941 -10.190  -4.512  0.00  0.00    +0.012 A 
ATOM     26  C   UNL     1       2.869  -9.398  -4.242  0.00  0.00    +0.046 A 
ATOM     27  C   UNL     1       2.990  -8.231  -3.488  0.00  0.00    +0.126 A 
BRANCH  27  28
ATOM     28  O   UNL     1       1.893  -7.473  -3.238  0.00  0.00    -0.506 OA
ATOM     29  H   UNL     1       1.722  -6.795  -3.906  0.00  0.00    +0.292 HD
ENDBRANCH  27  28
ENDBRANCH  17  18
ENDBRANCH   3  16
TORSDOF 6
