REMARK  Name = ZINC50362430
REMARK  7 active torsions:
REMARK  status: ('A' for Active; 'I' for Inactive)
REMARK    1  A    between atoms: C_1  and  C_2
REMARK    2  A    between atoms: C_2  and  N_3
REMARK    3  A    between atoms: N_3  and  C_4
REMARK    4  A    between atoms: N_3  and  C_11
REMARK    5  A    between atoms: C_11  and  C_13
REMARK    6  A    between atoms: C_11  and  C_15
REMARK    7  A    between atoms: C_13  and  N_14
REMARK                            x       y       z     vdW  Elec       q    Type
REMARK                         _______ _______ _______ _____ _____    ______ ____
ROOT
ATOM      1  C   UNL     1       2.154  -0.731   1.252  0.00  0.00    +0.122 C 
ENDROOT
BRANCH   1   2
ATOM      2  C   UNL     1       2.554  -1.678   0.151  0.00  0.00    +0.126 A 
ATOM      3  C   UNL     1       3.444  -2.681   0.260  0.00  0.00    +0.063 A 
ATOM      4  C   UNL     1       3.512  -3.309  -1.005  0.00  0.00    +0.070 A 
ATOM      5  C   UNL     1       2.658  -2.652  -1.813  0.00  0.00    +0.184 A 
ATOM      6  O   UNL     1       2.077  -1.668  -1.105  0.00  0.00    -0.450 OA
ATOM      7 BR   UNL     1       2.328  -3.049  -3.632  0.00  0.00    -0.007 Br
ATOM      8 BR   UNL     1       4.594  -4.787  -1.473  0.00  0.00    -0.046 Br
ENDBRANCH   1   2
BRANCH   1   9
ATOM      9  N   UNL     1       0.711  -0.489   1.189  0.00  0.00    -0.322 N 
BRANCH   9  10
ATOM     10  C   UNL     1      -0.098  -0.798   2.285  0.00  0.00    +0.033 A 
ATOM     11  C   UNL     1      -1.447  -0.466   2.271  0.00  0.00    +0.023 A 
ATOM     12  C   UNL     1      -2.245  -0.773   3.355  0.00  0.00    +0.005 A 
ATOM     13  C   UNL     1      -1.703  -1.410   4.456  0.00  0.00    +0.038 A 
ATOM     14  C   UNL     1      -0.359  -1.743   4.475  0.00  0.00    +0.125 A 
ATOM     15  C   UNL     1       0.444  -1.444   3.389  0.00  0.00    +0.061 A 
ATOM     16  F   UNL     1       0.167  -2.366   5.552  0.00  0.00    -0.205 F 
ENDBRANCH   9  10
BRANCH   9  18
ATOM     17  C   UNL     1       0.107   1.603   0.075  0.00  0.00    +0.024 C 
ATOM     18  C   UNL     1       0.115   0.076  -0.024  0.00  0.00    +0.102 C 
ENDBRANCH   9  18
ENDBRANCH   1   9
BRANCH   1  19
ATOM     19  C   UNL     1       2.901   0.594   1.082  0.00  0.00    -0.056 C 
BRANCH  19  20
ATOM     20  N   UNL     1       2.423   1.557   2.082  0.00  0.00    +0.380 N 
ATOM     21  H   UNL     1       2.916   2.431   1.970  0.00  0.00    -0.090 HD
ATOM     22  H   UNL     1       1.434   1.710   1.957  0.00  0.00    -0.090 HD
ATOM     23  H   UNL     1       2.593   1.193   3.008  0.00  0.00    -0.090 HD
ENDBRANCH  19  20
ENDBRANCH   1  19
TORSDOF 6
