REMARK  Name = ZINC14650486
REMARK  11 active torsions:
REMARK  status: ('A' for Active; 'I' for Inactive)
REMARK    1  A    between atoms: C_1  and  C_2
REMARK    2  A    between atoms: C_3  and  C_26
REMARK    3  A    between atoms: C_5  and  N_10
REMARK    4  A    between atoms: C_6  and  C_7
REMARK    5  A    between atoms: C_11  and  C_13
REMARK    6  A    between atoms: C_18  and  O_19
REMARK    7  A    between atoms: O_19  and  C_20
REMARK    8  A    between atoms: C_20  and  C_21
REMARK    9  A    between atoms: C_21  and  C_22
REMARK   10  A    between atoms: C_22  and  C_23
REMARK   11  A    between atoms: C_22  and  C_24
REMARK                            x       y       z     vdW  Elec       q    Type
REMARK                         _______ _______ _______ _____ _____    ______ ____
ROOT
ATOM      1  N   UNL     1      -2.462   1.431   0.021  0.00  0.00    -0.275 N 
ATOM      2  C   UNL     1      -1.302   2.117   0.020  0.00  0.00    +0.252 C 
ATOM      3  O   UNL     1      -1.314   3.333   0.026  0.00  0.00    -0.270 OA
ATOM      4  H   UNL     1      -2.452   0.462   0.016  0.00  0.00    +0.156 HD
ENDROOT
BRANCH   1   9
ATOM      5  C   UNL     1      -7.481   2.083   0.048  0.00  0.00    +0.045 C 
ATOM      6  C   UNL     1      -6.044   2.536   0.044  0.00  0.00    -0.027 A 
ATOM      7  C   UNL     1      -5.720   3.841   0.050  0.00  0.00    -0.008 A 
ATOM      8  S   UNL     1      -3.939   3.822   0.049  0.00  0.00    -0.078 S 
ATOM      9  C   UNL     1      -3.669   2.112   0.031  0.00  0.00    +0.085 A 
ATOM     10  C   UNL     1      -4.956   1.587   0.034  0.00  0.00    +0.068 A 
ATOM     11  C   UNL     1      -6.642   5.033   0.061  0.00  0.00    +0.052 C 
BRANCH  10  12
ATOM     12  C   UNL     1      -5.197   0.141   0.027  0.00  0.00    +0.244 C 
ATOM     13  O   UNL     1      -5.292  -0.466   1.078  0.00  0.00    -0.270 OA
ATOM     14  N   UNL     1      -5.313  -0.517  -1.143  0.00  0.00    -0.325 N 
ATOM     15  H   UNL     1      -5.237  -0.034  -1.981  0.00  0.00    +0.145 HD
ATOM     16  H   UNL     1      -5.472  -1.474  -1.148  0.00  0.00    +0.145 HD
ENDBRANCH  10  12
ENDBRANCH   1   9
BRANCH   2  17
ATOM     17  C   UNL     1      -0.017   1.393   0.010  0.00  0.00    +0.080 A 
ATOM     18  C   UNL     1       0.002  -0.004   0.002  0.00  0.00    +0.032 A 
ATOM     19  C   UNL     1       1.206  -0.675  -0.013  0.00  0.00    +0.019 A 
ATOM     20  C   UNL     1       2.400   0.031  -0.021  0.00  0.00    +0.019 A 
ATOM     21  C   UNL     1       2.394   1.411  -0.013  0.00  0.00    +0.047 A 
ATOM     22  C   UNL     1       1.192   2.102   0.002  0.00  0.00    +0.133 A 
ATOM     23 BR   UNL     1       1.231  -2.566  -0.024  0.00  0.00    -0.050 Br
BRANCH  22  24
ATOM     24  O   UNL     1       1.186   3.459   0.009  0.00  0.00    -0.491 OA
BRANCH  24  25
ATOM     25  C   UNL     1       2.456   4.114   0.000  0.00  0.00    +0.229 C 
BRANCH  25  26
ATOM     26  C   UNL     1       2.249   5.629   0.010  0.00  0.00    +0.044 C 
BRANCH  26  27
ATOM     27  C   UNL     1       3.609   6.330   0.001  0.00  0.00    -0.014 C 
ATOM     28  C   UNL     1       4.329   6.029  -1.315  0.00  0.00    +0.007 C 
ATOM     29  C   UNL     1       3.405   7.841   0.136  0.00  0.00    +0.007 C 
ENDBRANCH  26  27
ENDBRANCH  25  26
ENDBRANCH  24  25
ENDBRANCH  22  24
ENDBRANCH   2  17
TORSDOF 7
