REMARK  Name = ZINC12549275
REMARK  6 active torsions:
REMARK  status: ('A' for Active; 'I' for Inactive)
REMARK    1  A    between atoms: C_4  and  N_7
REMARK    2  A    between atoms: C_9  and  C_22
REMARK    3  A    between atoms: C_10  and  C_12
REMARK    4  A    between atoms: C_23  and  C_24
REMARK    5  A    between atoms: C_24  and  C_26
REMARK    6  A    between atoms: C_29  and  O_32
REMARK                            x       y       z     vdW  Elec       q    Type
REMARK                         _______ _______ _______ _____ _____    ______ ____
ROOT
ATOM      1  N   UNL     1      -5.235  -2.310  -0.353  0.00  0.00    -0.239 N 
ATOM      2  C   UNL     1      -5.839  -1.397   0.428  0.00  0.00    +0.123 A 
ATOM      3  C   UNL     1      -4.917  -0.404   0.709  0.00  0.00    +0.021 A 
ATOM      4  C   UNL     1      -3.679  -0.784   0.017  0.00  0.00    +0.100 A 
ATOM      5  N   UNL     1      -3.914  -1.922  -0.596  0.00  0.00    -0.166 NA
ENDROOT
BRANCH   4   6
ATOM      6  C   UNL     1      -2.404  -0.029   0.016  0.00  0.00    +0.006 A 
ATOM      7  C   UNL     1      -2.417   1.365   0.026  0.00  0.00    +0.014 A 
ATOM      8  C   UNL     1      -1.228   2.065   0.019  0.00  0.00    +0.050 A 
ATOM      9  C   UNL     1      -0.017   1.387   0.010  0.00  0.00    +0.162 A 
ATOM     10  C   UNL     1       0.002  -0.004   0.002  0.00  0.00    +0.163 A 
ATOM     11  C   UNL     1      -1.188  -0.712   0.004  0.00  0.00    +0.059 A 
ATOM     12  O   UNL     1       1.181  -0.685  -0.006  0.00  0.00    -0.485 OA
ATOM     13  C   UNL     1       2.347   0.054  -0.387  0.00  0.00    +0.270 C 
ATOM     14  C   UNL     1       2.335   1.391   0.365  0.00  0.00    +0.270 C 
ATOM     15  O   UNL     1       1.144   2.098   0.002  0.00  0.00    -0.485 OA
ENDBRANCH   4   6
BRANCH   1  19
ATOM     16  C   UNL     1      -7.028  -5.772  -1.825  0.00  0.00    +0.000 A 
ATOM     17  C   UNL     1      -5.709  -5.494  -2.134  0.00  0.00    +0.002 A 
ATOM     18  C   UNL     1      -5.112  -4.347  -1.647  0.00  0.00    +0.028 A 
ATOM     19  C   UNL     1      -5.837  -3.474  -0.848  0.00  0.00    +0.065 A 
ATOM     20  C   UNL     1      -7.160  -3.759  -0.535  0.00  0.00    +0.028 A 
ATOM     21  C   UNL     1      -7.753  -4.905  -1.029  0.00  0.00    +0.002 A 
ENDBRANCH   1  19
BRANCH   3  22
ATOM     22  C   UNL     1      -5.135   0.790   1.530  0.00  0.00    +0.015 C 
ATOM     23  C   UNL     1      -6.341   1.005   2.108  0.00  0.00    +0.052 C 
BRANCH  23  24
ATOM     24  C   UNL     1      -6.551   2.159   2.901  0.00  0.00    +0.186 C 
ATOM     25  O   UNL     1      -5.646   2.958   3.065  0.00  0.00    -0.287 OA
BRANCH  24  26
ATOM     26  C   UNL     1      -7.866   2.393   3.531  0.00  0.00    +0.022 A 
ATOM     27  C   UNL     1      -8.907   1.480   3.340  0.00  0.00    +0.015 A 
ATOM     28  C   UNL     1     -10.130   1.698   3.933  0.00  0.00    +0.046 A 
ATOM     29  C   UNL     1     -10.334   2.832   4.712  0.00  0.00    +0.117 A 
ATOM     30  C   UNL     1      -9.303   3.745   4.900  0.00  0.00    +0.046 A 
ATOM     31  C   UNL     1      -8.075   3.531   4.314  0.00  0.00    +0.015 A 
BRANCH  29  32
ATOM     32  O   UNL     1     -11.543   3.046   5.291  0.00  0.00    -0.507 OA
ATOM     33  H   UNL     1     -12.157   3.553   4.742  0.00  0.00    +0.292 HD
ENDBRANCH  29  32
ENDBRANCH  24  26
ENDBRANCH  23  24
ENDBRANCH   3  22
TORSDOF 6
