REMARK  Name = ZINC19370077
REMARK  5 active torsions:
REMARK  status: ('A' for Active; 'I' for Inactive)
REMARK    1  A    between atoms: C_1  and  N_2
REMARK    2  A    between atoms: N_2  and  C_3
REMARK    3  A    between atoms: C_3  and  N_5
REMARK    4  A    between atoms: N_5  and  C_6
REMARK    5  A    between atoms: C_16  and  C_18
REMARK                            x       y       z     vdW  Elec       q    Type
REMARK                         _______ _______ _______ _____ _____    ______ ____
ROOT
ATOM      1  C   UNL     1       0.708   5.876  -1.181  0.00  0.00    +0.084 C 
ATOM      2  C   UNL     1       0.733   7.381  -0.875  0.00  0.00    +0.007 C 
ATOM      3  C   UNL     1      -0.685   7.926  -0.814  0.00  0.00    -0.072 C 
ATOM      4  N   UNL     1      -1.582   7.152   0.036  0.00  0.00    +0.381 N 
ATOM      5  C   UNL     1      -1.636   7.584   1.406  0.00  0.00    -0.063 C 
ATOM      6  C   UNL     1      -0.286   7.840   2.002  0.00  0.00    +0.066 C 
ATOM      7  N   UNL     1       0.757   6.957   1.538  0.00  0.00    -0.303 NA
ATOM      8  C   UNL     1       1.493   7.590   0.431  0.00  0.00    +0.088 C 
ATOM      9  C   UNL     1       0.430   5.580   1.294  0.00  0.00    +0.095 C 
ATOM     10  C   UNL     1      -0.120   5.219  -0.069  0.00  0.00    +0.012 C 
ATOM     11  C   UNL     1      -1.563   5.726  -0.201  0.00  0.00    -0.064 C 
ATOM     12  H   UNL     1      -2.597   7.410  -0.300  0.00  0.00    -0.082 HD
ENDROOT
BRANCH  10  13
ATOM     13  C   UNL     1      -0.096   3.722  -0.241  0.00  0.00    -0.040 A 
ATOM     14  C   UNL     1       0.286   2.911   0.811  0.00  0.00    +0.004 A 
ATOM     15  C   UNL     1       0.309   1.538   0.653  0.00  0.00    +0.000 A 
ATOM     16  C   UNL     1      -0.050   0.976  -0.557  0.00  0.00    +0.000 A 
ATOM     17  C   UNL     1      -0.426   1.787  -1.612  0.00  0.00    +0.000 A 
ATOM     18  C   UNL     1      -0.454   3.160  -1.452  0.00  0.00    +0.004 A 
ENDBRANCH  10  13
BRANCH   1  19
ATOM     19  N   UNL     1       2.071   5.340  -1.175  0.00  0.00    -0.323 N 
ATOM     20  H   UNL     1       2.503   4.946  -0.243  0.00  0.00    +0.148 HD
BRANCH  19  21
ATOM     21  C   UNL     1       2.796   5.329  -2.311  0.00  0.00    +0.130 C 
ATOM     22  S   UNL     1       2.123   5.942  -3.761  0.00  0.00    -0.019 S 
BRANCH  21  24
ATOM     23  C   UNL     1       4.837   4.823  -3.541  0.00  0.00    +0.127 C 
ATOM     24  N   UNL     1       4.050   4.835  -2.306  0.00  0.00    -0.330 N 
ATOM     25  H   UNL     1       4.482   4.441  -1.374  0.00  0.00    +0.147 HD
ENDBRANCH  21  24
ENDBRANCH  19  21
ENDBRANCH   1  19
TORSDOF 4
