REMARK  Name = ZINC09778571
REMARK  6 active torsions:
REMARK  status: ('A' for Active; 'I' for Inactive)
REMARK    1  A    between atoms: C_1  and  C_2
REMARK    2  A    between atoms: C_10  and  C_13
REMARK    3  A    between atoms: C_23  and  C_33
REMARK    4  A    between atoms: C_24  and  C_25
REMARK    5  A    between atoms: C_25  and  O_27
REMARK    6  A    between atoms: O_27  and  C_28
REMARK                            x       y       z     vdW  Elec       q    Type
REMARK                         _______ _______ _______ _____ _____    ______ ____
ROOT
ATOM      1  C   UNL     1       0.088  -5.156   3.538  0.00  0.00    +0.099 C 
ATOM      2  C   UNL     1      -1.154  -4.888   4.349  0.00  0.00    +0.024 C 
ATOM      3  C   UNL     1      -1.099  -4.127   5.463  0.00  0.00    +0.015 C 
ATOM      4  C   UNL     1      -2.337  -3.857   6.282  0.00  0.00    +0.051 C 
ATOM      5  C   UNL     1      -3.566  -3.853   5.370  0.00  0.00    +0.014 C 
ATOM      6  C   UNL     1      -3.650  -5.209   4.661  0.00  0.00    +0.080 C 
ATOM      7  C   UNL     1      -2.367  -5.451   3.914  0.00  0.00    +0.162 C 
ATOM      8  O   UNL     1      -2.379  -6.144   2.916  0.00  0.00    -0.292 OA
ATOM      9  N   UNL     1       0.088  -3.585   5.876  0.00  0.00    -0.321 N 
ATOM     10  C   UNL     1       1.278  -4.099   5.440  0.00  0.00    +0.016 C 
ATOM     11  C   UNL     1       1.325  -4.857   4.332  0.00  0.00    +0.065 C 
ATOM     12  C   UNL     1       2.543  -3.813   6.207  0.00  0.00    +0.061 C 
ATOM     13  H   UNL     1       0.086  -2.828   6.483  0.00  0.00    +0.152 HD
ENDROOT
BRANCH   1  23
ATOM     14  C   UNL     1      -0.018   1.503   0.010  0.00  0.00    +0.044 C 
ATOM     15  C   UNL     1       0.002  -0.004   0.002  0.00  0.00    -0.050 A 
ATOM     16  C   UNL     1       0.006  -0.688  -1.205  0.00  0.00    +0.007 A 
ATOM     17  C   UNL     1       0.024  -2.066  -1.234  0.00  0.00    +0.047 A 
ATOM     18  C   UNL     1       0.039  -2.784  -0.043  0.00  0.00    +0.138 A 
ATOM     19  C   UNL     1       0.036  -2.090   1.178  0.00  0.00    +0.064 A 
ATOM     20  C   UNL     1       0.023  -0.696   1.193  0.00  0.00    +0.018 A 
ATOM     21  C   UNL     1       0.052  -2.874   2.428  0.00  0.00    +0.197 A 
ATOM     22  O   UNL     1       0.050  -2.331   3.519  0.00  0.00    -0.287 OA
ATOM     23  C   UNL     1       0.070  -4.289   2.305  0.00  0.00    +0.047 A 
ATOM     24  C   UNL     1       0.072  -4.850   1.083  0.00  0.00    +0.204 A 
ATOM     25  O   UNL     1       0.057  -4.132  -0.045  0.00  0.00    -0.462 OA
ENDBRANCH   1  23
BRANCH  11  26
ATOM     26  C   UNL     1       2.567  -5.385   3.908  0.00  0.00    +0.338 C 
ATOM     27  O   UNL     1       3.578  -5.149   4.544  0.00  0.00    -0.245 OA
BRANCH  26  28
ATOM     28  O   UNL     1       2.631  -6.149   2.797  0.00  0.00    -0.458 OA
BRANCH  28  29
ATOM     29  C   UNL     1       3.918  -6.648   2.427  0.00  0.00    +0.177 C 
ATOM     30  C   UNL     1       4.594  -5.682   1.432  0.00  0.00    +0.044 C 
ATOM     31  C   UNL     1       5.343  -6.613   0.447  0.00  0.00    +0.004 C 
ATOM     32  C   UNL     1       4.363  -7.802   0.288  0.00  0.00    +0.004 C 
ATOM     33  C   UNL     1       3.771  -7.996   1.700  0.00  0.00    +0.044 C 
ENDBRANCH  28  29
ENDBRANCH  26  28
ENDBRANCH  11  26
TORSDOF 4
