REMARK  Name = ZINC03174800
REMARK  6 active torsions:
REMARK  status: ('A' for Active; 'I' for Inactive)
REMARK    1  A    between atoms: C_1  and  C_2
REMARK    2  A    between atoms: C_2  and  C_30
REMARK    3  A    between atoms: C_4  and  N_67
REMARK    4  A    between atoms: N_9  and  C_19
REMARK    5  A    between atoms: P_10  and  O_12
REMARK    6  A    between atoms: O_12  and  C_13
REMARK                            x       y       z     vdW  Elec       q    Type
REMARK                         _______ _______ _______ _____ _____    ______ ____
ROOT
ATOM      1  C   UNL     1       8.518  -1.578  -0.313  0.00  0.00    +0.015 C 
ATOM      2  C   UNL     1       8.169  -0.195  -0.866  0.00  0.00    -0.010 C 
ATOM      3  C   UNL     1       7.031   0.388  -0.043  0.00  0.00    +0.060 C 
ATOM      4  C   UNL     1       5.708  -0.275  -0.369  0.00  0.00    +0.005 C 
ATOM      5  C   UNL     1       5.528  -0.686  -1.608  0.00  0.00    +0.063 C 
ATOM      6  C   UNL     1       6.562  -0.611  -2.676  0.00  0.00    +0.055 C 
ATOM      7  C   UNL     1       7.835  -0.329  -2.329  0.00  0.00    +0.005 C 
ATOM      8  N   UNL     1       6.061  -0.958  -3.906  0.00  0.00    -0.258 N 
ATOM      9  N   UNL     1       4.783  -1.518  -4.009  0.00  0.00    -0.200 N 
ATOM     10  P   UNL     1       4.126  -1.439  -2.482  0.00  0.00    +0.180 P 
ATOM     11  S   UNL     1       3.738  -3.136  -1.817  0.00  0.00    -0.011 S 
ATOM     12  C   UNL     1       9.392   0.714  -0.722  0.00  0.00    +0.015 C 
ATOM     13  H   UNL     1       6.593  -0.814  -4.705  0.00  0.00    +0.171 HD
ENDROOT
BRANCH   4  19
ATOM     14  C   UNL     1       4.310  -1.785   1.008  0.00  0.00    +0.085 C 
ATOM     15  C   UNL     1       4.429  -1.885   2.536  0.00  0.00    +0.017 C 
ATOM     16  C   UNL     1       3.629  -0.749   3.179  0.00  0.00    +0.003 C 
ATOM     17  C   UNL     1       4.206   0.598   2.738  0.00  0.00    +0.017 C 
ATOM     18  C   UNL     1       4.088   0.725   1.216  0.00  0.00    +0.085 C 
ATOM     19  N   UNL     1       4.981  -0.440   0.849  0.00  0.00    -0.396 NA
ATOM     20  H   UNL     1       5.714  -0.435   1.568  0.00  0.00    +0.126 HD
ENDBRANCH   4  19
BRANCH   9  21
ATOM     21  C   UNL     1       4.181  -2.037  -5.158  0.00  0.00    +0.055 A 
ATOM     22  C   UNL     1       2.899  -2.567  -5.094  0.00  0.00    +0.025 A 
ATOM     23  C   UNL     1       2.306  -3.076  -6.232  0.00  0.00    +0.002 A 
ATOM     24  C   UNL     1       2.991  -3.066  -7.434  0.00  0.00    +0.000 A 
ATOM     25  C   UNL     1       4.270  -2.544  -7.500  0.00  0.00    +0.002 A 
ATOM     26  C   UNL     1       4.867  -2.029  -6.366  0.00  0.00    +0.025 A 
ENDBRANCH   9  21
BRANCH  10  27
ATOM     27  O   UNL     1       2.829  -0.486  -2.447  0.00  0.00    -0.329 OA
BRANCH  27  28
ATOM     28  C   UNL     1       2.787   0.796  -3.078  0.00  0.00    +0.125 C 
ATOM     29  C   UNL     1       2.420   1.861  -2.043  0.00  0.00    +0.032 C 
ATOM     30  C   UNL     1       2.375   3.234  -2.718  0.00  0.00    +0.003 C 
ATOM     31  C   UNL     1       1.326   3.220  -3.832  0.00  0.00    +0.000 C 
ATOM     32  C   UNL     1       1.693   2.155  -4.866  0.00  0.00    +0.003 C 
ATOM     33  C   UNL     1       1.738   0.782  -4.191  0.00  0.00    +0.032 C 
ENDBRANCH  27  28
ENDBRANCH  10  27
TORSDOF 4
