REMARK  Name = ZINC65940544
REMARK  6 active torsions:
REMARK  status: ('A' for Active; 'I' for Inactive)
REMARK    1  A    between atoms: C_1  and  C_2
REMARK    2  A    between atoms: C_6  and  N_8
REMARK    3  A    between atoms: C_12  and  C_13
REMARK    4  A    between atoms: C_16  and  C_18
REMARK    5  A    between atoms: C_21  and  C_22
REMARK    6  A    between atoms: C_21  and  C_24
REMARK                            x       y       z     vdW  Elec       q    Type
REMARK                         _______ _______ _______ _____ _____    ______ ____
ROOT
ATOM      1  N   UNL     1       0.050  -2.797   2.397  0.00  0.00    -0.266 N 
ATOM      2  C   UNL     1       1.206  -3.107   2.959  0.00  0.00    +0.271 A 
ATOM      3  O   UNL     1       2.266  -2.791   2.449  0.00  0.00    -0.266 OA
ATOM      4  C   UNL     1       1.156  -3.851   4.226  0.00  0.00    +0.082 A 
ATOM      5  C   UNL     1       2.179  -4.295   5.012  0.00  0.00    +0.066 C 
ATOM      6  S   UNL     1      -0.608  -4.017   4.461  0.00  0.00    -0.064 S 
ATOM      7  C   UNL     1      -1.136  -3.156   2.988  0.00  0.00    +0.116 A 
ATOM      8  C   UNL     1      -2.438  -2.909   2.545  0.00  0.00    +0.159 C 
ENDROOT
BRANCH   1  14
ATOM      9  C   UNL     1      -0.018   1.503   0.010  0.00  0.00    +0.044 C 
ATOM     10  C   UNL     1       0.002  -0.004   0.002  0.00  0.00    -0.048 A 
ATOM     11  C   UNL     1       0.006  -0.688  -1.200  0.00  0.00    +0.006 A 
ATOM     12  C   UNL     1       0.024  -2.070  -1.213  0.00  0.00    +0.041 A 
ATOM     13  C   UNL     1       0.039  -2.773  -0.022  0.00  0.00    +0.147 A 
ATOM     14  C   UNL     1       0.035  -2.088   1.188  0.00  0.00    +0.086 A 
ATOM     15  C   UNL     1       0.023  -0.700   1.195  0.00  0.00    +0.032 A 
ATOM     16  F   UNL     1       0.057  -4.124  -0.034  0.00  0.00    -0.203 F 
ENDBRANCH   1  14
BRANCH   5  17
ATOM     17  C   UNL     1       1.901  -4.999   6.205  0.00  0.00    +0.129 A 
ATOM     18  C   UNL     1       2.833  -5.498   7.093  0.00  0.00    +0.049 A 
ATOM     19  C   UNL     1       2.111  -6.117   8.124  0.00  0.00    +0.045 A 
ATOM     20  C   UNL     1       0.799  -5.977   7.834  0.00  0.00    +0.103 A 
ATOM     21  O   UNL     1       0.675  -5.300   6.684  0.00  0.00    -0.461 OA
ATOM     22  C   UNL     1      -0.342  -6.493   8.673  0.00  0.00    +0.086 C 
ENDBRANCH   5  17
BRANCH   8  23
ATOM     23  C   UNL     1      -3.555  -3.371   3.313  0.00  0.00    +0.113 C 
ATOM     24  N   UNL     1      -4.442  -3.737   3.921  0.00  0.00    -0.190 NA
ENDBRANCH   8  23
BRANCH   8  25
ATOM     25  C   UNL     1      -2.655  -2.194   1.323  0.00  0.00    +0.113 C 
ATOM     26  N   UNL     1      -2.827  -1.627   0.354  0.00  0.00    -0.190 NA
ENDBRANCH   8  25
TORSDOF 4
