REMARK  Name = ZINC22789975
REMARK  11 active torsions:
REMARK  status: ('A' for Active; 'I' for Inactive)
REMARK    1  A    between atoms: C_1  and  C_2
REMARK    2  A    between atoms: C_2  and  C_3
REMARK    3  A    between atoms: C_2  and  C_4
REMARK    4  A    between atoms: C_2  and  N_5
REMARK    5  A    between atoms: C_6  and  C_8
REMARK    6  A    between atoms: C_8  and  N_9
REMARK    7  A    between atoms: N_13  and  C_16
REMARK    8  A    between atoms: C_16  and  C_17
REMARK    9  A    between atoms: N_19  and  C_20
REMARK   10  A    between atoms: C_20  and  C_22
REMARK   11  A    between atoms: C_20  and  C_28
REMARK                            x       y       z     vdW  Elec       q    Type
REMARK                         _______ _______ _______ _____ _____    ______ ____
ROOT
ATOM      1  N   UNL     1       0.905  -2.262  -0.094  0.00  0.00    +0.386 N 
ATOM      2  C   UNL     1       0.421  -2.575   1.268  0.00  0.00    -0.077 C 
ATOM      3  C   UNL     1      -0.392  -3.844   1.208  0.00  0.00    -0.003 C 
ATOM      4  C   UNL     1       0.461  -5.091   1.489  0.00  0.00    +0.083 C 
ATOM      5  N   UNL     1       1.785  -5.032   0.830  0.00  0.00    -0.296 NA
ATOM      6  C   UNL     1       1.744  -4.516  -0.520  0.00  0.00    +0.066 C 
ATOM      7  C   UNL     1       2.030  -3.001  -0.484  0.00  0.00    -0.063 C 
ATOM      8  H   UNL     1       0.140  -2.603  -0.806  0.00  0.00    -0.081 HD
ENDROOT
BRANCH   1   9
ATOM      9  C   UNL     1       1.142  -0.821  -0.251  0.00  0.00    +0.019 C 
BRANCH   9  11
ATOM     10  N   UNL     1      -0.179   1.268  -0.160  0.00  0.00    -0.312 N 
ATOM     11  C   UNL     1      -0.154  -0.076  -0.061  0.00  0.00    +0.197 C 
ATOM     12  O   UNL     1      -1.174  -0.685   0.182  0.00  0.00    -0.278 OA
ATOM     13  H   UNL     1       0.747   1.821  -0.375  0.00  0.00    +0.149 HD
BRANCH  10  15
ATOM     14  C   UNL     1      -1.993   1.715   1.418  0.00  0.00    +0.031 C 
ATOM     15  C   UNL     1      -1.440   1.992   0.019  0.00  0.00    +0.026 C 
ATOM     16  C   UNL     1      -1.193   3.494  -0.143  0.00  0.00    +0.031 C 
ATOM     17  C   UNL     1      -2.450   1.525  -1.031  0.00  0.00    +0.031 C 
ENDBRANCH  10  15
ENDBRANCH   9  11
ENDBRANCH   1   9
BRANCH   5  18
ATOM     18  C   UNL     1       2.454  -6.339   0.873  0.00  0.00    +0.180 C 
BRANCH  18  19
ATOM     19  C   UNL     1       1.651  -7.340   0.084  0.00  0.00    +0.228 C 
ATOM     20  O   UNL     1       0.680  -6.978  -0.545  0.00  0.00    -0.274 OA
ATOM     21  N   UNL     1       2.014  -8.639   0.077  0.00  0.00    -0.303 N 
ATOM     22  H   UNL     1       2.895  -8.967   0.647  0.00  0.00    +0.150 HD
BRANCH  21  23
ATOM     23  C   UNL     1       1.233  -9.612  -0.691  0.00  0.00    +0.140 C 
BRANCH  23  24
ATOM     24  C   UNL     1       2.108 -10.785  -1.052  0.00  0.00    -0.022 A 
ATOM     25  C   UNL     1       3.018 -11.277  -0.135  0.00  0.00    +0.006 A 
ATOM     26  C   UNL     1       3.817 -12.355  -0.465  0.00  0.00    +0.000 A 
ATOM     27  C   UNL     1       3.715 -12.935  -1.715  0.00  0.00    +0.000 A 
ATOM     28  C   UNL     1       2.809 -12.440  -2.634  0.00  0.00    +0.000 A 
ATOM     29  C   UNL     1       2.006 -11.364  -2.303  0.00  0.00    +0.006 A 
ENDBRANCH  23  24
BRANCH  23  30
ATOM     30  C   UNL     1       0.070 -10.091   0.140  0.00  0.00    +0.014 A 
ATOM     31  C   UNL     1      -1.208 -10.334  -0.241  0.00  0.00    +0.013 A 
ATOM     32  C   UNL     1      -2.116 -10.776   0.703  0.00  0.00    +0.008 A 
ATOM     33  C   UNL     1      -1.704 -10.943   1.984  0.00  0.00    +0.045 A 
ATOM     34  S   UNL     1       0.017 -10.477   1.882  0.00  0.00    -0.099 S 
ENDBRANCH  23  30
ENDBRANCH  21  23
ENDBRANCH  18  19
ENDBRANCH   5  18
TORSDOF 8
