REMARK  Name = ZINC02956375
REMARK  9 active torsions:
REMARK  status: ('A' for Active; 'I' for Inactive)
REMARK    1  A    between atoms: C_1  and  C_2
REMARK    2  A    between atoms: C_5  and  C_7
REMARK    3  A    between atoms: C_7  and  N_8
REMARK    4  A    between atoms: C_9  and  C_11
REMARK    5  A    between atoms: C_11  and  C_12
REMARK    6  A    between atoms: C_12  and  C_13
REMARK    7  A    between atoms: C_18  and  C_21
REMARK    8  A    between atoms: C_26  and  O_32
REMARK    9  A    between atoms: O_32  and  C_33
REMARK                            x       y       z     vdW  Elec       q    Type
REMARK                         _______ _______ _______ _____ _____    ______ ____
ROOT
ATOM      1  C   UNL     1       4.381  -6.618  -4.521  0.00  0.00    +0.219 C 
ATOM      2  O   UNL     1       3.884  -5.998  -5.437  0.00  0.00    -0.275 OA
ATOM      3  N   UNL     1       5.207  -7.651  -4.776  0.00  0.00    -0.265 N 
ATOM      4  C   UNL     1       5.491  -8.006  -6.088  0.00  0.00    +0.165 A 
ATOM      5  N   UNL     1       6.261  -8.977  -6.543  0.00  0.00    -0.224 NA
ATOM      6  C   UNL     1       6.420  -9.177  -7.843  0.00  0.00    +0.087 A 
ATOM      7  C   UNL     1       5.774  -8.361  -8.731  0.00  0.00    +0.077 A 
ATOM      8  S   UNL     1       4.903  -7.275  -7.610  0.00  0.00    -0.060 S 
ATOM      9  H   UNL     1       5.605  -8.147  -4.043  0.00  0.00    +0.157 HD
ENDROOT
BRANCH   6  10
ATOM     10  C   UNL     1       7.290 -10.274  -8.330  0.00  0.00    +0.086 A 
ATOM     11  C   UNL     1       7.942 -11.106  -7.455  0.00  0.00    +0.028 A 
ATOM     12  C   UNL     1       8.786 -12.115  -7.990  0.00  0.00    +0.018 A 
ATOM     13  C   UNL     1       9.314 -13.114  -7.160  0.00  0.00    +0.015 A 
ATOM     14  C   UNL     1      10.091 -14.101  -7.694  0.00  0.00    +0.046 A 
ATOM     15  C   UNL     1      10.370 -14.121  -9.059  0.00  0.00    +0.124 A 
ATOM     16  C   UNL     1       9.873 -13.132  -9.892  0.00  0.00    +0.092 A 
ATOM     17  C   UNL     1       9.088 -12.118  -9.365  0.00  0.00    +0.143 A 
ATOM     18  O   UNL     1       8.628 -11.121 -10.160  0.00  0.00    -0.422 OA
ATOM     19  C   UNL     1       7.482 -10.513  -9.770  0.00  0.00    +0.347 A 
ATOM     20  O   UNL     1       6.640 -10.172 -10.581  0.00  0.00    -0.244 OA
BRANCH  15  21
ATOM     21  O   UNL     1      11.136 -15.116  -9.576  0.00  0.00    -0.495 OA
ATOM     22  C   UNL     1      11.618 -16.104  -8.664  0.00  0.00    +0.277 C 
ENDBRANCH  15  21
ENDBRANCH   6  10
BRANCH   1  23
ATOM     23  C   UNL     1       4.073  -6.233  -3.096  0.00  0.00    +0.105 C 
BRANCH  23  24
ATOM     24  C   UNL     1       3.117  -5.038  -3.086  0.00  0.00    +0.105 C 
BRANCH  24  26
ATOM     25  N   UNL     1       1.983  -3.620  -1.407  0.00  0.00    -0.308 N 
ATOM     26  C   UNL     1       2.810  -4.653  -1.662  0.00  0.00    +0.214 C 
ATOM     27  O   UNL     1       3.307  -5.273  -0.746  0.00  0.00    -0.276 OA
ATOM     28  H   UNL     1       1.586  -3.124  -2.140  0.00  0.00    +0.149 HD
BRANCH  25  29
ATOM     29  C   UNL     1       1.684  -3.245  -0.023  0.00  0.00    +0.178 C 
BRANCH  29  34
ATOM     30  C   UNL     1      -0.018   1.503   0.010  0.00  0.00    +0.086 C 
ATOM     31  C   UNL     1       0.002  -0.004   0.002  0.00  0.00    +0.102 A 
ATOM     32  C   UNL     1      -1.078  -0.805   0.003  0.00  0.00    +0.045 A 
ATOM     33  C   UNL     1      -0.601  -2.136  -0.007  0.00  0.00    +0.046 A 
ATOM     34  C   UNL     1       0.742  -2.069  -0.013  0.00  0.00    +0.122 A 
ATOM     35  O   UNL     1       1.102  -0.775  -0.013  0.00  0.00    -0.463 OA
ENDBRANCH  29  34
ENDBRANCH  25  29
ENDBRANCH  24  26
ENDBRANCH  23  24
ENDBRANCH   1  23
TORSDOF 7
