REMARK  Name = ZINC08925761
REMARK  6 active torsions:
REMARK  status: ('A' for Active; 'I' for Inactive)
REMARK    1  A    between atoms: C_3  and  C_9
REMARK    2  A    between atoms: C_9  and  O_10
REMARK    3  A    between atoms: O_10  and  N_11
REMARK    4  A    between atoms: C_14  and  C_16
REMARK    5  A    between atoms: N_19  and  C_22
REMARK    6  A    between atoms: C_25  and  C_27
REMARK                            x       y       z     vdW  Elec       q    Type
REMARK                         _______ _______ _______ _____ _____    ______ ____
ROOT
ATOM      1  C   UNL     1      -7.483   3.590   0.073  0.00  0.00    +0.078 C 
ATOM      2  C   UNL     1      -8.271   3.132  -1.158  0.00  0.00    +0.032 C 
ATOM      3  C   UNL     1      -9.635   3.826  -1.172  0.00  0.00    +0.107 C 
ATOM      4  N   UNL     1      -9.445   5.282  -1.203  0.00  0.00    -0.315 N 
ATOM      5  C   UNL     1      -8.732   5.750  -0.008  0.00  0.00    +0.107 C 
ATOM      6  C   UNL     1      -7.341   5.114   0.041  0.00  0.00    +0.032 C 
ENDROOT
BRANCH   4   7
ATOM      7  C   UNL     1     -10.661   5.940  -1.349  0.00  0.00    +0.117 A 
ATOM      8  C   UNL     1     -11.117   6.275  -2.621  0.00  0.00    +0.079 A 
ATOM      9  C   UNL     1     -12.332   6.925  -2.751  0.00  0.00    +0.037 A 
ATOM     10  C   UNL     1     -13.046   7.229  -1.599  0.00  0.00    +0.072 A 
ATOM     11  C   UNL     1     -12.532   6.872  -0.370  0.00  0.00    +0.096 A 
ATOM     12 CL   UNL     1     -10.177   5.877  -4.026  0.00  0.00    -0.080 Cl
ATOM     13  N   UNL     1     -11.345   6.228  -0.204  0.00  0.00    -0.348 N 
ATOM     14  H   UNL     1     -10.987   5.975   0.724  0.00  0.00    +0.167 HD
BRANCH  10  15
ATOM     15  C   UNL     1     -14.371   7.942  -1.692  0.00  0.00    +0.419 C 
ATOM     16  F   UNL     1     -14.890   8.131  -0.407  0.00  0.00    -0.166 F 
ATOM     17  F   UNL     1     -14.191   9.184  -2.310  0.00  0.00    -0.166 F 
ATOM     18  F   UNL     1     -15.263   7.171  -2.446  0.00  0.00    -0.166 F 
ENDBRANCH  10  15
ENDBRANCH   4   7
BRANCH   1  22
ATOM     19  N   UNL     1      -3.686   1.775   0.039  0.00  0.00    -0.077 NA
ATOM     20  C   UNL     1      -4.741   1.032   0.073  0.00  0.00    +0.230 C 
ATOM     21  N   UNL     1      -5.995   1.614   0.084  0.00  0.00    -0.274 N 
ATOM     22  C   UNL     1      -6.116   2.956   0.060  0.00  0.00    +0.221 C 
ATOM     23  O   UNL     1      -5.125   3.654   0.029  0.00  0.00    -0.275 OA
ATOM     24  H   UNL     1      -6.788   1.056   0.110  0.00  0.00    +0.156 HD
BRANCH  19  25
ATOM     25  O   UNL     1      -2.401   1.179   0.027  0.00  0.00    -0.388 OA
BRANCH  25  26
ATOM     26  C   UNL     1      -1.325   2.119  -0.011  0.00  0.00    +0.299 C 
BRANCH  26  29
ATOM     27  C   UNL     1       1.206  -0.681  -0.008  0.00  0.00    +0.020 A 
ATOM     28  C   UNL     1       0.003  -0.002   0.006  0.00  0.00    +0.010 A 
ATOM     29  C   UNL     1      -0.012   1.380  -0.020  0.00  0.00    +0.011 A 
ATOM     30  C   UNL     1       1.178   2.084  -0.061  0.00  0.00    +0.049 A 
ATOM     31  C   UNL     1       2.383   1.405  -0.076  0.00  0.00    +0.040 A 
ATOM     32  C   UNL     1       2.397   0.021  -0.049  0.00  0.00    +0.042 A 
ATOM     33 CL   UNL     1       3.909  -0.832  -0.067  0.00  0.00    -0.083 Cl
ATOM     34 CL   UNL     1       1.160   3.819  -0.096  0.00  0.00    -0.083 Cl
ENDBRANCH  26  29
ENDBRANCH  25  26
ENDBRANCH  19  25
ENDBRANCH   1  22
TORSDOF 6
