REMARK  Name = ZINC07633469
REMARK  6 active torsions:
REMARK  status: ('A' for Active; 'I' for Inactive)
REMARK    1  A    between atoms: C_1  and  C_2
REMARK    2  A    between atoms: C_2  and  C_4
REMARK    3  A    between atoms: C_2  and  S_15
REMARK    4  A    between atoms: N_6  and  C_7
REMARK    5  A    between atoms: S_15  and  C_16
REMARK    6  A    between atoms: C_18  and  C_22
REMARK                            x       y       z     vdW  Elec       q    Type
REMARK                         _______ _______ _______ _____ _____    ______ ____
ROOT
ATOM      1  C   UNL     1      -0.020   1.532  -0.003  0.00  0.00    +0.029 C 
ATOM      2  C   UNL     1       0.003   0.002   0.000  0.00  0.00    +0.137 C 
ENDROOT
BRANCH   2   3
ATOM      3  C   UNL     1       0.707  -0.492  -1.237  0.00  0.00    +0.230 C 
ATOM      4  O   UNL     1       0.066  -0.791  -2.222  0.00  0.00    -0.274 OA
ATOM      5  N   UNL     1       2.051  -0.601  -1.250  0.00  0.00    -0.284 N 
ATOM      6  H   UNL     1       2.569  -0.298  -0.487  0.00  0.00    +0.155 HD
BRANCH   5   7
ATOM      7  C   UNL     1       2.698  -1.150  -2.363  0.00  0.00    +0.036 A 
ATOM      8  C   UNL     1       3.838  -1.925  -2.191  0.00  0.00    +0.026 A 
ATOM      9  C   UNL     1       4.476  -2.467  -3.290  0.00  0.00    +0.043 A 
ATOM     10  C   UNL     1       3.981  -2.238  -4.562  0.00  0.00    +0.159 A 
ATOM     11  C   UNL     1       2.844  -1.465  -4.737  0.00  0.00    +0.160 A 
ATOM     12  C   UNL     1       2.199  -0.925  -3.638  0.00  0.00    +0.064 A 
ATOM     13  F   UNL     1       2.362  -1.242  -5.979  0.00  0.00    -0.202 F 
ATOM     14  F   UNL     1       4.607  -2.769  -5.635  0.00  0.00    -0.202 F 
ENDBRANCH   5   7
ENDBRANCH   2   3
BRANCH   2  15
ATOM     15  S   UNL     1      -1.698  -0.627   0.019  0.00  0.00    -0.074 S 
BRANCH  15  16
ATOM     16  C   UNL     1      -2.332  -0.095   1.575  0.00  0.00    +0.185 A 
ATOM     17  N   UNL     1      -1.678   0.600   2.479  0.00  0.00    -0.201 NA
ATOM     18  C   UNL     1      -2.471   0.826   3.536  0.00  0.00    +0.182 A 
ATOM     19  N   UNL     1      -3.643   0.275   3.313  0.00  0.00    -0.152 NA
ATOM     20  H   UNL     1      -4.288  -0.809   1.595  0.00  0.00    +0.191 HD
ATOM     21  N   UNL     1      -3.579  -0.324   2.045  0.00  0.00    -0.253 N 
BRANCH  18  22
ATOM     22  C   UNL     1      -2.089   1.575   4.758  0.00  0.00    +0.021 A 
ATOM     23  C   UNL     1      -0.811   2.119   4.873  0.00  0.00    +0.011 A 
ATOM     24  C   UNL     1      -0.460   2.815   6.012  0.00  0.00    +0.001 A 
ATOM     25  C   UNL     1      -1.375   2.974   7.038  0.00  0.00    +0.000 A 
ATOM     26  C   UNL     1      -2.645   2.436   6.929  0.00  0.00    +0.001 A 
ATOM     27  C   UNL     1      -3.008   1.743   5.792  0.00  0.00    +0.011 A 
ENDBRANCH  18  22
ENDBRANCH  15  16
ENDBRANCH   2  15
TORSDOF 5
