REMARK  Name = ZINC64630317
REMARK  10 active torsions:
REMARK  status: ('A' for Active; 'I' for Inactive)
REMARK    1  A    between atoms: C_1  and  C_2
REMARK    2  A    between atoms: C_2  and  C_3
REMARK    3  A    between atoms: C_2  and  C_4
REMARK    4  A    between atoms: C_4  and  N_5
REMARK    5  A    between atoms: C_6  and  C_8
REMARK    6  A    between atoms: C_8  and  N_9
REMARK    7  A    between atoms: N_12  and  C_13
REMARK    8  A    between atoms: C_13  and  C_14
REMARK    9  A    between atoms: C_14  and  N_15
REMARK   10  A    between atoms: C_19  and  C_22
REMARK                            x       y       z     vdW  Elec       q    Type
REMARK                         _______ _______ _______ _____ _____    ______ ____
ROOT
ATOM      1  N   UNL     1      -5.452  -0.619  -2.712  0.00  0.00    -0.291 N 
ATOM      2  C   UNL     1      -6.266  -0.384  -3.761  0.00  0.00    +0.300 C 
ATOM      3  O   UNL     1      -5.858   0.249  -4.716  0.00  0.00    -0.253 OA
ATOM      4  N   UNL     1      -7.530  -0.850  -3.751  0.00  0.00    -0.298 N 
ATOM      5  H   UNL     1      -5.777  -1.124  -1.950  0.00  0.00    +0.151 HD
ATOM      6  H   UNL     1      -7.855  -1.355  -2.990  0.00  0.00    +0.150 HD
ENDROOT
BRANCH   1   7
ATOM      7  C   UNL     1      -4.078  -0.112  -2.723  0.00  0.00    +0.201 C 
BRANCH   7   9
ATOM      8  N   UNL     1      -2.105  -0.148  -1.230  0.00  0.00    -0.314 N 
ATOM      9  C   UNL     1      -3.387  -0.508  -1.443  0.00  0.00    +0.230 C 
ATOM     10  O   UNL     1      -3.983  -1.151  -0.606  0.00  0.00    -0.274 OA
ATOM     11  H   UNL     1      -1.628   0.366  -1.901  0.00  0.00    +0.149 HD
BRANCH   8  12
ATOM     12  C   UNL     1      -1.433  -0.534   0.013  0.00  0.00    +0.107 C 
BRANCH  12  14
ATOM     13  C   UNL     1      -0.019   1.526   0.010  0.00  0.00    +0.009 C 
ATOM     14  C   UNL     1       0.002  -0.004   0.002  0.00  0.00    -0.000 C 
ATOM     15  C   UNL     1       0.742  -0.511   1.242  0.00  0.00    +0.009 C 
ENDBRANCH  12  14
ENDBRANCH   8  12
ENDBRANCH   7   9
ENDBRANCH   1   7
BRANCH   4  16
ATOM     16  C   UNL     1      -8.414  -0.595  -4.891  0.00  0.00    +0.124 C 
BRANCH  16  17
ATOM     17  C   UNL     1      -9.781  -1.227  -4.628  0.00  0.00    +0.121 C 
BRANCH  17  18
ATOM     18  N   UNL     1     -10.665  -0.972  -5.769  0.00  0.00    -0.326 N 
ATOM     19  C   UNL     1     -11.970  -1.453  -5.759  0.00  0.00    +0.137 A 
ATOM     20  C   UNL     1     -12.803  -1.211  -6.848  0.00  0.00    +0.081 A 
ATOM     21  C   UNL     1     -14.099  -1.697  -6.824  0.00  0.00    +0.037 A 
ATOM     22  C   UNL     1     -14.519  -2.410  -5.709  0.00  0.00    +0.074 A 
ATOM     23  C   UNL     1     -13.640  -2.612  -4.665  0.00  0.00    +0.125 A 
ATOM     24  N   UNL     1     -12.407  -2.142  -4.716  0.00  0.00    -0.238 NA
ATOM     25 CL   UNL     1     -12.224  -0.313  -8.216  0.00  0.00    -0.080 Cl
ATOM     26  H   UNL     1     -10.340  -0.467  -6.530  0.00  0.00    +0.148 HD
BRANCH  22  27
ATOM     27  C   UNL     1     -15.921  -2.957  -5.640  0.00  0.00    +0.419 C 
ATOM     28  F   UNL     1     -15.946  -4.247  -6.180  0.00  0.00    -0.166 F 
ATOM     29  F   UNL     1     -16.339  -3.002  -4.305  0.00  0.00    -0.166 F 
ATOM     30  F   UNL     1     -16.782  -2.129  -6.369  0.00  0.00    -0.166 F 
ENDBRANCH  22  27
ENDBRANCH  17  18
ENDBRANCH  16  17
ENDBRANCH   4  16
TORSDOF 8
