REMARK  Name = ZINC64024016
REMARK  11 active torsions:
REMARK  status: ('A' for Active; 'I' for Inactive)
REMARK    1  A    between atoms: C_1  and  C_2
REMARK    2  A    between atoms: C_7  and  C_13
REMARK    3  A    between atoms: C_9  and  C_12
REMARK    4  A    between atoms: C_13  and  N_14
REMARK    5  A    between atoms: N_17  and  C_24
REMARK    6  A    between atoms: C_18  and  C_21
REMARK    7  A    between atoms: C_21  and  C_22
REMARK    8  A    between atoms: C_22  and  O_23
REMARK    9  A    between atoms: N_27  and  C_30
REMARK   10  A    between atoms: C_30  and  C_31
REMARK   11  A    between atoms: C_30  and  C_32
REMARK                            x       y       z     vdW  Elec       q    Type
REMARK                         _______ _______ _______ _____ _____    ______ ____
ROOT
ATOM      1  N   UNL     1       1.630  -6.432   1.116  0.00  0.00    -0.297 NA
ATOM      2  C   UNL     1       0.514  -7.303   1.509  0.00  0.00    +0.100 C 
ATOM      3  C   UNL     1       0.439  -8.495   0.552  0.00  0.00    +0.100 C 
ATOM      4  N   UNL     1       1.712  -9.228   0.586  0.00  0.00    -0.294 NA
ATOM      5  C   UNL     1       2.829  -8.357   0.194  0.00  0.00    +0.073 C 
ATOM      6  C   UNL     1       2.904  -7.165   1.151  0.00  0.00    +0.103 C 
ENDROOT
BRANCH   4   7
ATOM      7  C   UNL     1       1.654 -10.425  -0.264  0.00  0.00    +0.054 C 
ATOM      8  C   UNL     1       1.268 -10.022  -1.690  0.00  0.00    +0.000 C 
ATOM      9  C   UNL     1       1.131 -11.280  -2.550  0.00  0.00    -0.077 C 
ATOM     10  N   UNL     1       0.093 -12.152  -1.988  0.00  0.00    +0.381 N 
ATOM     11  C   UNL     1       0.491 -12.600  -0.648  0.00  0.00    -0.077 C 
ATOM     12  C   UNL     1       0.602 -11.393   0.286  0.00  0.00    +0.000 C 
ATOM     13  H   UNL     1      -0.776 -11.642  -1.927  0.00  0.00    -0.081 HD
BRANCH  10  14
ATOM     14  C   UNL     1      -0.089 -13.320  -2.859  0.00  0.00    -0.075 C 
ATOM     15  C   UNL     1      -1.171 -14.229  -2.275  0.00  0.00    -0.014 C 
ATOM     16  C   UNL     1      -0.512 -12.855  -4.254  0.00  0.00    -0.014 C 
ENDBRANCH  10  14
ENDBRANCH   4   7
BRANCH   1  17
ATOM     17  C   UNL     1       1.688  -5.235   1.966  0.00  0.00    +0.113 C 
BRANCH  17  24
ATOM     18  C   UNL     1       0.643   1.589   0.486  0.00  0.00    +0.044 C 
ATOM     19  C   UNL     1       0.565   0.086   0.420  0.00  0.00    -0.050 A 
ATOM     20  C   UNL     1       0.433  -0.537  -0.828  0.00  0.00    +0.005 A 
ATOM     21  C   UNL     1       0.357  -1.877  -0.971  0.00  0.00    +0.026 A 
ATOM     22  C   UNL     1       0.408  -2.725   0.170  0.00  0.00    +0.043 A 
ATOM     23  N   UNL     1       0.353  -4.029   0.292  0.00  0.00    -0.376 N 
ATOM     24  C   UNL     1       0.451  -4.371   1.715  0.00  0.00    +0.120 C 
ATOM     25  C   UNL     1       0.575  -3.055   2.450  0.00  0.00    -0.040 C 
ATOM     26  C   UNL     1       0.546  -2.092   1.501  0.00  0.00    -0.001 A 
ATOM     27  C   UNL     1       0.628  -0.628   1.568  0.00  0.00    +0.013 A 
ATOM     28  C   UNL     1       0.704  -2.857   3.938  0.00  0.00    +0.042 C 
ATOM     29  H   UNL     1       0.263  -4.662  -0.438  0.00  0.00    +0.160 HD
ENDBRANCH  17  24
ENDBRANCH   1  17
BRANCH   5  30
ATOM     30  C   UNL     1       4.139  -9.146   0.257  0.00  0.00    +0.048 C 
BRANCH  30  31
ATOM     31  C   UNL     1       5.291  -8.261  -0.222  0.00  0.00    +0.157 C 
BRANCH  31  32
ATOM     32  O   UNL     1       6.496  -9.028  -0.263  0.00  0.00    -0.395 OA
ATOM     33  H   UNL     1       7.270  -8.529  -0.558  0.00  0.00    +0.209 HD
ENDBRANCH  31  32
ENDBRANCH  30  31
ENDBRANCH   5  30
TORSDOF 7
