REMARK  Name = ZINC40308841
REMARK  6 active torsions:
REMARK  status: ('A' for Active; 'I' for Inactive)
REMARK    1  A    between atoms: C_1  and  C_2
REMARK    2  A    between atoms: C_7  and  C_8
REMARK    3  A    between atoms: N_9  and  C_14
REMARK    4  A    between atoms: C_10  and  C_12
REMARK    5  A    between atoms: C_12  and  O_13
REMARK    6  A    between atoms: C_14  and  C_15
REMARK                            x       y       z     vdW  Elec       q    Type
REMARK                         _______ _______ _______ _____ _____    ______ ____
ROOT
ATOM      1  C   UNL     1      -0.066   1.355  -0.912  0.00  0.00    +0.044 C 
ATOM      2  C   UNL     1      -0.034  -0.138  -0.713  0.00  0.00    -0.045 A 
ATOM      3  C   UNL     1      -0.063  -0.967  -1.799  0.00  0.00    +0.033 A 
ATOM      4  C   UNL     1      -0.032  -2.352  -1.619  0.00  0.00    +0.090 A 
ATOM      5  C   UNL     1       0.029  -2.879  -0.318  0.00  0.00    +0.069 A 
ATOM      6  C   UNL     1       0.058  -2.022   0.774  0.00  0.00    +0.031 A 
ATOM      7  C   UNL     1       0.032  -0.658   0.572  0.00  0.00    -0.045 A 
ATOM      8  C   UNL     1       0.069   0.274   1.755  0.00  0.00    +0.044 C 
ATOM      9  N   UNL     1       0.047  -4.252  -0.463  0.00  0.00    -0.321 N 
ATOM     10  C   UNL     1      -0.002  -4.518  -1.796  0.00  0.00    +0.137 A 
ATOM     11  N   UNL     1      -0.048  -3.408  -2.473  0.00  0.00    -0.230 NA
ENDROOT
BRANCH  10  12
ATOM     12  C   UNL     1      -0.003  -5.898  -2.401  0.00  0.00    +0.230 C 
BRANCH  12  13
ATOM     13  O   UNL     1      -1.348  -6.304  -2.661  0.00  0.00    -0.387 OA
ATOM     14  H   UNL     1      -1.430  -7.213  -2.980  0.00  0.00    +0.210 HD
ENDBRANCH  12  13
ENDBRANCH  10  12
BRANCH   9  15
ATOM     15  C   UNL     1       0.107  -5.239   0.618  0.00  0.00    +0.160 C 
BRANCH  15  16
ATOM     16  C   UNL     1       1.536  -5.671   0.824  0.00  0.00    -0.009 A 
ATOM     17  C   UNL     1       2.031  -6.767   0.143  0.00  0.00    +0.008 A 
ATOM     18  C   UNL     1       3.341  -7.165   0.331  0.00  0.00    +0.020 A 
ATOM     19  C   UNL     1       4.158  -6.465   1.202  0.00  0.00    +0.042 A 
ATOM     20  C   UNL     1       3.663  -5.368   1.884  0.00  0.00    +0.040 A 
ATOM     21  C   UNL     1       2.353  -4.968   1.691  0.00  0.00    +0.047 A 
ATOM     22 CL   UNL     1       1.733  -3.587   2.541  0.00  0.00    -0.083 Cl
ATOM     23 CL   UNL     1       5.804  -6.965   1.439  0.00  0.00    -0.083 Cl
ENDBRANCH  15  16
ENDBRANCH   9  15
TORSDOF 4
