REMARK  Name = ZINC58420477
REMARK  8 active torsions:
REMARK  status: ('A' for Active; 'I' for Inactive)
REMARK    1  A    between atoms: C_1  and  C_2
REMARK    2  A    between atoms: C_2  and  C_3
REMARK    3  A    between atoms: C_2  and  C_4
REMARK    4  A    between atoms: C_7  and  O_24
REMARK    5  A    between atoms: C_8  and  C_10
REMARK    6  A    between atoms: C_16  and  N_19
REMARK    7  A    between atoms: N_19  and  S_20
REMARK    8  A    between atoms: S_20  and  C_23
REMARK                            x       y       z     vdW  Elec       q    Type
REMARK                         _______ _______ _______ _____ _____    ______ ____
ROOT
ATOM      1  C   UNL     1      -3.650  -2.660  -2.114  0.00  0.00    +0.250 C 
ATOM      2  O   UNL     1      -4.754  -3.166  -2.052  0.00  0.00    -0.270 OA
ATOM      3  N   UNL     1      -2.861  -2.892  -3.181  0.00  0.00    -0.296 N 
ATOM      4  C   UNL     1      -1.478  -2.399  -3.211  0.00  0.00    +0.108 C 
ATOM      5  C   UNL     1      -0.542  -3.573  -3.516  0.00  0.00    +0.021 C 
ATOM      6  C   UNL     1      -0.993  -4.257  -4.809  0.00  0.00    +0.023 C 
ATOM      7  C   UNL     1      -2.412  -4.803  -4.630  0.00  0.00    +0.093 C 
ATOM      8  C   UNL     1      -3.366  -3.648  -4.335  0.00  0.00    +0.128 C 
ENDROOT
BRANCH   1  13
ATOM      9  C   UNL     1      -2.265   0.302  -0.270  0.00  0.00    -0.044 A 
ATOM     10  C   UNL     1      -2.279  -0.159   1.036  0.00  0.00    +0.007 A 
ATOM     11  C   UNL     1      -2.736  -1.430   1.324  0.00  0.00    +0.046 A 
ATOM     12  C   UNL     1      -3.186  -2.255   0.303  0.00  0.00    +0.129 A 
ATOM     13  C   UNL     1      -3.174  -1.792  -1.020  0.00  0.00    +0.078 A 
ATOM     14  C   UNL     1      -2.713  -0.502  -1.296  0.00  0.00    +0.020 A 
BRANCH   9  16
ATOM     15  C   UNL     1      -2.617   2.714   0.182  0.00  0.00    +0.012 C 
ATOM     16  C   UNL     1      -1.764   1.691  -0.570  0.00  0.00    +0.013 C 
ATOM     17  C   UNL     1      -0.306   1.814  -0.122  0.00  0.00    +0.012 C 
ENDBRANCH   9  16
BRANCH  12  18
ATOM     18  O   UNL     1      -3.635  -3.503   0.584  0.00  0.00    -0.506 OA
ATOM     19  H   UNL     1      -4.583  -3.548   0.770  0.00  0.00    +0.292 HD
ENDBRANCH  12  18
ENDBRANCH   1  13
BRANCH   7  20
ATOM     20  N   UNL     1      -2.831  -5.486  -5.857  0.00  0.00    -0.190 NA
ATOM     21  H   UNL     1      -2.543  -5.152  -6.721  0.00  0.00    +0.148 HD
BRANCH  20  22
ATOM     22  S   UNL     1      -3.795  -6.829  -5.768  0.00  0.00    +0.027 S 
ATOM     23  O   UNL     1      -3.978  -7.234  -7.118  0.00  0.00    -0.158 OA
ATOM     24  O   UNL     1      -3.144  -7.683  -4.838  0.00  0.00    -0.158 OA
ATOM     25  C   UNL     1      -5.363  -6.233  -5.077  0.00  0.00    +0.214 C 
ENDBRANCH  20  22
ENDBRANCH   7  20
TORSDOF 5
