REMARK  Name = ZINC11583336
REMARK  8 active torsions:
REMARK  status: ('A' for Active; 'I' for Inactive)
REMARK    1  A    between atoms: C_1  and  C_2
REMARK    2  A    between atoms: C_2  and  C_3
REMARK    3  A    between atoms: C_7  and  C_33
REMARK    4  A    between atoms: C_8  and  N_9
REMARK    5  A    between atoms: C_13  and  S_15
REMARK    6  A    between atoms: S_15  and  C_16
REMARK    7  A    between atoms: C_16  and  C_17
REMARK    8  A    between atoms: C_21  and  C_30
REMARK                            x       y       z     vdW  Elec       q    Type
REMARK                         _______ _______ _______ _____ _____    ______ ____
ROOT
ATOM      1  C   UNL     1      -6.893   3.173  -3.673  0.00  0.00    +0.172 C 
ENDROOT
BRANCH   1   2
ATOM      2  C   UNL     1      -5.968   4.303  -4.044  0.00  0.00    +0.230 C 
ATOM      3  O   UNL     1      -5.236   4.197  -5.005  0.00  0.00    -0.274 OA
ATOM      4  N   UNL     1      -5.955   5.432  -3.309  0.00  0.00    -0.264 N 
ATOM      5  C   UNL     1      -6.917   5.639  -2.212  0.00  0.00    +0.168 C 
ATOM      6  C   UNL     1      -7.403   7.093  -2.289  0.00  0.00    +0.276 C 
ATOM      7  O   UNL     1      -6.274   7.965  -2.186  0.00  0.00    -0.476 OA
ATOM      8  C   UNL     1      -5.206   7.711  -2.991  0.00  0.00    +0.143 A 
ATOM      9  C   UNL     1      -5.023   6.454  -3.561  0.00  0.00    +0.078 A 
ATOM     10  C   UNL     1      -3.928   6.210  -4.374  0.00  0.00    +0.027 A 
ATOM     11  C   UNL     1      -3.015   7.219  -4.620  0.00  0.00    +0.002 A 
ATOM     12  C   UNL     1      -3.195   8.469  -4.058  0.00  0.00    +0.004 A 
ATOM     13  C   UNL     1      -4.286   8.717  -3.246  0.00  0.00    +0.047 A 
BRANCH   6  14
ATOM     14  C   UNL     1      -8.358   7.367  -1.156  0.00  0.00    +0.253 C 
ATOM     15  O   UNL     1      -8.060   8.164  -0.292  0.00  0.00    -0.272 OA
ATOM     16  N   UNL     1      -9.543   6.727  -1.104  0.00  0.00    -0.326 N 
ATOM     17  H   UNL     1      -9.780   6.090  -1.795  0.00  0.00    +0.145 HD
ATOM     18  H   UNL     1     -10.157   6.903  -0.374  0.00  0.00    +0.145 HD
ENDBRANCH   6  14
ENDBRANCH   1   2
BRANCH   1  19
ATOM     19  S   UNL     1      -6.563   1.745  -4.742  0.00  0.00    -0.088 S 
BRANCH  19  24
ATOM     20  N   UNL     1      -9.975  -2.792  -3.563  0.00  0.00    -0.292 N 
ATOM     21  C   UNL     1      -9.278  -1.593  -3.664  0.00  0.00    +0.187 A 
ATOM     22  N   UNL     1      -9.412  -0.486  -2.960  0.00  0.00    -0.125 NA
ATOM     23  N   UNL     1      -8.605   0.596  -3.225  0.00  0.00    -0.133 NA
ATOM     24  C   UNL     1      -7.709   0.525  -4.191  0.00  0.00    +0.160 A 
ATOM     25  S   UNL     1      -7.961  -1.141  -4.784  0.00  0.00    -0.024 S 
ATOM     26  H   UNL     1      -9.826  -3.496  -4.213  0.00  0.00    +0.154 HD
BRANCH  20  32
ATOM     27  C   UNL     1     -12.229  -3.218  -2.811  0.00  0.00    -0.026 A 
ATOM     28  C   UNL     1     -13.131  -3.406  -1.782  0.00  0.00    +0.005 A 
ATOM     29  C   UNL     1     -12.703  -3.358  -0.468  0.00  0.00    +0.001 A 
ATOM     30  C   UNL     1     -11.371  -3.123  -0.179  0.00  0.00    +0.005 A 
ATOM     31  C   UNL     1     -10.462  -2.941  -1.203  0.00  0.00    -0.029 A 
ATOM     32  C   UNL     1     -10.890  -2.982  -2.525  0.00  0.00    +0.039 A 
ATOM     33  C   UNL     1      -9.010  -2.691  -0.888  0.00  0.00    +0.045 C 
BRANCH  27  35
ATOM     34  C   UNL     1     -12.480  -4.680  -4.798  0.00  0.00    +0.009 C 
ATOM     35  C   UNL     1     -12.696  -3.271  -4.243  0.00  0.00    +0.033 C 
ENDBRANCH  27  35
ENDBRANCH  20  32
ENDBRANCH  19  24
ENDBRANCH   1  19
TORSDOF 6
