REMARK  Name = ZINC55168205
REMARK  12 active torsions:
REMARK  status: ('A' for Active; 'I' for Inactive)
REMARK    1  A    between atoms: C_1  and  C_2
REMARK    2  A    between atoms: C_2  and  C_3
REMARK    3  A    between atoms: C_6  and  C_10
REMARK    4  A    between atoms: C_7  and  C_9
REMARK    5  A    between atoms: C_10  and  N_11
REMARK    6  A    between atoms: N_14  and  C_21
REMARK    7  A    between atoms: C_15  and  C_18
REMARK    8  A    between atoms: C_18  and  C_19
REMARK    9  A    between atoms: C_19  and  O_20
REMARK   10  A    between atoms: C_21  and  C_22
REMARK   11  A    between atoms: C_22  and  C_23
REMARK   12  A    between atoms: C_22  and  C_24
REMARK                            x       y       z     vdW  Elec       q    Type
REMARK                         _______ _______ _______ _____ _____    ______ ____
ROOT
ATOM      1  N   UNL     1       1.752  -0.773   5.586  0.00  0.00    -0.300 NA
ATOM      2  C   UNL     1       3.189  -0.489   5.465  0.00  0.00    +0.066 C 
ATOM      3  C   UNL     1       3.528   0.765   6.274  0.00  0.00    -0.063 C 
ATOM      4  N   UNL     1       3.171   0.550   7.683  0.00  0.00    +0.383 N 
ATOM      5  C   UNL     1       1.729   0.292   7.790  0.00  0.00    -0.052 C 
ATOM      6  C   UNL     1       1.375  -0.966   6.994  0.00  0.00    +0.069 C 
ATOM      7  H   UNL     1       3.682  -0.243   8.042  0.00  0.00    -0.081 HD
ENDROOT
BRANCH   1   8
ATOM      8  C   UNL     1       1.375  -1.939   4.776  0.00  0.00    +0.139 C 
BRANCH   8  12
ATOM      9  C   UNL     1       2.245  -1.504   1.294  0.00  0.00    +0.084 A 
ATOM     10  N   UNL     1       2.466  -1.991   2.484  0.00  0.00    -0.346 N 
ATOM     11  H   UNL     1       0.715  -0.287   0.588  0.00  0.00    +0.167 HD
ATOM     12  C   UNL     1       1.491  -1.593   3.313  0.00  0.00    +0.050 A 
ATOM     13  C   UNL     1       0.633  -0.829   2.611  0.00  0.00    +0.035 A 
ATOM     14  N   UNL     1       1.114  -0.767   1.331  0.00  0.00    -0.347 N 
ATOM     15  C   UNL     1      -0.615  -0.165   3.134  0.00  0.00    +0.065 C 
ATOM     16  H   UNL     1       3.217  -2.554   2.730  0.00  0.00    +0.167 HD
BRANCH   9  18
ATOM     17  C   UNL     1       2.638  -2.969  -0.668  0.00  0.00    +0.012 C 
ATOM     18  C   UNL     1       3.112  -1.722   0.080  0.00  0.00    +0.069 C 
ENDBRANCH   9  18
ENDBRANCH   8  12
ENDBRANCH   1   8
BRANCH   5  19
ATOM     19  C   UNL     1       1.356   0.086   9.260  0.00  0.00    +0.014 C 
BRANCH  19  20
ATOM     20  C   UNL     1      -0.164  -0.036   9.388  0.00  0.00    +0.154 C 
BRANCH  20  21
ATOM     21  O   UNL     1      -0.516  -0.176  10.766  0.00  0.00    -0.395 OA
ATOM     22  H   UNL     1      -1.467  -0.258  10.922  0.00  0.00    +0.209 HD
ENDBRANCH  20  21
ENDBRANCH  19  20
ENDBRANCH   5  19
BRANCH   4  23
ATOM     23  C   UNL     1       3.514   1.746   8.463  0.00  0.00    -0.075 C 
BRANCH  23  24
ATOM     24  C   UNL     1       5.031   1.943   8.456  0.00  0.00    -0.034 C 
ATOM     25  C   UNL     1       5.379   3.255   9.161  0.00  0.00    +0.005 C 
ATOM     26  C   UNL     1       5.699   0.777   9.188  0.00  0.00    +0.005 C 
ENDBRANCH  23  24
ENDBRANCH   4  23
TORSDOF 8
