REMARK  Name = ZINC49765447
REMARK  5 active torsions:
REMARK  status: ('A' for Active; 'I' for Inactive)
REMARK    1  A    between atoms: C_4  and  C_7
REMARK    2  A    between atoms: C_7  and  N_8
REMARK    3  A    between atoms: N_16  and  C_17
REMARK    4  A    between atoms: C_17  and  C_19
REMARK    5  A    between atoms: C_26  and  C_28
REMARK                            x       y       z     vdW  Elec       q    Type
REMARK                         _______ _______ _______ _____ _____    ______ ____
ROOT
ATOM      1  N   UNL     1       3.318   1.266   3.247  0.00  0.00    +0.386 N 
ATOM      2  C   UNL     1       4.705   0.817   3.070  0.00  0.00    -0.072 C 
ATOM      3  C   UNL     1       5.344   0.522   4.430  0.00  0.00    +0.035 C 
ATOM      4  C   UNL     1       4.422  -0.426   5.188  0.00  0.00    +0.024 A 
ATOM      5  C   UNL     1       3.146  -0.569   4.795  0.00  0.00    -0.004 A 
ATOM      6  S   UNL     1       2.486  -1.742   5.942  0.00  0.00    -0.059 S 
ATOM      7  C   UNL     1       3.873  -1.987   6.865  0.00  0.00    +0.163 A 
ATOM      8  N   UNL     1       4.787  -1.174   6.272  0.00  0.00    -0.339 N 
ATOM      9  N   UNL     1       4.036  -2.787   7.921  0.00  0.00    -0.156 NA
ATOM     10  C   UNL     1       2.478   0.123   3.652  0.00  0.00    -0.033 C 
ATOM     11  H   UNL     1       5.692  -1.125   6.617  0.00  0.00    +0.167 HD
ATOM     12  H   UNL     1       3.284   1.978   3.961  0.00  0.00    -0.081 HD
ENDROOT
BRANCH   9  13
ATOM     13  C   UNL     1       5.214  -2.851   8.529  0.00  0.00    +0.243 C 
ATOM     14  O   UNL     1       6.145  -2.182   8.123  0.00  0.00    -0.273 OA
BRANCH  13  15
ATOM     15  C   UNL     1       5.397  -3.754   9.722  0.00  0.00    +0.094 C 
ATOM     16  C   UNL     1       6.837  -3.643  10.229  0.00  0.00    +0.016 C 
ATOM     17  C   UNL     1       7.016  -4.534  11.460  0.00  0.00    +0.020 C 
ATOM     18  C   UNL     1       6.750  -5.993  11.073  0.00  0.00    +0.108 C 
ATOM     19  N   UNL     1       5.422  -6.082  10.451  0.00  0.00    -0.297 N 
ATOM     20  C   UNL     1       5.112  -5.203   9.315  0.00  0.00    +0.121 C 
ATOM     21  C   UNL     1       4.505  -6.954  10.914  0.00  0.00    +0.247 C 
ATOM     22  O   UNL     1       4.795  -7.724  11.808  0.00  0.00    -0.270 OA
BRANCH  21  23
ATOM     23  C   UNL     1       3.146  -6.975  10.333  0.00  0.00    +0.037 A 
ATOM     24  C   UNL     1       2.976  -7.051   8.949  0.00  0.00    +0.014 A 
ATOM     25  C   UNL     1       1.705  -7.070   8.414  0.00  0.00    +0.021 A 
ATOM     26  C   UNL     1       0.599  -7.013   9.245  0.00  0.00    +0.041 A 
ATOM     27  C   UNL     1       0.761  -6.938  10.619  0.00  0.00    +0.021 A 
ATOM     28  C   UNL     1       2.027  -6.924  11.166  0.00  0.00    +0.014 A 
ATOM     29 CL   UNL     1      -0.997  -7.037   8.563  0.00  0.00    -0.084 Cl
ENDBRANCH  21  23
ENDBRANCH  13  15
ENDBRANCH   9  13
BRANCH   1  30
ATOM     30  C   UNL     1       2.816   1.818   1.982  0.00  0.00    -0.043 C 
BRANCH  30  34
ATOM     31  C   UNL     1      -1.089   3.441   2.582  0.00  0.00    +0.000 A 
ATOM     32  C   UNL     1       0.025   4.240   2.757  0.00  0.00    +0.000 A 
ATOM     33  C   UNL     1       1.289   3.714   2.563  0.00  0.00    +0.002 A 
ATOM     34  C   UNL     1       1.438   2.390   2.194  0.00  0.00    -0.064 A 
ATOM     35  C   UNL     1       0.324   1.592   2.020  0.00  0.00    +0.002 A 
ATOM     36  C   UNL     1      -0.940   2.117   2.213  0.00  0.00    +0.000 A 
ENDBRANCH  30  34
ENDBRANCH   1  30
TORSDOF 5
