REMARK  Name = ZINC39126595
REMARK  9 active torsions:
REMARK  status: ('A' for Active; 'I' for Inactive)
REMARK    1  A    between atoms: C_1  and  C_2
REMARK    2  A    between atoms: C_5  and  C_8
REMARK    3  A    between atoms: C_9  and  N_26
REMARK    4  A    between atoms: C_11  and  C_17
REMARK    5  A    between atoms: C_13  and  C_15
REMARK    6  A    between atoms: N_26  and  C_27
REMARK    7  A    between atoms: C_27  and  C_28
REMARK    8  A    between atoms: C_27  and  C_29
REMARK    9  A    between atoms: C_27  and  C_30
REMARK                            x       y       z     vdW  Elec       q    Type
REMARK                         _______ _______ _______ _____ _____    ______ ____
ROOT
ATOM      1  C   UNL     1       0.060  -4.246  -0.021  0.00  0.00    +0.037 C 
ATOM      2  C   UNL     1       1.051  -5.032  -0.483  0.00  0.00    +0.186 C 
ATOM      3  O   UNL     1       0.774  -6.349  -0.371  0.00  0.00    -0.469 OA
ATOM      4  C   UNL     1      -0.291  -6.522   0.583  0.00  0.00    +0.228 C 
ATOM      5  C   UNL     1      -1.032  -5.168   0.496  0.00  0.00    +0.172 C 
ENDROOT
BRANCH   4   6
ATOM      6  C   UNL     1       0.260  -6.743   1.968  0.00  0.00    +0.019 A 
ATOM      7  C   UNL     1      -0.420  -7.413   3.079  0.00  0.00    +0.006 A 
ATOM      8  C   UNL     1      -1.671  -8.014   3.231  0.00  0.00    +0.010 A 
ATOM      9  C   UNL     1      -2.016  -8.568   4.431  0.00  0.00    +0.001 A 
ATOM     10  C   UNL     1      -1.133  -8.538   5.502  0.00  0.00    +0.002 A 
ATOM     11  C   UNL     1       0.106  -7.950   5.374  0.00  0.00    +0.026 A 
ATOM     12  C   UNL     1       0.479  -7.380   4.161  0.00  0.00    +0.047 A 
ATOM     13  N   UNL     1       1.615  -6.735   3.726  0.00  0.00    -0.360 N 
ATOM     14  C   UNL     1       1.469  -6.368   2.416  0.00  0.00    +0.091 A 
ATOM     15  H   UNL     1       2.403  -6.569   4.267  0.00  0.00    +0.165 HD
ENDBRANCH   4   6
BRANCH   1  20
ATOM     16  C   UNL     1      -0.018   1.503   0.010  0.00  0.00    +0.044 C 
ATOM     17  C   UNL     1       0.002  -0.004   0.002  0.00  0.00    -0.050 A 
ATOM     18  C   UNL     1       0.006  -0.686  -1.202  0.00  0.00    +0.004 A 
ATOM     19  C   UNL     1       0.024  -2.065  -1.218  0.00  0.00    +0.008 A 
ATOM     20  C   UNL     1       0.040  -2.774  -0.013  0.00  0.00    -0.016 A 
ATOM     21  C   UNL     1       0.037  -2.078   1.199  0.00  0.00    +0.008 A 
ATOM     22  C   UNL     1       0.023  -0.699   1.199  0.00  0.00    +0.004 A 
ENDBRANCH   1  20
BRANCH   5  23
ATOM     23  C   UNL     1      -2.152  -5.244  -0.457  0.00  0.00    +0.075 C 
ATOM     24  N   UNL     1      -3.016  -5.303  -1.192  0.00  0.00    -0.196 NA
ENDBRANCH   5  23
BRANCH   2  25
ATOM     25  N   UNL     1       2.228  -4.541  -1.016  0.00  0.00    -0.311 N 
ATOM     26  H   UNL     1       2.374  -3.584  -1.072  0.00  0.00    +0.149 HD
BRANCH  25  27
ATOM     27  C   UNL     1       3.257  -5.468  -1.496  0.00  0.00    +0.026 C 
ATOM     28  C   UNL     1       2.679  -6.337  -2.614  0.00  0.00    +0.031 C 
ATOM     29  C   UNL     1       4.449  -4.673  -2.032  0.00  0.00    +0.031 C 
ATOM     30  C   UNL     1       3.717  -6.361  -0.342  0.00  0.00    +0.031 C 
ENDBRANCH  25  27
ENDBRANCH   2  25
TORSDOF 5
