REMARK  Name = ZINC39760558
REMARK  9 active torsions:
REMARK  status: ('A' for Active; 'I' for Inactive)
REMARK    1  A    between atoms: C_1  and  C_2
REMARK    2  A    between atoms: C_4  and  C_9
REMARK    3  A    between atoms: C_5  and  C_8
REMARK    4  A    between atoms: C_9  and  C_10
REMARK    5  A    between atoms: C_10  and  C_11
REMARK    6  A    between atoms: N_13  and  C_14
REMARK    7  A    between atoms: C_14  and  C_15
REMARK    8  A    between atoms: C_15  and  C_17
REMARK    9  A    between atoms: C_15  and  C_24
REMARK                            x       y       z     vdW  Elec       q    Type
REMARK                         _______ _______ _______ _____ _____    ______ ____
ROOT
ATOM      1  C   UNL     1      -6.796   3.897  -2.347  0.00  0.00    +0.069 C 
ENDROOT
BRANCH   1   2
ATOM      2  C   UNL     1      -7.950   4.072  -3.300  0.00  0.00    -0.013 A 
ATOM      3  C   UNL     1      -9.364   4.206  -2.941  0.00  0.00    +0.003 A 
ATOM      4  C   UNL     1     -10.061   4.218  -1.732  0.00  0.00    +0.010 A 
ATOM      5  C   UNL     1     -11.420   4.366  -1.733  0.00  0.00    +0.001 A 
ATOM      6  C   UNL     1     -12.113   4.503  -2.928  0.00  0.00    +0.002 A 
ATOM      7  C   UNL     1     -11.445   4.493  -4.133  0.00  0.00    +0.026 A 
ATOM      8  C   UNL     1     -10.062   4.345  -4.155  0.00  0.00    +0.047 A 
ATOM      9  N   UNL     1      -9.130   4.297  -5.167  0.00  0.00    -0.360 N 
ATOM     10  C   UNL     1      -7.877   4.139  -4.639  0.00  0.00    +0.088 A 
ATOM     11  H   UNL     1      -9.331   4.368  -6.113  0.00  0.00    +0.165 HD
ENDBRANCH   1   2
BRANCH   1  12
ATOM     12  C   UNL     1      -5.829   5.040  -2.514  0.00  0.00    -0.020 A 
ATOM     13  C   UNL     1      -5.227   5.262  -3.739  0.00  0.00    +0.006 A 
ATOM     14  C   UNL     1      -4.339   6.311  -3.892  0.00  0.00    +0.000 A 
ATOM     15  C   UNL     1      -4.054   7.138  -2.822  0.00  0.00    +0.001 A 
ATOM     16  C   UNL     1      -4.655   6.917  -1.598  0.00  0.00    +0.020 A 
ATOM     17  C   UNL     1      -5.548   5.871  -1.445  0.00  0.00    +0.045 A 
ATOM     18 CL   UNL     1      -6.309   5.596   0.091  0.00  0.00    -0.083 Cl
ENDBRANCH   1  12
BRANCH   1  19
ATOM     19  C   UNL     1      -6.083   2.577  -2.647  0.00  0.00    +0.117 C 
BRANCH  19  22
ATOM     20  C   UNL     1      -4.273   1.240  -1.711  0.00  0.00    +0.213 C 
ATOM     21  O   UNL     1      -4.452   0.432  -2.597  0.00  0.00    -0.276 OA
ATOM     22  N   UNL     1      -5.037   2.349  -1.647  0.00  0.00    -0.314 N 
ATOM     23  H   UNL     1      -4.894   2.996  -0.938  0.00  0.00    +0.149 HD
BRANCH  20  24
ATOM     24  C   UNL     1      -3.197   1.006  -0.682  0.00  0.00    +0.100 C 
BRANCH  24  25
ATOM     25  C   UNL     1      -2.483  -0.314  -0.982  0.00  0.00    +0.044 C 
BRANCH  25  28
ATOM     26  C   UNL     1      -0.019   1.526   0.010  0.00  0.00    +0.045 C 
ATOM     27  C   UNL     1       0.002  -0.004   0.002  0.00  0.00    +0.173 C 
ATOM     28  C   UNL     1      -1.407  -0.548   0.046  0.00  0.00    -0.018 C 
ATOM     29  C   UNL     1      -1.526  -1.263   1.145  0.00  0.00    +0.038 C 
ATOM     30  N   UNL     1      -0.345  -1.271   1.865  0.00  0.00    -0.270 N 
ATOM     31  O   UNL     1       0.636  -0.500   1.190  0.00  0.00    -0.267 OA
ATOM     32  C   UNL     1      -2.784  -1.980   1.564  0.00  0.00    +0.065 C 
ATOM     33  H   UNL     1      -0.208  -1.735   2.706  0.00  0.00    +0.194 HD
ENDBRANCH  25  28
ENDBRANCH  24  25
ENDBRANCH  20  24
ENDBRANCH  19  22
ENDBRANCH   1  19
TORSDOF 7
