REMARK  Name = ZINC67164079
REMARK  10 active torsions:
REMARK  status: ('A' for Active; 'I' for Inactive)
REMARK    1  A    between atoms: C_1  and  C_2
REMARK    2  A    between atoms: C_2  and  C_4
REMARK    3  A    between atoms: C_2  and  N_14
REMARK    4  A    between atoms: C_7  and  N_10
REMARK    5  A    between atoms: C_15  and  C_17
REMARK    6  A    between atoms: C_24  and  O_26
REMARK    7  A    between atoms: O_26  and  C_27
REMARK    8  A    between atoms: C_27  and  C_28
REMARK    9  A    between atoms: C_27  and  C_29
REMARK   10  A    between atoms: C_27  and  C_30
REMARK                            x       y       z     vdW  Elec       q    Type
REMARK                         _______ _______ _______ _____ _____    ______ ____
ROOT
ATOM      1  N   UNL     1       0.935  -0.040   1.362  0.00  0.00    -0.307 N 
ATOM      2  C   UNL     1       2.078  -0.730   1.178  0.00  0.00    +0.234 C 
ATOM      3  O   UNL     1       2.490  -0.934   0.056  0.00  0.00    -0.274 OA
ATOM      4  H   UNL     1       0.606   0.124   2.260  0.00  0.00    +0.149 HD
ENDROOT
BRANCH   2   5
ATOM      5  C   UNL     1       2.845  -1.247   2.368  0.00  0.00    +0.165 C 
ATOM      6  C   UNL     1       2.899  -2.777   2.319  0.00  0.00    +0.032 C 
ATOM      7  C   UNL     1       3.794  -3.289   3.449  0.00  0.00    +0.004 C 
ATOM      8  C   UNL     1       5.214  -2.751   3.261  0.00  0.00    +0.019 C 
ATOM      9  C   UNL     1       5.187  -1.220   3.321  0.00  0.00    +0.112 C 
ATOM     10  N   UNL     1       4.217  -0.722   2.336  0.00  0.00    -0.256 N 
ATOM     11  C   UNL     1       4.580   0.195   1.417  0.00  0.00    +0.404 C 
ATOM     12  O   UNL     1       3.795   0.534   0.554  0.00  0.00    -0.226 OA
BRANCH  11  13
ATOM     13  O   UNL     1       5.812   0.737   1.457  0.00  0.00    -0.445 OA
BRANCH  13  14
ATOM     14  C   UNL     1       6.129   1.703   0.453  0.00  0.00    +0.107 C 
ATOM     15  C   UNL     1       5.159   2.881   0.555  0.00  0.00    +0.055 C 
ATOM     16  C   UNL     1       7.561   2.202   0.658  0.00  0.00    +0.055 C 
ATOM     17  C   UNL     1       6.006   1.060  -0.930  0.00  0.00    +0.055 C 
ENDBRANCH  13  14
ENDBRANCH  11  13
ENDBRANCH   2   5
BRANCH   1  19
ATOM     18  C   UNL     1       0.764   1.815  -0.223  0.00  0.00    +0.033 C 
ATOM     19  C   UNL     1       0.190   0.463   0.206  0.00  0.00    +0.100 C 
BRANCH  19  20
ATOM     20  C   UNL     1      -1.262   0.630   0.577  0.00  0.00    -0.027 A 
ATOM     21  C   UNL     1      -1.602   1.136   1.818  0.00  0.00    +0.007 A 
ATOM     22  C   UNL     1      -2.931   1.289   2.162  0.00  0.00    +0.023 A 
ATOM     23  C   UNL     1      -3.925   0.935   1.260  0.00  0.00    +0.035 A 
ATOM     24  C   UNL     1      -3.580   0.426   0.014  0.00  0.00    +0.023 A 
ATOM     25  C   UNL     1      -2.249   0.281  -0.325  0.00  0.00    +0.007 A 
BRANCH  23  26
ATOM     26  N   UNL     1      -5.273   1.089   1.605  0.00  0.00    -0.270 N 
ATOM     27  C   UNL     1      -5.636   2.027   2.501  0.00  0.00    +0.301 C 
ATOM     28  O   UNL     1      -4.808   2.803   2.939  0.00  0.00    -0.253 OA
ATOM     29  N   UNL     1      -6.917   2.107   2.912  0.00  0.00    -0.313 N 
ATOM     30  H   UNL     1      -5.946   0.519   1.199  0.00  0.00    +0.156 HD
ATOM     31  H   UNL     1      -7.578   1.489   2.562  0.00  0.00    +0.146 HD
ATOM     32  H   UNL     1      -7.178   2.783   3.557  0.00  0.00    +0.146 HD
ENDBRANCH  23  26
ENDBRANCH  19  20
ENDBRANCH   1  19
TORSDOF 6
