REMARK  Name = ZINC04727384
REMARK  5 active torsions:
REMARK  status: ('A' for Active; 'I' for Inactive)
REMARK    1  A    between atoms: C_1  and  C_2
REMARK    2  A    between atoms: C_4  and  N_21
REMARK    3  A    between atoms: C_6  and  C_20
REMARK    4  A    between atoms: C_7  and  S_8
REMARK    5  A    between atoms: S_8  and  N_11
REMARK                            x       y       z     vdW  Elec       q    Type
REMARK                         _______ _______ _______ _____ _____    ______ ____
ROOT
ATOM      1  C   UNL     1       4.989   4.003  -0.641  0.00  0.00    +0.046 C 
ATOM      2  C   UNL     1       3.531   4.184  -0.305  0.00  0.00    -0.022 A 
ATOM      3  C   UNL     1       2.934   3.371   0.639  0.00  0.00    +0.033 A 
ATOM      4  C   UNL     1       1.591   3.537   0.948  0.00  0.00    +0.069 A 
ATOM      5  C   UNL     1       0.850   4.517   0.302  0.00  0.00    +0.033 A 
ATOM      6  C   UNL     1       1.453   5.331  -0.637  0.00  0.00    -0.022 A 
ATOM      7  C   UNL     1       2.791   5.163  -0.943  0.00  0.00    +0.115 A 
ATOM      8  C   UNL     1       0.650   6.399  -1.335  0.00  0.00    +0.046 C 
ENDROOT
BRANCH   4   9
ATOM      9  N   UNL     1       0.983   2.713   1.906  0.00  0.00    -0.200 N 
ATOM     10  C   UNL     1      -0.303   2.745   2.317  0.00  0.00    +0.250 A 
ATOM     11  N   UNL     1      -0.446   1.808   3.217  0.00  0.00    -0.116 NA
ATOM     12  N   UNL     1       0.662   1.186   3.404  0.00  0.00    -0.023 NA
ATOM     13  N   UNL     1       1.581   1.676   2.643  0.00  0.00    -0.039 NA
ENDBRANCH   4   9
BRANCH   7  14
ATOM     14  S   UNL     1       3.555   6.198  -2.146  0.00  0.00    +0.075 S 
ATOM     15  O   UNL     1       2.728   7.346  -2.278  0.00  0.00    -0.150 OA
ATOM     16  O   UNL     1       4.929   6.285  -1.794  0.00  0.00    -0.150 OA
BRANCH  14  17
ATOM     17  N   UNL     1       3.488   5.398  -3.594  0.00  0.00    -0.202 N 
ATOM     18  C   UNL     1       4.518   4.485  -4.097  0.00  0.00    +0.136 C 
ATOM     19  C   UNL     1       3.998   4.003  -5.462  0.00  0.00    +0.058 C 
ATOM     20  C   UNL     1       2.673   4.711  -5.634  0.00  0.00    -0.023 A 
ATOM     21  C   UNL     1       2.445   5.499  -4.516  0.00  0.00    +0.054 A 
ATOM     22  C   UNL     1       1.273   6.255  -4.447  0.00  0.00    +0.025 A 
ATOM     23  C   UNL     1       0.359   6.215  -5.478  0.00  0.00    +0.002 A 
ATOM     24  C   UNL     1       0.595   5.426  -6.589  0.00  0.00    +0.000 A 
ATOM     25  C   UNL     1       1.754   4.674  -6.665  0.00  0.00    +0.005 A 
ENDBRANCH  14  17
ENDBRANCH   7  14
TORSDOF 3
