REMARK  Name = ZINC04863657
REMARK  3 active torsions:
REMARK  status: ('A' for Active; 'I' for Inactive)
REMARK    1  A    between atoms: C_4  and  C_7
REMARK    2  A    between atoms: N_11  and  N_12
REMARK    3  A    between atoms: C_13  and  C_15
REMARK                            x       y       z     vdW  Elec       q    Type
REMARK                         _______ _______ _______ _____ _____    ______ ____
ROOT
ATOM      1  N   UNL     1      -4.085   0.083  -1.954  0.00  0.00    -0.204 N 
ATOM      2  C   UNL     1      -4.652  -0.646  -2.936  0.00  0.00    +0.276 C 
ATOM      3  O   UNL     1      -4.029  -0.889  -3.948  0.00  0.00    -0.270 OA
ATOM      4  H   UNL     1      -4.583   0.278  -1.145  0.00  0.00    +0.177 HD
ENDROOT
BRANCH   2   5
ATOM      5  C   UNL     1      -6.060  -1.159  -2.776  0.00  0.00    +0.297 C 
ATOM      6  C   UNL     1      -6.112  -2.181  -1.632  0.00  0.00    +0.283 C 
ATOM      7  O   UNL     1      -7.457  -2.657  -1.516  0.00  0.00    -0.484 OA
ATOM      8  C   UNL     1      -8.083  -3.008  -2.673  0.00  0.00    +0.162 A 
ATOM      9  C   UNL     1      -9.221  -3.798  -2.618  0.00  0.00    +0.049 A 
ATOM     10  C   UNL     1      -9.870  -4.160  -3.784  0.00  0.00    +0.004 A 
ATOM     11  C   UNL     1      -9.386  -3.735  -5.007  0.00  0.00    +0.004 A 
ATOM     12  C   UNL     1      -8.252  -2.948  -5.069  0.00  0.00    +0.049 A 
ATOM     13  C   UNL     1      -7.595  -2.583  -3.903  0.00  0.00    +0.163 A 
ATOM     14  O   UNL     1      -6.476  -1.812  -3.980  0.00  0.00    -0.472 OA
ENDBRANCH   2   5
BRANCH   1  19
ATOM     15  C   UNL     1      -0.722   1.564   1.266  0.00  0.00    +0.020 C 
ATOM     16  C   UNL     1      -0.008   1.077   0.004  0.00  0.00    +0.014 C 
ATOM     17  C   UNL     1      -0.753   1.591  -1.233  0.00  0.00    +0.053 C 
ATOM     18  C   UNL     1      -2.201   1.165  -1.133  0.00  0.00    +0.037 C 
ATOM     19  N   UNL     1      -2.776   0.560  -2.103  0.00  0.00    -0.189 NA
ATOM     20  C   UNL     1      -2.953   1.474   0.143  0.00  0.00    +0.053 C 
ATOM     21  C   UNL     1      -2.128   0.965   1.330  0.00  0.00    +0.014 C 
BRANCH  15  25
ATOM     22  C   UNL     1       1.497   0.351   4.709  0.00  0.00    +0.000 A 
ATOM     23  C   UNL     1       1.272   1.694   4.470  0.00  0.00    +0.000 A 
ATOM     24  C   UNL     1       0.554   2.086   3.356  0.00  0.00    +0.004 A 
ATOM     25  C   UNL     1       0.061   1.136   2.481  0.00  0.00    -0.044 A 
ATOM     26  C   UNL     1       0.282  -0.207   2.723  0.00  0.00    +0.004 A 
ATOM     27  C   UNL     1       1.005  -0.599   3.834  0.00  0.00    +0.000 A 
ENDBRANCH  15  25
ENDBRANCH   1  19
TORSDOF 3
