REMARK  Name = ZINC63258764
REMARK  11 active torsions:
REMARK  status: ('A' for Active; 'I' for Inactive)
REMARK    1  A    between atoms: C_1  and  C_2
REMARK    2  A    between atoms: C_2  and  C_3
REMARK    3  A    between atoms: C_3  and  C_4
REMARK    4  A    between atoms: C_4  and  C_5
REMARK    5  A    between atoms: C_5  and  O_6
REMARK    6  A    between atoms: O_6  and  C_7
REMARK    7  A    between atoms: C_10  and  C_13
REMARK    8  A    between atoms: N_14  and  N_15
REMARK    9  A    between atoms: C_16  and  C_18
REMARK   10  A    between atoms: C_20  and  C_31
REMARK   11  A    between atoms: C_23  and  N_28
REMARK                            x       y       z     vdW  Elec       q    Type
REMARK                         _______ _______ _______ _____ _____    ______ ____
ROOT
ATOM      1  C   UNL     1       5.251 -10.367  -9.361  0.00  0.00    +0.199 C 
ATOM      2  C   UNL     1       6.752 -10.495  -9.223  0.00  0.00    -0.000 C 
ATOM      3  C   UNL     1       7.017 -11.853  -9.254  0.00  0.00    +0.006 A 
ATOM      4  C   UNL     1       8.220 -12.595  -9.169  0.00  0.00    +0.043 A 
ATOM      5  C   UNL     1       8.180 -13.948  -9.228  0.00  0.00    +0.127 A 
ATOM      6  C   UNL     1       6.973 -14.642  -9.371  0.00  0.00    +0.035 A 
ATOM      7  C   UNL     1       5.785 -14.000  -9.459  0.00  0.00    +0.028 A 
ATOM      8  C   UNL     1       5.743 -12.580  -9.405  0.00  0.00    +0.044 A 
ATOM      9  N   UNL     1       4.736 -11.736  -9.468  0.00  0.00    -0.370 N 
ATOM     10  H   UNL     1       3.802 -11.978  -9.568  0.00  0.00    +0.161 HD
ENDROOT
BRANCH   2  11
ATOM     11  C   UNL     1       7.723  -9.407  -9.086  0.00  0.00    -0.019 A 
ATOM     12  C   UNL     1       8.966  -9.643  -8.480  0.00  0.00    +0.008 A 
ATOM     13  C   UNL     1       9.873  -8.613  -8.356  0.00  0.00    +0.001 A 
ATOM     14  C   UNL     1       9.561  -7.349  -8.827  0.00  0.00    +0.000 A 
ATOM     15  C   UNL     1       8.337  -7.107  -9.427  0.00  0.00    +0.001 A 
ATOM     16  C   UNL     1       7.419  -8.125  -9.565  0.00  0.00    +0.008 A 
ENDBRANCH   2  11
BRANCH   1  18
ATOM     17  N   UNL     1       4.560  -8.345  -8.115  0.00  0.00    -0.205 N 
ATOM     18  C   UNL     1       4.674  -9.688  -8.146  0.00  0.00    +0.259 C 
ATOM     19  O   UNL     1       4.312 -10.350  -7.196  0.00  0.00    -0.271 OA
ATOM     20  H   UNL     1       4.905  -7.812  -8.848  0.00  0.00    +0.177 HD
BRANCH  17  22
ATOM     21  C   UNL     1       3.833  -6.427  -6.994  0.00  0.00    +0.138 C 
ATOM     22  N   UNL     1       3.942  -7.720  -7.024  0.00  0.00    -0.188 NA
BRANCH  21  26
ATOM     23  C   UNL     1       1.961  -4.533  -3.687  0.00  0.00    +0.121 A 
ATOM     24  C   UNL     1       2.455  -3.767  -4.736  0.00  0.00    +0.046 A 
ATOM     25  C   UNL     1       3.063  -4.378  -5.811  0.00  0.00    +0.013 A 
ATOM     26  C   UNL     1       3.183  -5.769  -5.845  0.00  0.00    -0.005 A 
ATOM     27  C   UNL     1       2.685  -6.536  -4.788  0.00  0.00    +0.013 A 
ATOM     28  C   UNL     1       2.083  -5.916  -3.715  0.00  0.00    +0.046 A 
BRANCH  23  29
ATOM     29  O   UNL     1       1.363  -3.926  -2.629  0.00  0.00    -0.492 OA
BRANCH  29  30
ATOM     30  C   UNL     1       1.271  -2.501  -2.665  0.00  0.00    +0.229 C 
BRANCH  30  31
ATOM     31  C   UNL     1       0.572  -2.003  -1.398  0.00  0.00    +0.041 C 
BRANCH  31  32
ATOM     32  C   UNL     1       0.474  -0.476  -1.437  0.00  0.00    +0.003 C 
BRANCH  32  34
ATOM     33  C   UNL     1      -0.323   1.548  -0.208  0.00  0.00    +0.004 C 
ATOM     34  C   UNL     1      -0.225   0.022  -0.170  0.00  0.00    -0.003 C 
ENDBRANCH  32  34
ENDBRANCH  31  32
ENDBRANCH  30  31
ENDBRANCH  29  30
ENDBRANCH  23  29
ENDBRANCH  21  26
ENDBRANCH  17  22
ENDBRANCH   1  18
BRANCH   5  35
ATOM     35  N   UNL     1       9.445 -14.713  -9.138  0.00  0.00    +0.056 N 
ATOM     36  O   UNL     1      10.497 -14.129  -9.013  0.00  0.00    -0.126 OA
ATOM     37  O   UNL     1       9.427 -15.921  -9.189  0.00  0.00    -0.126 OA
ENDBRANCH   5  35
TORSDOF 10
