REMARK  Name = ZINC49075456
REMARK  4 active torsions:
REMARK  status: ('A' for Active; 'I' for Inactive)
REMARK    1  A    between atoms: N_4  and  C_6
REMARK    2  A    between atoms: C_6  and  C_7
REMARK    3  A    between atoms: C_7  and  N_8
REMARK    4  A    between atoms: N_8  and  C_9
REMARK                            x       y       z     vdW  Elec       q    Type
REMARK                         _______ _______ _______ _____ _____    ______ ____
ROOT
ATOM      1  C   UNL     1       4.134  -3.668  -2.315  0.00  0.00    -0.034 C 
ATOM      2  C   UNL     1       4.417  -5.172  -2.352  0.00  0.00    +0.030 C 
ATOM      3  C   UNL     1       5.613  -5.414  -3.282  0.00  0.00    +0.228 C 
ATOM      4  O   UNL     1       6.764  -4.796  -2.704  0.00  0.00    -0.490 OA
ATOM      5  C   UNL     1       6.651  -3.509  -2.285  0.00  0.00    +0.140 A 
ATOM      6  C   UNL     1       5.419  -2.916  -2.078  0.00  0.00    -0.017 A 
ATOM      7  C   UNL     1       5.351  -1.602  -1.645  0.00  0.00    +0.025 A 
ATOM      8  C   UNL     1       6.509  -0.880  -1.420  0.00  0.00    +0.043 A 
ATOM      9  C   UNL     1       7.742  -1.471  -1.629  0.00  0.00    +0.043 A 
ATOM     10  C   UNL     1       7.815  -2.779  -2.060  0.00  0.00    +0.084 A 
ATOM     11 CL   UNL     1       9.364  -3.518  -2.322  0.00  0.00    -0.080 Cl
ATOM     12 CL   UNL     1       6.414   0.766  -0.876  0.00  0.00    -0.083 Cl
ENDROOT
BRANCH   1  13
ATOM     13  N   UNL     1       3.189  -3.376  -1.229  0.00  0.00    +0.385 N 
ATOM     14  H   UNL     1       3.069  -2.377  -1.147  0.00  0.00    -0.085 HD
ATOM     15  H   UNL     1       3.549  -3.743  -0.361  0.00  0.00    -0.085 HD
BRANCH  13  16
ATOM     16  C   UNL     1       1.893  -4.002  -1.526  0.00  0.00    -0.058 C 
BRANCH  16  17
ATOM     17  C   UNL     1       0.873  -3.591  -0.462  0.00  0.00    +0.124 C 
BRANCH  17  21
ATOM     18  C   UNL     1      -2.263  -5.368  -0.567  0.00  0.00    +0.041 A 
ATOM     19  C   UNL     1      -2.232  -4.805  -1.847  0.00  0.00    +0.134 A 
ATOM     20  N   UNL     1      -1.127  -4.114  -1.963  0.00  0.00    -0.180 NA
ATOM     21  N   UNL     1      -0.419  -4.215  -0.758  0.00  0.00    -0.273 N 
ATOM     22  C   UNL     1      -1.137  -4.990   0.082  0.00  0.00    +0.108 A 
ENDBRANCH  17  21
ENDBRANCH  16  17
ENDBRANCH  13  16
ENDBRANCH   1  13
TORSDOF 4
