REMARK  Name = ZINC16400098
REMARK  4 active torsions:
REMARK  status: ('A' for Active; 'I' for Inactive)
REMARK    1  A    between atoms: C_6  and  C_7
REMARK    2  A    between atoms: C_7  and  C_17
REMARK    3  A    between atoms: C_8  and  C_9
REMARK    4  A    between atoms: C_12  and  O_16
REMARK                            x       y       z     vdW  Elec       q    Type
REMARK                         _______ _______ _______ _____ _____    ______ ____
ROOT
ATOM      1  C   UNL     1       3.637   1.778  -0.125  0.00  0.00    +0.059 C 
ATOM      2  C   UNL     1       2.500   1.081   0.147  0.00  0.00    +0.027 C 
ENDROOT
BRANCH   1   8
ATOM      3  C   UNL     1       2.912   3.954  -1.100  0.00  0.00    +0.010 A 
ATOM      4  C   UNL     1       2.892   5.334  -1.085  0.00  0.00    +0.020 A 
ATOM      5  C   UNL     1       3.580   6.028  -0.105  0.00  0.00    +0.041 A 
ATOM      6  C   UNL     1       4.287   5.343   0.869  0.00  0.00    +0.020 A 
ATOM      7  C   UNL     1       4.309   3.964   0.867  0.00  0.00    +0.010 A 
ATOM      8  C   UNL     1       3.618   3.259  -0.118  0.00  0.00    -0.008 A 
ATOM      9 CL   UNL     1       3.556   7.764  -0.096  0.00  0.00    -0.084 Cl
ENDBRANCH   1   8
BRANCH   2  10
ATOM     10  C   UNL     1       1.297   1.788   0.601  0.00  0.00    -0.023 A 
ATOM     11  C   UNL     1       0.030   1.358   0.185  0.00  0.00    +0.011 A 
ATOM     12  C   UNL     1      -1.095   2.028   0.610  0.00  0.00    +0.047 A 
ATOM     13  C   UNL     1      -0.977   3.122   1.459  0.00  0.00    +0.131 A 
ATOM     14  C   UNL     1       0.278   3.553   1.876  0.00  0.00    +0.060 A 
ATOM     15  C   UNL     1       1.411   2.894   1.452  0.00  0.00    +0.027 A 
ATOM     16 BR   UNL     1       0.429   5.048   3.025  0.00  0.00    -0.047 Br
BRANCH  13  17
ATOM     17  O   UNL     1      -2.091   3.776   1.879  0.00  0.00    -0.506 OA
ATOM     18  H   UNL     1      -2.364   4.500   1.299  0.00  0.00    +0.292 HD
ENDBRANCH  13  17
ENDBRANCH   2  10
BRANCH   1  19
ATOM     19  C   UNL     1       4.853   1.080  -0.417  0.00  0.00    +0.100 C 
ATOM     20  N   UNL     1       5.817   0.525  -0.650  0.00  0.00    -0.191 NA
ENDBRANCH   1  19
TORSDOF 4
