REMARK  Name = ZINC12558855
REMARK  8 active torsions:
REMARK  status: ('A' for Active; 'I' for Inactive)
REMARK    1  A    between atoms: C_1  and  C_2
REMARK    2  A    between atoms: N_5  and  C_8
REMARK    3  A    between atoms: C_11  and  N_14
REMARK    4  A    between atoms: N_14  and  C_15
REMARK    5  A    between atoms: C_15  and  C_17
REMARK    6  A    between atoms: C_15  and  C_18
REMARK    7  A    between atoms: N_20  and  C_21
REMARK    8  A    between atoms: C_24  and  N_28
REMARK                            x       y       z     vdW  Elec       q    Type
REMARK                         _______ _______ _______ _____ _____    ______ ____
ROOT
ATOM      1  N   UNL     1      -0.883  -8.039   1.698  0.00  0.00    -0.333 N 
ATOM      2  H   UNL     1      -0.481  -8.586   1.005  0.00  0.00    +0.147 HD
ENDROOT
BRANCH   1   6
ATOM      3  C   UNL     1      -0.788  -3.888   1.387  0.00  0.00    +0.014 A 
ATOM      4  C   UNL     1      -0.214  -4.667   0.399  0.00  0.00    +0.023 A 
ATOM      5  C   UNL     1      -0.244  -6.044   0.499  0.00  0.00    +0.025 A 
ATOM      6  C   UNL     1      -0.851  -6.646   1.594  0.00  0.00    +0.028 A 
ATOM      7  C   UNL     1      -1.426  -5.861   2.584  0.00  0.00    +0.025 A 
ATOM      8  C   UNL     1      -1.388  -4.484   2.481  0.00  0.00    +0.023 A 
BRANCH   3  13
ATOM      9  C   UNL     1      -0.091   1.518  -0.036  0.00  0.00    +0.007 C 
ATOM     10  C   UNL     1      -0.060  -0.012  -0.038  0.00  0.00    -0.011 C 
ATOM     11  C   UNL     1      -1.492  -0.553  -0.019  0.00  0.00    +0.020 C 
ATOM     12  C   UNL     1      -1.454  -2.081   0.059  0.00  0.00    +0.085 C 
ATOM     13  N   UNL     1      -0.756  -2.494   1.283  0.00  0.00    -0.393 NA
ATOM     14  C   UNL     1       0.639  -2.040   1.238  0.00  0.00    +0.085 C 
ATOM     15  C   UNL     1       0.681  -0.511   1.206  0.00  0.00    +0.020 C 
ATOM     16  H   UNL     1      -1.216  -2.088   2.084  0.00  0.00    +0.126 HD
ENDBRANCH   3  13
ENDBRANCH   1   6
BRANCH   1  17
ATOM     17  C   UNL     1      -1.524  -8.672   2.853  0.00  0.00    +0.154 C 
ATOM     18  C   UNL     1      -3.026  -8.804   2.595  0.00  0.00    +0.038 C 
BRANCH  17  19
ATOM     19  C   UNL     1      -0.930 -10.041   3.069  0.00  0.00    +0.237 C 
ATOM     20  O   UNL     1      -0.057 -10.446   2.331  0.00  0.00    -0.273 OA
ATOM     21  N   UNL     1      -1.368 -10.813   4.083  0.00  0.00    -0.283 N 
ATOM     22  H   UNL     1      -2.007 -10.459   4.721  0.00  0.00    +0.155 HD
BRANCH  21  23
ATOM     23  C   UNL     1      -0.901 -12.126   4.215  0.00  0.00    +0.052 A 
ATOM     24  C   UNL     1      -0.429 -12.812   3.104  0.00  0.00    +0.027 A 
ATOM     25  C   UNL     1       0.032 -14.107   3.237  0.00  0.00    +0.034 A 
ATOM     26  C   UNL     1       0.023 -14.722   4.476  0.00  0.00    +0.128 A 
ATOM     27  C   UNL     1      -0.446 -14.043   5.585  0.00  0.00    +0.054 A 
ATOM     28  C   UNL     1      -0.904 -12.744   5.459  0.00  0.00    +0.064 A 
ATOM     29 CL   UNL     1      -1.487 -11.890   6.853  0.00  0.00    -0.082 Cl
BRANCH  26  30
ATOM     30  N   UNL     1       0.517 -16.110   4.614  0.00  0.00    +0.056 N 
ATOM     31  O   UNL     1       0.928 -16.705   3.645  0.00  0.00    -0.126 OA
ATOM     32  O   UNL     1       0.510 -16.649   5.697  0.00  0.00    -0.126 OA
ENDBRANCH  26  30
ENDBRANCH  21  23
ENDBRANCH  17  19
ENDBRANCH   1  17
TORSDOF 6
