REMARK  Name = ZINC63525905
REMARK  9 active torsions:
REMARK  status: ('A' for Active; 'I' for Inactive)
REMARK    1  A    between atoms: C_1  and  C_2
REMARK    2  A    between atoms: C_6  and  C_8
REMARK    3  A    between atoms: C_8  and  O_9
REMARK    4  A    between atoms: O_9  and  C_10
REMARK    5  A    between atoms: C_11  and  C_18
REMARK    6  A    between atoms: C_15  and  O_16
REMARK    7  A    between atoms: O_16  and  C_17
REMARK    8  A    between atoms: C_21  and  C_31
REMARK    9  A    between atoms: C_27  and  O_30
REMARK                            x       y       z     vdW  Elec       q    Type
REMARK                         _______ _______ _______ _____ _____    ______ ____
ROOT
ATOM      1  C   UNL     1       1.800  -3.750   3.879  0.00  0.00    +0.167 A 
ATOM      2  C   UNL     1       1.691  -3.080   5.087  0.00  0.00    +0.015 A 
ATOM      3  C   UNL     1       1.710  -3.787   6.275  0.00  0.00    +0.009 A 
ATOM      4  C   UNL     1       1.837  -5.164   6.261  0.00  0.00    +0.004 A 
ATOM      5  C   UNL     1       1.947  -5.839   5.059  0.00  0.00    +0.049 A 
ATOM      6  C   UNL     1       1.923  -5.136   3.865  0.00  0.00    +0.162 A 
ENDROOT
BRANCH   2   7
ATOM      7  C   UNL     1       1.553  -1.579   5.106  0.00  0.00    +0.112 C 
ATOM      8  C   UNL     1       2.903  -0.967   5.018  0.00  0.00    +0.018 C 
ATOM      9  C   UNL     1       4.078  -1.601   5.112  0.00  0.00    +0.065 C 
ATOM     10  N   UNL     1       5.102  -0.727   4.994  0.00  0.00    -0.157 NA
ATOM     11  N   UNL     1       4.757   0.446   4.825  0.00  0.00    -0.156 NA
ATOM     12  C   UNL     1       3.284   0.475   4.808  0.00  0.00    +0.276 C 
ATOM     13  N   UNL     1       2.774   1.357   5.825  0.00  0.00    -0.221 NA
ATOM     14  C   UNL     1       1.704   1.439   6.396  0.00  0.00    +0.195 C 
ATOM     15  C   UNL     1       0.423   0.692   6.445  0.00  0.00    +0.165 C 
ATOM     16  S   UNL     1       0.696  -1.085   6.619  0.00  0.00    -0.139 S 
ATOM     17  C   UNL     1       4.237  -3.085   5.322  0.00  0.00    +0.067 C 
BRANCH  14  18
ATOM     18  O   UNL     1       1.672   2.510   7.216  0.00  0.00    -0.495 OA
ATOM     19  H   UNL     1       2.488   3.029   7.217  0.00  0.00    +0.293 HD
ENDBRANCH  14  18
ENDBRANCH   2   7
BRANCH   6  20
ATOM     20  O   UNL     1       2.025  -5.800   2.682  0.00  0.00    -0.491 OA
ATOM     21  C   UNL     1       2.148  -7.222   2.744  0.00  0.00    +0.277 C 
ENDBRANCH   6  20
BRANCH   1  22
ATOM     22  O   UNL     1       1.782  -3.056   2.710  0.00  0.00    -0.483 OA
BRANCH  22  23
ATOM     23  C   UNL     1       0.506  -2.836   2.106  0.00  0.00    +0.264 C 
BRANCH  23  29
ATOM     24  C   UNL     1       0.775   1.548  -0.292  0.00  0.00    +0.044 C 
ATOM     25  C   UNL     1       0.810   0.041  -0.319  0.00  0.00    -0.050 A 
ATOM     26  C   UNL     1       1.005  -0.625  -1.514  0.00  0.00    +0.003 A 
ATOM     27  C   UNL     1       1.037  -2.006  -1.538  0.00  0.00    +0.001 A 
ATOM     28  C   UNL     1       0.876  -2.722  -0.367  0.00  0.00    +0.007 A 
ATOM     29  C   UNL     1       0.682  -2.056   0.829  0.00  0.00    -0.010 A 
ATOM     30  C   UNL     1       0.654  -0.674   0.854  0.00  0.00    +0.010 A 
ENDBRANCH  23  29
ENDBRANCH  22  23
ENDBRANCH   1  22
TORSDOF 6
