REMARK  Name = ZINC59239829
REMARK  7 active torsions:
REMARK  status: ('A' for Active; 'I' for Inactive)
REMARK    1  A    between atoms: C_1  and  C_2
REMARK    2  A    between atoms: C_4  and  C_22
REMARK    3  A    between atoms: C_7  and  N_8
REMARK    4  A    between atoms: C_9  and  C_11
REMARK    5  A    between atoms: C_13  and  N_18
REMARK    6  A    between atoms: C_22  and  C_24
REMARK    7  A    between atoms: C_22  and  C_26
REMARK                            x       y       z     vdW  Elec       q    Type
REMARK                         _______ _______ _______ _____ _____    ______ ____
ROOT
ATOM      1  C   UNL     1       0.191   0.969   0.177  0.00  0.00    +0.045 C 
ATOM      2  C   UNL     1       0.192  -0.538   0.142  0.00  0.00    -0.029 A 
ATOM      3  C   UNL     1       0.040  -1.201  -1.060  0.00  0.00    +0.011 A 
ATOM      4  C   UNL     1       0.042  -2.583  -1.093  0.00  0.00    -0.008 A 
ATOM      5  C   UNL     1       0.194  -3.307   0.077  0.00  0.00    +0.047 A 
ATOM      6  C   UNL     1       0.346  -2.648   1.283  0.00  0.00    +0.044 A 
ATOM      7  C   UNL     1       0.351  -1.260   1.318  0.00  0.00    +0.038 A 
ATOM      8 CL   UNL     1       0.193  -5.042   0.030  0.00  0.00    -0.083 Cl
ENDROOT
BRANCH   7   9
ATOM      9  N   UNL     1       0.511  -0.590   2.535  0.00  0.00    -0.281 N 
ATOM     10  C   UNL     1       0.137  -1.185   3.686  0.00  0.00    +0.250 C 
ATOM     11  O   UNL     1      -0.262  -2.333   3.674  0.00  0.00    -0.270 OA
ATOM     12  H   UNL     1       0.891   0.302   2.552  0.00  0.00    +0.155 HD
BRANCH  10  13
ATOM     13  C   UNL     1       0.212  -0.442   4.960  0.00  0.00    +0.057 A 
ATOM     14  C   UNL     1       0.665   0.879   4.976  0.00  0.00    +0.047 A 
ATOM     15  C   UNL     1       0.733   1.567   6.169  0.00  0.00    +0.127 A 
ATOM     16  C   UNL     1       0.354   0.952   7.350  0.00  0.00    +0.034 A 
ATOM     17  C   UNL     1      -0.095  -0.355   7.343  0.00  0.00    +0.023 A 
ATOM     18  C   UNL     1      -0.174  -1.055   6.154  0.00  0.00    +0.053 A 
ATOM     19 CL   UNL     1      -0.746  -2.695   6.146  0.00  0.00    -0.083 Cl
BRANCH  15  20
ATOM     20  N   UNL     1       1.213   2.967   6.187  0.00  0.00    +0.056 N 
ATOM     21  O   UNL     1       1.544   3.506   5.157  0.00  0.00    -0.126 OA
ATOM     22  O   UNL     1       1.273   3.572   7.232  0.00  0.00    -0.126 OA
ENDBRANCH  15  20
ENDBRANCH  10  13
ENDBRANCH   7   9
BRANCH   4  23
ATOM     23  C   UNL     1      -0.124  -3.304  -2.406  0.00  0.00    +0.153 C 
BRANCH  23  24
ATOM     24  C   UNL     1       0.988  -2.904  -3.342  0.00  0.00    -0.026 A 
ATOM     25  C   UNL     1       0.995  -1.642  -3.907  0.00  0.00    +0.006 A 
ATOM     26  C   UNL     1       2.014  -1.275  -4.765  0.00  0.00    +0.020 A 
ATOM     27  C   UNL     1       3.027  -2.170  -5.059  0.00  0.00    +0.041 A 
ATOM     28  C   UNL     1       3.019  -3.433  -4.494  0.00  0.00    +0.020 A 
ATOM     29  C   UNL     1       2.002  -3.797  -3.631  0.00  0.00    +0.006 A 
ATOM     30 CL   UNL     1       4.307  -1.710  -6.138  0.00  0.00    -0.084 Cl
ENDBRANCH  23  24
BRANCH  23  31
ATOM     31  C   UNL     1      -1.421  -2.945  -3.003  0.00  0.00    +0.075 C 
ATOM     32  N   UNL     1      -2.422  -2.667  -3.464  0.00  0.00    -0.196 NA
ENDBRANCH  23  31
ENDBRANCH   4  23
TORSDOF 6
