REMARK  Name = ZINC35541710
REMARK  5 active torsions:
REMARK  status: ('A' for Active; 'I' for Inactive)
REMARK    1  A    between atoms: C_1  and  C_2
REMARK    2  A    between atoms: C_2  and  N_3
REMARK    3  A    between atoms: N_3  and  C_4
REMARK    4  A    between atoms: C_4  and  C_6
REMARK    5  A    between atoms: C_4  and  C_12
REMARK                            x       y       z     vdW  Elec       q    Type
REMARK                         _______ _______ _______ _____ _____    ______ ____
ROOT
ATOM      1  C   UNL     1      -1.356  -1.981   0.004  0.00  0.00    -0.002 C 
ENDROOT
BRANCH   1   2
ATOM      2  C   UNL     1      -0.737  -2.482   1.284  0.00  0.00    -0.042 A 
ATOM      3  C   UNL     1      -0.772  -1.699   2.422  0.00  0.00    +0.018 A 
ATOM      4  C   UNL     1      -0.203  -2.159   3.596  0.00  0.00    +0.018 A 
ATOM      5  C   UNL     1       0.401  -3.403   3.631  0.00  0.00    +0.016 A 
ATOM      6  C   UNL     1       0.435  -4.186   2.493  0.00  0.00    +0.016 A 
ATOM      7  C   UNL     1      -0.138  -3.729   1.320  0.00  0.00    +0.020 A 
ATOM      8 BR   UNL     1      -0.097  -4.804  -0.235  0.00  0.00    -0.050 Br
ATOM      9 BR   UNL     1      -0.251  -1.086   5.153  0.00  0.00    -0.050 Br
ENDBRANCH   1   2
BRANCH   1  10
ATOM     10  C   UNL     1      -2.766  -2.502  -0.109  0.00  0.00    -0.019 A 
ATOM     11  C   UNL     1      -3.232  -3.553  -0.827  0.00  0.00    +0.011 A 
ATOM     12  C   UNL     1      -4.581  -3.851  -0.780  0.00  0.00    +0.023 A 
ATOM     13  C   UNL     1      -5.398  -3.083  -0.017  0.00  0.00    +0.055 A 
ATOM     14  S   UNL     1      -4.253  -1.900   0.674  0.00  0.00    -0.088 S 
ATOM     15 BR   UNL     1      -7.264  -3.231   0.252  0.00  0.00    -0.043 Br
ENDBRANCH   1  10
BRANCH   1  16
ATOM     16  N   UNL     1      -1.376  -0.512   0.012  0.00  0.00    +0.386 N 
ATOM     17  H   UNL     1      -1.848  -0.187   0.843  0.00  0.00    -0.085 HD
ATOM     18  H   UNL     1      -1.864  -0.178  -0.805  0.00  0.00    -0.085 HD
BRANCH  16  20
ATOM     19  C   UNL     1      -0.019   1.526   0.010  0.00  0.00    -0.017 C 
ATOM     20  C   UNL     1       0.002  -0.004   0.002  0.00  0.00    -0.085 C 
ENDBRANCH  16  20
ENDBRANCH   1  16
TORSDOF 4
