REMARK  Name = ZINC02074535
REMARK  8 active torsions:
REMARK  status: ('A' for Active; 'I' for Inactive)
REMARK    1  A    between atoms: C_1  and  C_2
REMARK    2  A    between atoms: C_9  and  N_13
REMARK    3  A    between atoms: C_10  and  C_11
REMARK    4  A    between atoms: C_14  and  C_16
REMARK    5  A    between atoms: C_16  and  S_17
REMARK    6  A    between atoms: S_17  and  C_18
REMARK    7  A    between atoms: C_20  and  C_28
REMARK    8  A    between atoms: C_22  and  C_24
REMARK                            x       y       z     vdW  Elec       q    Type
REMARK                         _______ _______ _______ _____ _____    ______ ____
ROOT
ATOM      1  C   UNL     1      -3.502  -1.355   0.029  0.00  0.00    +0.173 C 
ENDROOT
BRANCH   1   3
ATOM      2  N   UNL     1      -1.074  -0.881   0.008  0.00  0.00    -0.278 N 
ATOM      3  C   UNL     1      -2.333  -0.402   0.023  0.00  0.00    +0.228 C 
ATOM      4  O   UNL     1      -2.527   0.795   0.031  0.00  0.00    -0.275 OA
ATOM      5  H   UNL     1      -0.919  -1.839   0.002  0.00  0.00    +0.155 HD
BRANCH   2  13
ATOM      6  C   UNL     1       4.709   4.387  -0.115  0.00  0.00    +0.008 C 
ATOM      7  C   UNL     1       3.892   3.125  -0.398  0.00  0.00    -0.009 C 
ATOM      8  C   UNL     1       4.445   1.960   0.428  0.00  0.00    +0.008 C 
ATOM      9  C   UNL     1       3.804   0.648  -0.030  0.00  0.00    +0.037 C 
ATOM     10  C   UNL     1       2.289   0.811  -0.015  0.00  0.00    -0.018 A 
ATOM     11  C   UNL     1       1.722   2.038  -0.003  0.00  0.00    -0.004 A 
ATOM     12  S   UNL     1      -0.021   1.728   0.011  0.00  0.00    -0.077 S 
ATOM     13  C   UNL     1       0.002  -0.004   0.002  0.00  0.00    +0.090 A 
ATOM     14  C   UNL     1       1.357  -0.302  -0.012  0.00  0.00    +0.084 A 
ATOM     15  C   UNL     1       2.426   3.359  -0.004  0.00  0.00    +0.046 C 
BRANCH  14  16
ATOM     16  C   UNL     1       1.818  -1.657  -0.024  0.00  0.00    +0.102 C 
ATOM     17  N   UNL     1       2.185  -2.733  -0.033  0.00  0.00    -0.191 NA
ENDBRANCH  14  16
ENDBRANCH   2  13
ENDBRANCH   1   3
BRANCH   1  18
ATOM     18  S   UNL     1      -5.047  -0.413   0.049  0.00  0.00    -0.077 S 
BRANCH  18  19
ATOM     19  C   UNL     1      -6.211  -1.736   0.054  0.00  0.00    +0.190 A 
ATOM     20  N   UNL     1      -7.506  -1.457   0.068  0.00  0.00    -0.222 NA
ATOM     21  C   UNL     1      -8.409  -2.433   0.072  0.00  0.00    +0.076 A 
ATOM     22  C   UNL     1      -7.972  -3.761   0.061  0.00  0.00    +0.060 A 
ATOM     23  C   UNL     1      -6.611  -4.007   0.047  0.00  0.00    +0.148 A 
ATOM     24  N   UNL     1      -5.769  -2.986   0.038  0.00  0.00    -0.218 NA
BRANCH  21  25
ATOM     25  C   UNL     1      -9.859  -2.118   0.088  0.00  0.00    +0.000 A 
ATOM     26  C   UNL     1     -10.799  -3.147   0.087  0.00  0.00    +0.010 A 
ATOM     27  C   UNL     1     -12.146  -2.848   0.107  0.00  0.00    +0.001 A 
ATOM     28  C   UNL     1     -12.564  -1.529   0.117  0.00  0.00    +0.000 A 
ATOM     29  C   UNL     1     -11.635  -0.504   0.114  0.00  0.00    +0.001 A 
ATOM     30  C   UNL     1     -10.286  -0.791   0.100  0.00  0.00    +0.010 A 
ENDBRANCH  21  25
BRANCH  23  31
ATOM     31  C   UNL     1      -6.093  -5.422   0.034  0.00  0.00    +0.434 C 
ATOM     32  F   UNL     1      -5.945  -5.853  -1.289  0.00  0.00    -0.164 F 
ATOM     33  F   UNL     1      -4.853  -5.470   0.681  0.00  0.00    -0.164 F 
ATOM     34  F   UNL     1      -6.998  -6.256   0.698  0.00  0.00    -0.164 F 
ENDBRANCH  23  31
ENDBRANCH  18  19
ENDBRANCH   1  18
TORSDOF 7
