REMARK  Name = ZINC40153288
REMARK  9 active torsions:
REMARK  status: ('A' for Active; 'I' for Inactive)
REMARK    1  A    between atoms: C_1  and  C_2
REMARK    2  A    between atoms: N_5  and  S_11
REMARK    3  A    between atoms: C_7  and  C_10
REMARK    4  A    between atoms: S_11  and  C_14
REMARK    5  A    between atoms: C_14  and  C_15
REMARK    6  A    between atoms: C_15  and  N_16
REMARK    7  A    between atoms: N_16  and  C_17
REMARK    8  A    between atoms: C_17  and  C_18
REMARK    9  A    between atoms: C_23  and  C_24
REMARK                            x       y       z     vdW  Elec       q    Type
REMARK                         _______ _______ _______ _____ _____    ______ ____
ROOT
ATOM      1  C   UNL     1       3.885   5.494  -3.962  0.00  0.00    -0.043 C 
ENDROOT
BRANCH   1   2
ATOM      2  C   UNL     1       3.560   6.942  -3.700  0.00  0.00    -0.019 A 
ATOM      3  C   UNL     1       2.553   7.645  -4.263  0.00  0.00    +0.107 A 
ATOM      4  N   UNL     1       2.596   8.902  -3.771  0.00  0.00    -0.284 N 
ATOM      5  H   UNL     1       1.991   9.624  -4.000  0.00  0.00    +0.188 HD
ATOM      6  N   UNL     1       3.668   8.981  -2.872  0.00  0.00    -0.174 NA
ATOM      7  C   UNL     1       4.248   7.801  -2.822  0.00  0.00    +0.094 A 
BRANCH   7   8
ATOM      8  C   UNL     1       5.423   7.440  -1.990  0.00  0.00    +0.006 A 
ATOM      9  C   UNL     1       6.455   6.678  -2.532  0.00  0.00    +0.014 A 
ATOM     10  C   UNL     1       7.545   6.342  -1.757  0.00  0.00    +0.050 A 
ATOM     11  C   UNL     1       7.620   6.762  -0.436  0.00  0.00    +0.162 A 
ATOM     12  C   UNL     1       6.593   7.526   0.110  0.00  0.00    +0.163 A 
ATOM     13  C   UNL     1       5.499   7.868  -0.666  0.00  0.00    +0.059 A 
ATOM     14  O   UNL     1       6.654   7.953   1.401  0.00  0.00    -0.485 OA
ATOM     15  C   UNL     1       7.587   7.285   2.257  0.00  0.00    +0.270 C 
ATOM     16  C   UNL     1       8.924   7.168   1.511  0.00  0.00    +0.270 C 
ATOM     17  O   UNL     1       8.703   6.417   0.313  0.00  0.00    -0.485 OA
ENDBRANCH   7   8
ENDBRANCH   1   2
BRANCH   1  18
ATOM     18  N   UNL     1       3.410   4.675  -2.838  0.00  0.00    +0.383 N 
ATOM     19  H   UNL     1       2.410   4.776  -2.747  0.00  0.00    -0.085 HD
ATOM     20  H   UNL     1       3.858   4.979  -1.987  0.00  0.00    -0.085 HD
BRANCH  18  21
ATOM     21  C   UNL     1       3.739   3.265  -3.087  0.00  0.00    -0.058 C 
BRANCH  21  22
ATOM     22  C   UNL     1       3.245   2.412  -1.917  0.00  0.00    +0.166 C 
BRANCH  22  23
ATOM     23  S   UNL     1       3.651   0.671  -2.224  0.00  0.00    +0.030 S 
ATOM     24  O   UNL     1       5.058   0.481  -2.178  0.00  0.00    -0.158 OA
ATOM     25  O   UNL     1       2.889   0.176  -3.317  0.00  0.00    -0.158 OA
BRANCH  23  29
ATOM     26  C   UNL     1       0.825   1.314   0.372  0.00  0.00    +0.039 C 
ATOM     27  C   UNL     1       1.022  -0.203   0.415  0.00  0.00    +0.131 C 
ATOM     28  C   UNL     1       1.697  -0.668  -0.880  0.00  0.00    +0.140 C 
ATOM     29  N   UNL     1       3.071  -0.141  -0.902  0.00  0.00    -0.176 NA
ATOM     30  C   UNL     1       3.914  -0.357   0.284  0.00  0.00    +0.140 C 
ATOM     31  C   UNL     1       3.131   0.093   1.522  0.00  0.00    +0.131 C 
ATOM     32  O   UNL     1       1.851  -0.545   1.529  0.00  0.00    -0.371 OA
ATOM     33  C   UNL     1       3.903  -0.295   2.785  0.00  0.00    +0.039 C 
ENDBRANCH  23  29
ENDBRANCH  22  23
ENDBRANCH  21  22
ENDBRANCH  18  21
ENDBRANCH   1  18
TORSDOF 7
