REMARK  Name = ZINC21625461
REMARK  10 active torsions:
REMARK  status: ('A' for Active; 'I' for Inactive)
REMARK    1  A    between atoms: C_1  and  C_2
REMARK    2  A    between atoms: C_2  and  C_3
REMARK    3  A    between atoms: C_3  and  N_4
REMARK    4  A    between atoms: C_8  and  S_9
REMARK    5  A    between atoms: S_9  and  C_10
REMARK    6  A    between atoms: C_10  and  C_11
REMARK    7  A    between atoms: C_13  and  O_14
REMARK    8  A    between atoms: C_23  and  O_25
REMARK    9  A    between atoms: O_25  and  C_26
REMARK   10  A    between atoms: C_26  and  C_27
REMARK                            x       y       z     vdW  Elec       q    Type
REMARK                         _______ _______ _______ _____ _____    ______ ____
ROOT
ATOM      1  C   UNL     1       0.533   5.922   0.023  0.00  0.00    -0.020 A 
ATOM      2  C   UNL     1       0.847   6.564  -1.133  0.00  0.00    +0.092 A 
ATOM      3  C   UNL     1       1.309   7.895  -1.093  0.00  0.00    +0.285 A 
ATOM      4  O   UNL     1       1.452   8.558   0.066  0.00  0.00    -0.425 OA
ATOM      5  C   UNL     1       1.158   7.979   1.250  0.00  0.00    +0.141 A 
ATOM      6  C   UNL     1       0.686   6.653   1.283  0.00  0.00    +0.022 A 
ATOM      7  C   UNL     1       0.387   6.046   2.508  0.00  0.00    +0.013 A 
ATOM      8  C   UNL     1       0.544   6.747   3.669  0.00  0.00    +0.024 A 
ATOM      9  C   UNL     1       1.005   8.062   3.642  0.00  0.00    +0.040 A 
ATOM     10  C   UNL     1       1.312   8.677   2.437  0.00  0.00    +0.070 A 
ATOM     11  N   UNL     1       1.160   8.766   4.837  0.00  0.00    -0.251 N 
ATOM     12  C   UNL     1       0.935  10.094   4.871  0.00  0.00    +0.405 C 
ATOM     13  O   UNL     1       0.504  10.663   3.887  0.00  0.00    -0.226 OA
ATOM     14  H   UNL     1       1.466   8.236   5.751  0.00  0.00    +0.158 HD
ENDROOT
BRANCH   3  15
ATOM     15  O   UNL     1       1.586   8.459  -2.136  0.00  0.00    -0.480 OA
ATOM     16  H   UNL     1       1.948   9.497  -2.122  0.00  0.00    +0.295 HD
ENDBRANCH   3  15
BRANCH   1  17
ATOM     17  C   UNL     1       0.037   4.499   0.009  0.00  0.00    +0.113 C 
BRANCH  17  18
ATOM     18  S   UNL     1       1.448   3.366   0.127  0.00  0.00    -0.081 S 
BRANCH  18  23
ATOM     19  N   UNL     1       1.377   0.574   0.163  0.00  0.00    -0.271 N 
ATOM     20  C   UNL     1       0.454  -0.429   0.112  0.00  0.00    +0.345 A 
ATOM     21  N   UNL     1      -0.733   0.116   0.018  0.00  0.00    -0.226 N 
ATOM     22  N   UNL     1      -0.570   1.507   0.009  0.00  0.00    -0.145 NA
ATOM     23  C   UNL     1       0.713   1.765   0.098  0.00  0.00    +0.192 A 
ATOM     24  O   UNL     1       0.718  -1.759   0.151  0.00  0.00    -0.245 OA
ATOM     25  H   UNL     1      -1.740  -0.321  -0.048  0.00  0.00    +0.194 HD
BRANCH  19  26
ATOM     26  C   UNL     1       2.829   0.403   0.270  0.00  0.00    +0.129 C 
BRANCH  26  28
ATOM     27  C   UNL     1       4.952   0.143  -1.020  0.00  0.00    +0.005 C 
ATOM     28  C   UNL     1       3.437   0.322  -1.132  0.00  0.00    +0.018 C 
ENDBRANCH  26  28
ENDBRANCH  19  26
ENDBRANCH  18  23
ENDBRANCH  17  18
ENDBRANCH   1  17
BRANCH  12  29
ATOM     29  O   UNL     1       1.187  10.791   5.995  0.00  0.00    -0.450 OA
BRANCH  29  30
ATOM     30  C   UNL     1       0.921  12.218   5.959  0.00  0.00    +0.230 C 
ATOM     31  C   UNL     1       1.266  12.835   7.316  0.00  0.00    +0.048 C 
ENDBRANCH  29  30
ENDBRANCH  12  29
TORSDOF 8
