REMARK  Name = ZINC04719391
REMARK  6 active torsions:
REMARK  status: ('A' for Active; 'I' for Inactive)
REMARK    1  A    between atoms: C_8  and  C_11
REMARK    2  A    between atoms: N_13  and  C_14
REMARK    3  A    between atoms: C_14  and  C_15
REMARK    4  A    between atoms: C_15  and  C_16
REMARK    5  A    between atoms: C_16  and  N_17
REMARK    6  A    between atoms: C_18  and  C_20
REMARK                            x       y       z     vdW  Elec       q    Type
REMARK                         _______ _______ _______ _____ _____    ______ ____
ROOT
ATOM      1  C   UNL     1      -7.233   1.330   2.338  0.00  0.00    +0.037 C 
ENDROOT
BRANCH   1   2
ATOM      2  C   UNL     1      -6.517   0.837   1.080  0.00  0.00    +0.105 C 
BRANCH   2   5
ATOM      3  C   UNL     1      -4.318   1.035   0.049  0.00  0.00    +0.219 C 
ATOM      4  O   UNL     1      -4.714   0.337  -0.861  0.00  0.00    -0.275 OA
ATOM      5  N   UNL     1      -5.143   1.344   1.069  0.00  0.00    -0.315 N 
ATOM      6  H   UNL     1      -4.826   1.902   1.797  0.00  0.00    +0.149 HD
BRANCH   3  14
ATOM      7  C   UNL     1      -0.013   1.086   0.008  0.00  0.00    +0.007 C 
ATOM      8  C   UNL     1      -0.729   1.579   1.267  0.00  0.00    -0.009 C 
ATOM      9  C   UNL     1      -0.750   3.109   1.275  0.00  0.00    +0.007 C 
ATOM     10  C   UNL     1      -1.490   3.616   0.036  0.00  0.00    -0.009 C 
ATOM     11  C   UNL     1      -0.773   3.123  -1.223  0.00  0.00    +0.007 C 
ATOM     12  C   UNL     1      -0.753   1.593  -1.232  0.00  0.00    -0.009 C 
ATOM     13  C   UNL     1      -2.188   1.063  -1.221  0.00  0.00    +0.019 C 
ATOM     14  C   UNL     1      -2.904   1.556   0.038  0.00  0.00    +0.048 C 
ATOM     15  C   UNL     1      -2.164   1.050   1.278  0.00  0.00    +0.019 C 
ATOM     16  C   UNL     1      -2.925   3.086   0.047  0.00  0.00    +0.019 C 
ENDBRANCH   3  14
ENDBRANCH   2   5
ENDBRANCH   1   2
BRANCH   1  17
ATOM     17  C   UNL     1      -8.668   0.800   2.349  0.00  0.00    +0.105 C 
BRANCH  17  18
ATOM     18  N   UNL     1      -9.354   1.273   3.555  0.00  0.00    -0.315 N 
ATOM     19  C   UNL     1     -10.638   0.929   3.778  0.00  0.00    +0.219 C 
ATOM     20  O   UNL     1     -11.225   0.228   2.982  0.00  0.00    -0.275 OA
ATOM     21  H   UNL     1      -8.884   1.833   4.192  0.00  0.00    +0.149 HD
BRANCH  19  22
ATOM     22  C   UNL     1     -11.343   1.415   5.018  0.00  0.00    +0.048 C 
ATOM     23  C   UNL     1     -10.603   0.908   6.258  0.00  0.00    +0.019 C 
ATOM     24  C   UNL     1     -11.319   1.401   7.517  0.00  0.00    -0.009 C 
ATOM     25  C   UNL     1     -12.755   0.872   7.527  0.00  0.00    +0.007 C 
ATOM     26  C   UNL     1     -13.495   1.379   6.288  0.00  0.00    -0.009 C 
ATOM     27  C   UNL     1     -12.779   0.885   5.029  0.00  0.00    +0.019 C 
ATOM     28  C   UNL     1     -13.515   2.908   6.296  0.00  0.00    +0.007 C 
ATOM     29  C   UNL     1     -12.080   3.438   6.285  0.00  0.00    -0.009 C 
ATOM     30  C   UNL     1     -11.340   2.931   7.525  0.00  0.00    +0.007 C 
ATOM     31  C   UNL     1     -11.364   2.945   5.027  0.00  0.00    +0.019 C 
ENDBRANCH  19  22
ENDBRANCH  17  18
ENDBRANCH   1  17
TORSDOF 6
