REMARK  Name = ZINC01001117
REMARK  6 active torsions:
REMARK  status: ('A' for Active; 'I' for Inactive)
REMARK    1  A    between atoms: C_2  and  C_3
REMARK    2  A    between atoms: C_3  and  N_4
REMARK    3  A    between atoms: C_8  and  C_9
REMARK    4  A    between atoms: C_13  and  O_15
REMARK    5  A    between atoms: O_15  and  C_16
REMARK    6  A    between atoms: C_16  and  C_18
REMARK                            x       y       z     vdW  Elec       q    Type
REMARK                         _______ _______ _______ _____ _____    ______ ____
ROOT
ATOM      1  C   UNL     1      -2.130  -3.213  -5.656  0.00  0.00    -0.020 A 
ATOM      2  C   UNL     1      -1.548  -4.432  -5.292  0.00  0.00    +0.008 A 
ATOM      3  C   UNL     1      -1.342  -5.408  -6.244  0.00  0.00    +0.004 A 
ATOM      4  C   UNL     1      -1.709  -5.186  -7.559  0.00  0.00    +0.046 A 
ATOM      5  C   UNL     1      -2.288  -3.980  -7.932  0.00  0.00    +0.133 A 
ATOM      6  C   UNL     1      -2.506  -2.994  -6.985  0.00  0.00    +0.054 A 
ENDROOT
BRANCH   1  11
ATOM      7  N   UNL     1      -1.439  -1.872  -1.087  0.00  0.00    -0.252 N 
ATOM      8  C   UNL     1      -2.030  -1.466  -2.198  0.00  0.00    +0.259 C 
ATOM      9  O   UNL     1      -2.675  -0.434  -2.240  0.00  0.00    -0.269 OA
ATOM     10  C   UNL     1      -1.868  -2.329  -3.388  0.00  0.00    +0.077 C 
ATOM     11  C   UNL     1      -2.352  -2.169  -4.645  0.00  0.00    +0.028 C 
ATOM     12  S   UNL     1      -0.857  -3.640  -2.714  0.00  0.00    -0.061 S 
ATOM     13  C   UNL     1      -0.721  -3.013  -1.048  0.00  0.00    +0.121 C 
ATOM     14  S   UNL     1       0.116  -3.696   0.280  0.00  0.00    -0.027 S 
BRANCH   7  15
ATOM     15  C   UNL     1      -1.562  -1.062   0.127  0.00  0.00    +0.141 C 
BRANCH  15  17
ATOM     16  C   UNL     1      -0.700   1.215   0.303  0.00  0.00    +0.005 C 
ATOM     17  C   UNL     1      -0.436  -0.062   0.179  0.00  0.00    -0.015 C 
ENDBRANCH  15  17
ENDBRANCH   7  15
ENDBRANCH   1  11
BRANCH   5  18
ATOM     18  O   UNL     1      -2.646  -3.770  -9.226  0.00  0.00    -0.422 OA
BRANCH  18  19
ATOM     19  C   UNL     1      -1.844  -2.999  -9.986  0.00  0.00    +0.344 C 
ATOM     20  O   UNL     1      -0.885  -2.444  -9.489  0.00  0.00    -0.245 OA
BRANCH  19  21
ATOM     21  C   UNL     1      -2.131  -2.829 -11.425  0.00  0.00    +0.059 A 
ATOM     22  C   UNL     1      -3.236  -3.462 -11.999  0.00  0.00    +0.015 A 
ATOM     23  C   UNL     1      -3.499  -3.299 -13.344  0.00  0.00    +0.001 A 
ATOM     24  C   UNL     1      -2.670  -2.511 -14.123  0.00  0.00    +0.000 A 
ATOM     25  C   UNL     1      -1.573  -1.883 -13.561  0.00  0.00    +0.001 A 
ATOM     26  C   UNL     1      -1.302  -2.032 -12.217  0.00  0.00    +0.015 A 
ENDBRANCH  19  21
ENDBRANCH  18  19
ENDBRANCH   5  18
TORSDOF 6
