REMARK  Name = ZINC28712069
REMARK  4 active torsions:
REMARK  status: ('A' for Active; 'I' for Inactive)
REMARK    1  A    between atoms: C_1  and  C_2
REMARK    2  A    between atoms: C_17  and  C_19
REMARK    3  A    between atoms: C_20  and  C_21
REMARK    4  A    between atoms: C_24  and  C_27
REMARK                            x       y       z     vdW  Elec       q    Type
REMARK                         _______ _______ _______ _____ _____    ______ ____
ROOT
ATOM      1  C   UNL     1      -6.293   7.253   1.116  0.00  0.00    -0.021 C 
ATOM      2  C   UNL     1      -6.139   6.298   0.207  0.00  0.00    +0.024 C 
ENDROOT
BRANCH   1  14
ATOM      3  C   UNL     1      -4.854  10.038   1.221  0.00  0.00    +0.052 C 
ATOM      4  C   UNL     1      -6.235  10.070   1.879  0.00  0.00    +0.178 C 
ATOM      5  C   UNL     1      -7.292   9.486   0.928  0.00  0.00    +0.050 C 
ATOM      6  C   UNL     1      -8.492  10.421   1.174  0.00  0.00    +0.105 C 
ATOM      7  C   UNL     1      -9.180  10.098   2.501  0.00  0.00    +0.021 C 
ATOM      8  C   UNL     1      -9.534   8.616   2.588  0.00  0.00    +0.019 C 
ATOM      9  C   UNL     1     -10.257   8.334   3.907  0.00  0.00    +0.163 C 
ATOM     10  O   UNL     1     -10.501   6.931   4.025  0.00  0.00    -0.379 OA
ATOM     11  C   UNL     1      -9.317   6.132   4.042  0.00  0.00    +0.160 C 
ATOM     12  C   UNL     1      -8.553   6.326   2.729  0.00  0.00    +0.032 C 
ATOM     13  C   UNL     1      -8.227   7.811   2.550  0.00  0.00    +0.004 C 
ATOM     14  C   UNL     1      -7.582   8.030   1.181  0.00  0.00    +0.023 C 
ATOM     15  C   UNL     1      -7.750  11.748   1.391  0.00  0.00    +0.311 C 
ATOM     16  O   UNL     1      -8.083  12.839   0.993  0.00  0.00    -0.251 OA
ATOM     17  O   UNL     1      -6.650  11.450   2.120  0.00  0.00    -0.461 OA
ENDBRANCH   1  14
BRANCH   2  18
ATOM     18  C   UNL     1      -4.876   5.537   0.143  0.00  0.00    +0.064 A 
ATOM     19  C   UNL     1      -4.723   4.534  -0.816  0.00  0.00    +0.028 A 
ATOM     20  C   UNL     1      -3.537   3.827  -0.868  0.00  0.00    +0.012 A 
ATOM     21  C   UNL     1      -2.530   4.148   0.049  0.00  0.00    +0.003 A 
ATOM     22  C   UNL     1      -2.757   5.159   0.981  0.00  0.00    +0.120 A 
ATOM     23  N   UNL     1      -3.898   5.814   0.999  0.00  0.00    -0.255 NA
BRANCH  21  24
ATOM     24  C   UNL     1      -1.240   3.417   0.032  0.00  0.00    +0.022 A 
ATOM     25  C   UNL     1      -0.037   4.122   0.025  0.00  0.00    +0.011 A 
ATOM     26  C   UNL     1       1.162   3.438   0.010  0.00  0.00    +0.004 A 
ATOM     27  C   UNL     1       1.173   2.055   0.002  0.00  0.00    +0.041 A 
ATOM     28  C   UNL     1      -0.016   1.347   0.009  0.00  0.00    +0.159 A 
ATOM     29  C   UNL     1      -1.225   2.022   0.019  0.00  0.00    +0.166 A 
ATOM     30  F   UNL     1      -2.387   1.332   0.020  0.00  0.00    -0.202 F 
ATOM     31  F   UNL     1       0.002  -0.004   0.002  0.00  0.00    -0.202 F 
ENDBRANCH  21  24
ENDBRANCH   2  18
TORSDOF 3
