REMARK  Name = ZINC12503334
REMARK  10 active torsions:
REMARK  status: ('A' for Active; 'I' for Inactive)
REMARK    1  A    between atoms: C_1  and  O_2
REMARK    2  A    between atoms: O_2  and  C_3
REMARK    3  A    between atoms: C_6  and  C_9
REMARK    4  A    between atoms: C_9  and  C_10
REMARK    5  A    between atoms: N_12  and  N_13
REMARK    6  A    between atoms: N_13  and  C_14
REMARK    7  A    between atoms: C_14  and  N_16
REMARK    8  A    between atoms: C_17  and  C_19
REMARK    9  A    between atoms: C_19  and  O_20
REMARK   10  A    between atoms: O_20  and  C_21
REMARK                            x       y       z     vdW  Elec       q    Type
REMARK                         _______ _______ _______ _____ _____    ______ ____
ROOT
ATOM      1  C   UNL     1       2.966  11.626   0.030  0.00  0.00    +0.153 C 
ATOM      2  S   UNL     1       1.376  12.260   0.048  0.00  0.00    -0.017 S 
ENDROOT
BRANCH   1   3
ATOM      3  N   UNL     1       3.159  10.292   0.022  0.00  0.00    -0.264 N 
ATOM      4  C   UNL     1       2.100   9.458   0.028  0.00  0.00    +0.256 C 
ATOM      5  O   UNL     1       0.974   9.907   0.041  0.00  0.00    -0.272 OA
ATOM      6  H   UNL     1       4.060   9.932   0.011  0.00  0.00    +0.157 HD
BRANCH   4   7
ATOM      7  C   UNL     1       2.316   7.966   0.019  0.00  0.00    +0.325 C 
BRANCH   7   8
ATOM      8  O   UNL     1       1.051   7.302   0.028  0.00  0.00    -0.482 OA
BRANCH   8   9
ATOM      9  C   UNL     1       1.068   5.943   0.021  0.00  0.00    +0.136 A 
ATOM     10  C   UNL     1       2.293   5.268   0.006  0.00  0.00    +0.047 A 
ATOM     11  C   UNL     1       2.342   3.909  -0.000  0.00  0.00    +0.012 A 
ATOM     12  C   UNL     1       1.148   3.167   0.008  0.00  0.00    -0.017 A 
ATOM     13  C   UNL     1       1.163   1.762   0.000  0.00  0.00    +0.008 A 
ATOM     14  C   UNL     1      -0.013   1.076   0.008  0.00  0.00    +0.001 A 
ATOM     15  C   UNL     1      -1.235   1.746   0.017  0.00  0.00    +0.001 A 
ATOM     16  C   UNL     1      -1.288   3.106   0.030  0.00  0.00    +0.010 A 
ATOM     17  C   UNL     1      -0.095   3.849   0.023  0.00  0.00    -0.000 A 
ATOM     18  C   UNL     1      -0.112   5.254   0.029  0.00  0.00    +0.067 A 
ATOM     19 BR   UNL     1      -1.757   6.185   0.049  0.00  0.00    -0.046 Br
ENDBRANCH   8   9
ENDBRANCH   7   8
ENDBRANCH   4   7
ENDBRANCH   1   3
BRANCH   1  20
ATOM     20  N   UNL     1       4.024  12.460   0.024  0.00  0.00    -0.246 N 
ATOM     21  H   UNL     1       3.885  13.420   0.029  0.00  0.00    +0.172 HD
BRANCH  20  24
ATOM     22  C   UNL     1       6.384  12.775   0.003  0.00  0.00    +0.233 C 
ATOM     23  O   UNL     1       6.210  13.975   0.010  0.00  0.00    -0.274 OA
ATOM     24  N   UNL     1       5.325  11.941   0.009  0.00  0.00    -0.235 N 
ATOM     25  H   UNL     1       5.464  10.981   0.003  0.00  0.00    +0.173 HD
BRANCH  22  26
ATOM     26  C   UNL     1       7.783  12.216  -0.013  0.00  0.00    +0.132 C 
BRANCH  26  30
ATOM     27  C   UNL     1      10.600  15.431  -0.025  0.00  0.00    +0.120 A 
ATOM     28  C   UNL     1      10.153  14.902   1.177  0.00  0.00    +0.046 A 
ATOM     29  C   UNL     1       9.243  13.863   1.179  0.00  0.00    +0.007 A 
ATOM     30  C   UNL     1       8.777  13.350  -0.018  0.00  0.00    -0.038 A 
ATOM     31  C   UNL     1       9.224  13.871  -1.218  0.00  0.00    +0.007 A 
ATOM     32  C   UNL     1      10.130  14.914  -1.224  0.00  0.00    +0.046 A 
BRANCH  27  34
ATOM     33  C   UNL     1      11.911  16.947  -1.304  0.00  0.00    +0.277 C 
ATOM     34  O   UNL     1      11.495  16.453  -0.029  0.00  0.00    -0.495 OA
ENDBRANCH  27  34
ENDBRANCH  26  30
ENDBRANCH  22  26
ENDBRANCH  20  24
ENDBRANCH   1  20
TORSDOF 9
