REMARK  Name = ZINC09292483
REMARK  7 active torsions:
REMARK  status: ('A' for Active; 'I' for Inactive)
REMARK    1  A    between atoms: C_4  and  C_7
REMARK    2  A    between atoms: C_7  and  O_8
REMARK    3  A    between atoms: O_8  and  C_9
REMARK    4  A    between atoms: C_12  and  C_15
REMARK    5  A    between atoms: C_22  and  N_35
REMARK    6  A    between atoms: C_23  and  C_33
REMARK    7  A    between atoms: C_24  and  C_26
REMARK                            x       y       z     vdW  Elec       q    Type
REMARK                         _______ _______ _______ _____ _____    ______ ____
ROOT
ATOM      1  C   UNL     1       9.322  -4.041   2.135  0.00  0.00    +0.100 A 
ATOM      2  C   UNL     1      10.188  -3.503   3.091  0.00  0.00    +0.054 A 
ATOM      3  C   UNL     1      11.337  -4.239   3.082  0.00  0.00    +0.223 A 
ATOM      4  N   UNL     1      11.197  -5.208   2.154  0.00  0.00    -0.246 N 
ATOM      5  H   UNL     1      11.856  -5.883   1.930  0.00  0.00    +0.192 HD
ATOM      6  N   UNL     1       9.926  -5.071   1.574  0.00  0.00    -0.171 NA
ATOM      7  O   UNL     1      12.386  -3.969   3.899  0.00  0.00    -0.423 OA
ATOM      8  C   UNL     1      12.390  -2.783   4.540  0.00  0.00    +0.200 C 
ATOM      9  C   UNL     1      11.312  -1.973   4.628  0.00  0.00    +0.098 C 
ATOM     10  C   UNL     1       9.982  -2.327   4.011  0.00  0.00    +0.103 C 
ENDROOT
BRANCH  10  11
ATOM     11  C   UNL     1       9.000  -2.695   5.093  0.00  0.00    -0.016 A 
ATOM     12  C   UNL     1       9.216  -3.819   5.869  0.00  0.00    +0.006 A 
ATOM     13  C   UNL     1       8.316  -4.156   6.862  0.00  0.00    +0.000 A 
ATOM     14  C   UNL     1       7.200  -3.371   7.081  0.00  0.00    +0.001 A 
ATOM     15  C   UNL     1       6.983  -2.247   6.306  0.00  0.00    +0.020 A 
ATOM     16  C   UNL     1       7.886  -1.905   5.315  0.00  0.00    +0.045 A 
ATOM     17 CL   UNL     1       7.618  -0.491   4.346  0.00  0.00    -0.083 Cl
ENDBRANCH  10  11
BRANCH   1  21
ATOM     18  C   UNL     1       5.419  -2.621   1.213  0.00  0.00    +0.121 A 
ATOM     19  C   UNL     1       5.652  -3.985   1.324  0.00  0.00    +0.046 A 
ATOM     20  C   UNL     1       6.916  -4.449   1.623  0.00  0.00    +0.013 A 
ATOM     21  C   UNL     1       7.960  -3.546   1.813  0.00  0.00    +0.003 A 
ATOM     22  C   UNL     1       7.724  -2.177   1.700  0.00  0.00    +0.013 A 
ATOM     23  C   UNL     1       6.459  -1.720   1.397  0.00  0.00    +0.046 A 
BRANCH  18  24
ATOM     24  O   UNL     1       4.173  -2.167   0.918  0.00  0.00    -0.487 OA
BRANCH  24  25
ATOM     25  C   UNL     1       3.150  -3.150   0.742  0.00  0.00    +0.264 C 
BRANCH  25  29
ATOM     26  C   UNL     1      -0.548  -1.211  -0.160  0.00  0.00    +0.000 A 
ATOM     27  C   UNL     1       0.306  -1.580  -1.182  0.00  0.00    +0.000 A 
ATOM     28  C   UNL     1       1.503  -2.208  -0.890  0.00  0.00    +0.007 A 
ATOM     29  C   UNL     1       1.845  -2.465   0.424  0.00  0.00    -0.010 A 
ATOM     30  C   UNL     1       0.992  -2.095   1.446  0.00  0.00    +0.007 A 
ATOM     31  C   UNL     1      -0.206  -1.469   1.154  0.00  0.00    +0.000 A 
ENDBRANCH  25  29
ENDBRANCH  24  25
ENDBRANCH  18  24
ENDBRANCH   1  21
BRANCH   8  32
ATOM     32  N   UNL     1      13.556  -2.375   5.138  0.00  0.00    -0.328 N 
ATOM     33  H   UNL     1      14.346  -2.935   5.092  0.00  0.00    +0.145 HD
ATOM     34  H   UNL     1      13.589  -1.526   5.607  0.00  0.00    +0.145 HD
ENDBRANCH   8  32
BRANCH   9  35
ATOM     35  C   UNL     1      11.436  -0.733   5.333  0.00  0.00    +0.101 C 
ATOM     36  N   UNL     1      11.535   0.251   5.893  0.00  0.00    -0.191 NA
ENDBRANCH   9  35
TORSDOF 7
