REMARK  Name = ZINC16154559
REMARK  5 active torsions:
REMARK  status: ('A' for Active; 'I' for Inactive)
REMARK    1  A    between atoms: C_3  and  S_8
REMARK    2  A    between atoms: S_8  and  N_11
REMARK    3  A    between atoms: N_11  and  N_12
REMARK    4  A    between atoms: C_13  and  C_15
REMARK    5  A    between atoms: C_15  and  C_16
REMARK                            x       y       z     vdW  Elec       q    Type
REMARK                         _______ _______ _______ _____ _____    ______ ____
ROOT
ATOM      1  N   UNL     1       4.553   1.459   2.397  0.00  0.00    -0.232 N 
ATOM      2  C   UNL     1       5.724   1.343   3.053  0.00  0.00    +0.228 C 
ATOM      3  O   UNL     1       6.583   2.188   2.916  0.00  0.00    -0.274 OA
ATOM      4  H   UNL     1       3.866   0.783   2.507  0.00  0.00    +0.171 HD
ENDROOT
BRANCH   1   5
ATOM      5  N   UNL     1       4.326   2.557   1.556  0.00  0.00    -0.108 NA
ATOM      6  H   UNL     1       4.425   3.459   1.900  0.00  0.00    +0.172 HD
BRANCH   5   7
ATOM      7  S   UNL     1       3.891   2.315  -0.023  0.00  0.00    +0.074 S 
ATOM      8  O   UNL     1       4.872   1.456  -0.588  0.00  0.00    -0.152 OA
ATOM      9  O   UNL     1       3.597   3.595  -0.564  0.00  0.00    -0.152 OA
BRANCH   7  12
ATOM     10  C   UNL     1      -0.017   1.380   0.010  0.00  0.00    +0.040 A 
ATOM     11  C   UNL     1       1.171   2.087   0.002  0.00  0.00    +0.031 A 
ATOM     12  C   UNL     1       2.377   1.412  -0.013  0.00  0.00    +0.107 A 
ATOM     13  C   UNL     1       2.397   0.030  -0.021  0.00  0.00    +0.031 A 
ATOM     14  C   UNL     1       1.211  -0.679  -0.014  0.00  0.00    +0.040 A 
ATOM     15  C   UNL     1       0.002  -0.004   0.002  0.00  0.00    +0.124 A 
ATOM     16  F   UNL     1      -1.158  -0.696   0.009  0.00  0.00    -0.205 F 
ENDBRANCH   7  12
ENDBRANCH   5   7
ENDBRANCH   1   5
BRANCH   2  17
ATOM     17  C   UNL     1       5.968   0.162   3.957  0.00  0.00    +0.104 C 
BRANCH  17  18
ATOM     18  C   UNL     1       7.364   0.271   4.574  0.00  0.00    -0.020 C 
ATOM     19  C   UNL     1       8.413   0.286   3.461  0.00  0.00    +0.011 C 
ATOM     20  C   UNL     1       9.809   0.396   4.078  0.00  0.00    -0.010 C 
ATOM     21  C   UNL     1      10.056  -0.803   4.996  0.00  0.00    +0.007 C 
ATOM     22  C   UNL     1       9.006  -0.818   6.109  0.00  0.00    -0.010 C 
ATOM     23  C   UNL     1       7.611  -0.928   5.492  0.00  0.00    +0.011 C 
ATOM     24  C   UNL     1       9.105   0.475   6.921  0.00  0.00    +0.007 C 
ATOM     25  C   UNL     1       8.858   1.673   6.003  0.00  0.00    -0.010 C 
ATOM     26  C   UNL     1       9.908   1.688   4.890  0.00  0.00    +0.007 C 
ATOM     27  C   UNL     1       7.462   1.564   5.386  0.00  0.00    +0.011 C 
ENDBRANCH  17  18
ENDBRANCH   2  17
TORSDOF 5
