REMARK  Name = ZINC39215050
REMARK  5 active torsions:
REMARK  status: ('A' for Active; 'I' for Inactive)
REMARK    1  A    between atoms: C_10  and  C_11
REMARK    2  A    between atoms: C_11  and  N_12
REMARK    3  A    between atoms: N_22  and  N_23
REMARK    4  A    between atoms: N_23  and  C_24
REMARK    5  A    between atoms: C_24  and  N_26
REMARK                            x       y       z     vdW  Elec       q    Type
REMARK                         _______ _______ _______ _____ _____    ______ ____
ROOT
ATOM      1  C   UNL     1      -0.019   1.397   0.017  0.00  0.00    +0.004 A 
ATOM      2  C   UNL     1       1.108   2.140   0.008  0.00  0.00    +0.026 A 
ATOM      3  C   UNL     1       2.384   1.514  -0.009  0.00  0.00    +0.043 A 
ATOM      4  N   UNL     1       3.601   2.011   0.007  0.00  0.00    -0.372 N 
ATOM      5  C   UNL     1       4.548   0.911  -0.129  0.00  0.00    +0.152 C 
ATOM      6  C   UNL     1       3.715  -0.356  -0.006  0.00  0.00    -0.033 C 
ATOM      7  C   UNL     1       2.433   0.031  -0.006  0.00  0.00    -0.000 A 
ATOM      8  C   UNL     1       1.159  -0.700  -0.001  0.00  0.00    +0.011 A 
ATOM      9  C   UNL     1      -0.000  -0.004   0.010  0.00  0.00    -0.063 A 
ATOM     10  C   UNL     1       4.337  -1.715   0.184  0.00  0.00    +0.034 C 
ATOM     11  C   UNL     1       5.283  -1.613   1.391  0.00  0.00    +0.010 C 
ATOM     12  C   UNL     1       6.275  -0.466   1.202  0.00  0.00    +0.055 C 
ATOM     13  C   UNL     1       5.551   0.856   1.003  0.00  0.00    +0.063 C 
ATOM     14  N   UNL     1       5.768   1.867   1.758  0.00  0.00    -0.188 NA
ATOM     15  H   UNL     1       3.830   2.950   0.095  0.00  0.00    +0.161 HD
ENDROOT
BRANCH  14  16
ATOM     16  N   UNL     1       6.624   1.747   2.861  0.00  0.00    -0.219 N 
ATOM     17  H   UNL     1       7.110   0.921   3.010  0.00  0.00    +0.176 HD
BRANCH  16  18
ATOM     18  C   UNL     1       6.772   2.779   3.714  0.00  0.00    +0.147 C 
ATOM     19  S   UNL     1       7.819   2.632   5.061  0.00  0.00    -0.017 S 
BRANCH  18  20
ATOM     20  N   UNL     1       6.097   3.927   3.507  0.00  0.00    -0.339 N 
ATOM     21  H   UNL     1       5.505   4.010   2.744  0.00  0.00    +0.144 HD
ATOM     22  H   UNL     1       6.204   4.670   4.121  0.00  0.00    +0.144 HD
ENDBRANCH  18  20
ENDBRANCH  16  18
ENDBRANCH  14  16
BRANCH   9  23
ATOM     23  C   UNL     1      -1.307  -0.755   0.014  0.00  0.00    -0.043 C 
BRANCH  23  24
ATOM     24  N   UNL     1      -1.740  -0.992  -1.370  0.00  0.00    +0.382 N 
ATOM     25  C   UNL     1      -2.023   0.293  -2.019  0.00  0.00    -0.078 C 
ATOM     26  C   UNL     1      -2.396   0.057  -3.485  0.00  0.00    -0.019 C 
ATOM     27  C   UNL     1      -3.639  -0.836  -3.552  0.00  0.00    -0.004 C 
ATOM     28  C   UNL     1      -3.356  -2.144  -2.807  0.00  0.00    -0.019 C 
ATOM     29  C   UNL     1      -2.948  -1.826  -1.367  0.00  0.00    -0.078 C 
ATOM     30  H   UNL     1      -1.006  -1.467  -1.874  0.00  0.00    -0.081 HD
ENDBRANCH  23  24
ENDBRANCH   9  23
TORSDOF 5
