REMARK  Name = ZINC06275294
REMARK  9 active torsions:
REMARK  status: ('A' for Active; 'I' for Inactive)
REMARK    1  A    between atoms: C_1  and  O_2
REMARK    2  A    between atoms: O_2  and  C_3
REMARK    3  A    between atoms: C_8  and  C_9
REMARK    4  A    between atoms: C_10  and  C_11
REMARK    5  A    between atoms: N_13  and  C_14
REMARK    6  A    between atoms: C_14  and  N_16
REMARK    7  A    between atoms: N_16  and  C_17
REMARK    8  A    between atoms: C_20  and  N_24
REMARK    9  A    between atoms: C_22  and  O_23
REMARK                            x       y       z     vdW  Elec       q    Type
REMARK                         _______ _______ _______ _____ _____    ______ ____
ROOT
ATOM      1  C   UNL     1      -2.396   1.385  -0.081  0.00  0.00    +0.141 C 
ATOM      2  S   UNL     1      -2.381  -0.327  -0.090  0.00  0.00    -0.018 S 
ENDROOT
BRANCH   1   5
ATOM      3  C   UNL     1      -4.722   1.366  -0.273  0.00  0.00    +0.242 C 
ATOM      4  O   UNL     1      -4.711   0.149  -0.280  0.00  0.00    -0.270 OA
ATOM      5  N   UNL     1      -3.565   2.050  -0.173  0.00  0.00    -0.264 N 
ATOM      6  H   UNL     1      -3.573   3.020  -0.168  0.00  0.00    +0.157 HD
BRANCH   3   8
ATOM      7  C   UNL     1      -7.149   1.401  -0.474  0.00  0.00    +0.016 C 
ATOM      8  C   UNL     1      -5.989   2.086  -0.373  0.00  0.00    +0.068 C 
BRANCH   7  14
ATOM      9  C   UNL     1      -9.632   1.418  -0.684  0.00  0.00    +0.127 A 
ATOM     10  C   UNL     1     -10.828   2.112  -0.774  0.00  0.00    +0.046 A 
ATOM     11  C   UNL     1     -10.830   3.494  -0.765  0.00  0.00    +0.004 A 
ATOM     12  C   UNL     1      -9.640   4.197  -0.662  0.00  0.00    +0.001 A 
ATOM     13  C   UNL     1      -8.441   3.525  -0.567  0.00  0.00    +0.011 A 
ATOM     14  C   UNL     1      -8.424   2.126  -0.574  0.00  0.00    +0.017 A 
BRANCH   9  16
ATOM     15  C   UNL     1     -10.895  -0.590  -0.813  0.00  0.00    +0.277 C 
ATOM     16  O   UNL     1      -9.628   0.061  -0.698  0.00  0.00    -0.495 OA
ENDBRANCH   9  16
ENDBRANCH   7  14
ENDBRANCH   3   8
ENDBRANCH   1   5
BRANCH   1  17
ATOM     17  N   UNL     1      -1.238   2.069   0.019  0.00  0.00    -0.294 N 
ATOM     18  H   UNL     1      -1.251   3.035   0.104  0.00  0.00    +0.154 HD
BRANCH  17  19
ATOM     19  C   UNL     1      -0.016   1.384  -0.000  0.00  0.00    +0.075 A 
ATOM     20  C   UNL     1       0.199   0.372  -0.925  0.00  0.00    +0.029 A 
ATOM     21  C   UNL     1       1.408  -0.298  -0.946  0.00  0.00    +0.035 A 
ATOM     22  C   UNL     1       2.404   0.037  -0.047  0.00  0.00    +0.130 A 
ATOM     23  C   UNL     1       2.196   1.044   0.877  0.00  0.00    +0.080 A 
ATOM     24  C   UNL     1       0.987   1.721   0.905  0.00  0.00    +0.140 A 
BRANCH  22  25
ATOM     25  N   UNL     1       3.696  -0.684  -0.075  0.00  0.00    +0.057 N 
ATOM     26  O   UNL     1       3.881  -1.572  -0.888  0.00  0.00    -0.126 OA
ATOM     27  O   UNL     1       4.574  -0.391   0.716  0.00  0.00    -0.126 OA
ENDBRANCH  22  25
BRANCH  24  28
ATOM     28  O   UNL     1       0.782   2.711   1.814  0.00  0.00    -0.505 OA
ATOM     29  H   UNL     1       0.404   2.406   2.650  0.00  0.00    +0.292 HD
ENDBRANCH  24  28
ENDBRANCH  17  19
ENDBRANCH   1  17
TORSDOF 8
