REMARK  Name = ZINC35374666
REMARK  9 active torsions:
REMARK  status: ('A' for Active; 'I' for Inactive)
REMARK    1  A    between atoms: C_1  and  C_2
REMARK    2  A    between atoms: C_2  and  C_3
REMARK    3  A    between atoms: C_3  and  C_5
REMARK    4  A    between atoms: C_3  and  C_6
REMARK    5  A    between atoms: C_6  and  N_7
REMARK    6  A    between atoms: C_8  and  C_10
REMARK    7  A    between atoms: C_21  and  C_23
REMARK    8  A    between atoms: C_23  and  C_24
REMARK    9  A    between atoms: C_23  and  C_30
REMARK                            x       y       z     vdW  Elec       q    Type
REMARK                         _______ _______ _______ _____ _____    ______ ____
ROOT
ATOM      1  C   UNL     1       0.401  -4.740   3.457  0.00  0.00    +0.028 C 
ATOM      2  C   UNL     1       1.497  -3.652   3.244  0.00  0.00    +0.061 C 
ATOM      3  S   UNL     1       2.854  -4.397   4.251  0.00  0.00    -0.174 S 
ATOM      4  C   UNL     1       2.244  -6.128   4.276  0.00  0.00    -0.016 C 
ATOM      5  N   UNL     1       1.042  -6.069   3.420  0.00  0.00    +0.397 N 
ATOM      6  C   UNL     1       3.293  -7.053   3.679  0.00  0.00    +0.017 C 
ATOM      7  C   UNL     1       2.765  -8.492   3.677  0.00  0.00    +0.107 C 
ATOM      8  N   UNL     1       2.326  -8.835   5.037  0.00  0.00    -0.301 N 
ATOM      9  C   UNL     1       1.350  -7.965   5.707  0.00  0.00    +0.107 C 
ATOM     10  C   UNL     1       1.885  -6.528   5.699  0.00  0.00    +0.017 C 
ATOM     11  C   UNL     1       2.810  -9.929   5.659  0.00  0.00    +0.227 C 
ATOM     12  O   UNL     1       3.567 -10.674   5.073  0.00  0.00    -0.275 OA
ATOM     13  H   UNL     1       0.380  -6.762   3.738  0.00  0.00    -0.083 HD
ATOM     14  H   UNL     1       1.304  -6.281   2.468  0.00  0.00    -0.083 HD
ENDROOT
BRANCH   1  16
ATOM     15  N   UNL     1      -1.345  -3.512   2.207  0.00  0.00    -0.316 N 
ATOM     16  C   UNL     1      -0.628  -4.643   2.360  0.00  0.00    +0.200 C 
ATOM     17  O   UNL     1      -0.810  -5.582   1.614  0.00  0.00    -0.278 OA
ATOM     18  H   UNL     1      -1.200  -2.761   2.803  0.00  0.00    +0.149 HD
BRANCH  15  19
ATOM     19  C   UNL     1      -2.345  -3.417   1.141  0.00  0.00    +0.107 C 
BRANCH  19  20
ATOM     20  C   UNL     1      -3.012  -2.041   1.187  0.00  0.00    +0.003 C 
ATOM     21  C   UNL     1      -3.798  -1.899   2.492  0.00  0.00    +0.009 C 
BRANCH  20  23
ATOM     22  C   UNL     1      -4.538  -0.477  -0.025  0.00  0.00    +0.004 C 
ATOM     23  C   UNL     1      -3.966  -1.896  -0.001  0.00  0.00    +0.001 C 
ENDBRANCH  20  23
ENDBRANCH  19  20
ENDBRANCH  15  19
ENDBRANCH   1  16
BRANCH  11  24
ATOM     24  C   UNL     1       2.410 -10.226   7.081  0.00  0.00    +0.135 C 
BRANCH  24  25
ATOM     25  C   UNL     1       2.837 -11.625   7.441  0.00  0.00    -0.031 A 
ATOM     26  C   UNL     1       4.181 -11.947   7.488  0.00  0.00    +0.005 A 
ATOM     27  C   UNL     1       4.573 -13.230   7.819  0.00  0.00    +0.000 A 
ATOM     28  C   UNL     1       3.622 -14.193   8.102  0.00  0.00    +0.000 A 
ATOM     29  C   UNL     1       2.278 -13.871   8.055  0.00  0.00    +0.000 A 
ATOM     30  C   UNL     1       1.886 -12.586   7.729  0.00  0.00    +0.005 A 
ENDBRANCH  24  25
BRANCH  24  31
ATOM     31  C   UNL     1       3.079  -9.242   8.006  0.00  0.00    -0.031 A 
ATOM     32  C   UNL     1       2.359  -8.660   9.033  0.00  0.00    +0.005 A 
ATOM     33  C   UNL     1       2.973  -7.758   9.882  0.00  0.00    +0.000 A 
ATOM     34  C   UNL     1       4.306  -7.439   9.705  0.00  0.00    +0.000 A 
ATOM     35  C   UNL     1       5.026  -8.021   8.678  0.00  0.00    +0.000 A 
ATOM     36  C   UNL     1       4.413  -8.926   7.832  0.00  0.00    +0.005 A 
ENDBRANCH  24  31
ENDBRANCH  11  24
TORSDOF 7
