REMARK  Name = ZINC39672906
REMARK  8 active torsions:
REMARK  status: ('A' for Active; 'I' for Inactive)
REMARK    1  A    between atoms: C_1  and  C_2
REMARK    2  A    between atoms: C_2  and  C_3
REMARK    3  A    between atoms: C_3  and  C_5
REMARK    4  A    between atoms: C_3  and  C_11
REMARK    5  A    between atoms: C_15  and  C_24
REMARK    6  A    between atoms: N_26  and  C_27
REMARK    7  A    between atoms: C_27  and  C_28
REMARK    8  A    between atoms: C_28  and  N_34
REMARK                            x       y       z     vdW  Elec       q    Type
REMARK                         _______ _______ _______ _____ _____    ______ ____
ROOT
ATOM      1  C   UNL     1       1.358  -0.976   2.013  0.00  0.00    +0.223 C 
ATOM      2  O   UNL     1       0.944  -1.660   2.924  0.00  0.00    -0.275 OA
ATOM      3  N   UNL     1       1.865  -1.560   0.908  0.00  0.00    -0.300 N 
ATOM      4  C   UNL     1       2.326  -0.902  -0.336  0.00  0.00    +0.121 C 
ATOM      5  C   UNL     1       3.591  -1.689  -0.748  0.00  0.00    +0.100 C 
ATOM      6  C   UNL     1       3.425  -3.069  -0.090  0.00  0.00    -0.004 C 
ATOM      7  C   UNL     1       2.091  -3.005   0.667  0.00  0.00    +0.115 C 
ATOM      8  C   UNL     1       4.568  -3.328   0.888  0.00  0.00    -0.010 C 
ATOM      9  C   UNL     1       4.413  -4.729   1.487  0.00  0.00    -0.082 C 
ATOM     10  N   UNL     1       4.426  -5.727   0.411  0.00  0.00    +0.379 N 
ATOM     11  C   UNL     1       3.271  -5.528  -0.473  0.00  0.00    -0.082 C 
ATOM     12  C   UNL     1       3.378  -4.160  -1.155  0.00  0.00    -0.010 C 
ATOM     13  H   UNL     1       5.277  -5.633  -0.124  0.00  0.00    -0.086 HD
ATOM     14  H   UNL     1       4.386  -6.652   0.811  0.00  0.00    -0.086 HD
ENDROOT
BRANCH   5  15
ATOM     15  C   UNL     1       4.828  -1.003  -0.230  0.00  0.00    +0.218 C 
ATOM     16  O   UNL     1       4.778  -0.351   0.792  0.00  0.00    -0.275 OA
ATOM     17  N   UNL     1       5.991  -1.113  -0.902  0.00  0.00    -0.313 N 
ATOM     18  H   UNL     1       6.016  -1.571  -1.757  0.00  0.00    +0.149 HD
BRANCH  17  19
ATOM     19  C   UNL     1       7.218  -0.541  -0.342  0.00  0.00    +0.126 C 
BRANCH  19  20
ATOM     20  C   UNL     1       8.341  -0.630  -1.377  0.00  0.00    +0.038 C 
ATOM     21  C   UNL     1       8.455  -2.069  -1.884  0.00  0.00    +0.024 C 
ATOM     22  C   UNL     1       8.768  -2.999  -0.710  0.00  0.00    +0.002 C 
ATOM     23  C   UNL     1      10.090  -2.580  -0.065  0.00  0.00    +0.000 C 
ATOM     24  C   UNL     1       9.976  -1.141   0.442  0.00  0.00    +0.002 C 
ATOM     25  C   UNL     1       9.664  -0.210  -0.732  0.00  0.00    +0.024 C 
BRANCH  20  26
ATOM     26  N   UNL     1       8.041   0.264  -2.504  0.00  0.00    -0.291 NA
ATOM     27  C   UNL     1       7.860   1.649  -2.045  0.00  0.00    +0.113 C 
ATOM     28  C   UNL     1       7.609   2.553  -3.254  0.00  0.00    +0.175 C 
ATOM     29  O   UNL     1       6.473   2.070  -3.977  0.00  0.00    -0.377 OA
ATOM     30  C   UNL     1       6.615   0.724  -4.439  0.00  0.00    +0.175 C 
ATOM     31  C   UNL     1       6.856  -0.199  -3.242  0.00  0.00    +0.113 C 
ENDBRANCH  20  26
ENDBRANCH  19  20
ENDBRANCH  17  19
ENDBRANCH   5  15
BRANCH   1  32
ATOM     32  C   UNL     1       1.308   0.526   2.115  0.00  0.00    +0.105 C 
BRANCH  32  33
ATOM     33  C   UNL     1       1.277   0.931   3.566  0.00  0.00    -0.036 A 
ATOM     34  C   UNL     1       0.247   0.501   4.382  0.00  0.00    +0.004 A 
ATOM     35  C   UNL     1       0.219   0.872   5.713  0.00  0.00    +0.000 A 
ATOM     36  C   UNL     1       1.221   1.672   6.229  0.00  0.00    +0.000 A 
ATOM     37  C   UNL     1       2.252   2.100   5.414  0.00  0.00    +0.000 A 
ATOM     38  C   UNL     1       2.282   1.726   4.084  0.00  0.00    +0.004 A 
ENDBRANCH  32  33
BRANCH  32  40
ATOM     39  C   UNL     1       0.067   2.573   1.398  0.00  0.00    +0.005 C 
ATOM     40  C   UNL     1       0.049   1.043   1.415  0.00  0.00    +0.014 C 
ENDBRANCH  32  40
ENDBRANCH   1  32
TORSDOF 7
