REMARK  Name = ZINC24528204
REMARK  7 active torsions:
REMARK  status: ('A' for Active; 'I' for Inactive)
REMARK    1  A    between atoms: C_1  and  C_2
REMARK    2  A    between atoms: C_5  and  C_7
REMARK    3  A    between atoms: C_7  and  C_9
REMARK    4  A    between atoms: C_7  and  N_31
REMARK    5  A    between atoms: C_9  and  N_10
REMARK    6  A    between atoms: N_21  and  S_22
REMARK    7  A    between atoms: S_22  and  C_25
REMARK                            x       y       z     vdW  Elec       q    Type
REMARK                         _______ _______ _______ _____ _____    ______ ____
ROOT
ATOM      1  N   UNL     1       1.546   4.855  -1.841  0.00  0.00    -0.324 N 
ATOM      2  C   UNL     1       1.472   5.255  -3.167  0.00  0.00    +0.161 A 
ATOM      3  C   UNL     1       1.610   6.624  -3.498  0.00  0.00    +0.179 A 
ATOM      4  N   UNL     1       1.542   7.017  -4.753  0.00  0.00    -0.226 NA
ATOM      5  C   UNL     1       1.341   6.114  -5.724  0.00  0.00    +0.091 A 
ATOM      6  C   UNL     1       1.265   6.507  -7.069  0.00  0.00    +0.030 A 
ATOM      7  C   UNL     1       1.061   5.571  -8.037  0.00  0.00    +0.002 A 
ATOM      8  C   UNL     1       0.926   4.224  -7.712  0.00  0.00    +0.002 A 
ATOM      9  C   UNL     1       0.994   3.807  -6.417  0.00  0.00    +0.030 A 
ATOM     10  C   UNL     1       1.203   4.744  -5.393  0.00  0.00    +0.091 A 
ATOM     11  N   UNL     1       1.280   4.357  -4.111  0.00  0.00    -0.227 NA
ATOM     12  N   UNL     1       1.818   7.558  -2.494  0.00  0.00    -0.197 N 
ATOM     13  H   UNL     1       1.711   5.601  -1.050  0.00  0.00    +0.148 HD
ATOM     14  H   UNL     1       1.875   7.234  -1.444  0.00  0.00    +0.175 HD
ENDROOT
BRANCH  12  15
ATOM     15  S   UNL     1       1.979   9.162  -2.875  0.00  0.00    +0.074 S 
ATOM     16  O   UNL     1       2.151   9.856  -1.647  0.00  0.00    -0.150 OA
ATOM     17  O   UNL     1       2.928   9.235  -3.931  0.00  0.00    -0.150 OA
BRANCH  15  18
ATOM     18  C   UNL     1       0.439   9.696  -3.544  0.00  0.00    +0.109 A 
ATOM     19  C   UNL     1       0.211   9.612  -4.905  0.00  0.00    +0.029 A 
ATOM     20  C   UNL     1      -1.000  10.026  -5.429  0.00  0.00    +0.002 A 
ATOM     21  C   UNL     1      -1.977  10.534  -4.594  0.00  0.00    +0.000 A 
ATOM     22  C   UNL     1      -1.746  10.623  -3.234  0.00  0.00    +0.002 A 
ATOM     23  C   UNL     1      -0.538  10.204  -2.709  0.00  0.00    +0.029 A 
ENDBRANCH  15  18
ENDBRANCH  12  15
BRANCH   1  24
ATOM     24  C   UNL     1       1.404   3.439  -1.494  0.00  0.00    +0.129 C 
BRANCH  24  25
ATOM     25  C   UNL     1       1.643   3.255   0.006  0.00  0.00    +0.140 C 
BRANCH  25  30
ATOM     26  C   UNL     1      -0.817  -1.033   1.006  0.00  0.00    +0.086 C 
ATOM     27  C   UNL     1       0.303  -0.043   0.821  0.00  0.00    +0.102 A 
ATOM     28  C   UNL     1       1.613  -0.294   1.000  0.00  0.00    +0.045 A 
ATOM     29  C   UNL     1       2.303   0.908   0.719  0.00  0.00    +0.046 A 
ATOM     30  C   UNL     1       1.373   1.822   0.386  0.00  0.00    +0.124 A 
ATOM     31  O   UNL     1       0.164   1.240   0.449  0.00  0.00    -0.463 OA
ENDBRANCH  25  30
BRANCH  25  32
ATOM     32  N   UNL     1       0.742   4.139   0.758  0.00  0.00    -0.287 NA
ATOM     33  C   UNL     1       0.971   4.017   2.205  0.00  0.00    +0.113 C 
ATOM     34  C   UNL     1       0.055   4.996   2.945  0.00  0.00    +0.175 C 
ATOM     35  O   UNL     1      -1.304   4.732   2.587  0.00  0.00    -0.377 OA
ATOM     36  C   UNL     1      -1.562   4.843   1.185  0.00  0.00    +0.175 C 
ATOM     37  C   UNL     1      -0.663   3.863   0.427  0.00  0.00    +0.113 C 
ENDBRANCH  25  32
ENDBRANCH  24  25
ENDBRANCH   1  24
TORSDOF 6
