REMARK  Name = ZINC04014017
REMARK  11 active torsions:
REMARK  status: ('A' for Active; 'I' for Inactive)
REMARK    1  A    between atoms: C_1  and  C_2
REMARK    2  A    between atoms: C_5  and  C_7
REMARK    3  A    between atoms: C_12  and  C_17
REMARK    4  A    between atoms: C_20  and  N_23
REMARK    5  A    between atoms: N_23  and  C_24
REMARK    6  A    between atoms: N_23  and  C_25
REMARK    7  A    between atoms: C_27  and  C_39
REMARK    8  A    between atoms: C_28  and  C_29
REMARK    9  A    between atoms: C_29  and  O_31
REMARK   10  A    between atoms: O_31  and  C_32
REMARK   11  A    between atoms: C_32  and  C_33
REMARK                            x       y       z     vdW  Elec       q    Type
REMARK                         _______ _______ _______ _____ _____    ______ ____
ROOT
ATOM      1  C   UNL     1       1.684  -3.245  -0.023  0.00  0.00    +0.128 C 
ATOM      2  C   UNL     1       2.531  -3.191  -1.269  0.00  0.00    +0.027 C 
ATOM      3  C   UNL     1       3.811  -2.763  -1.215  0.00  0.00    +0.016 C 
ATOM      4  C   UNL     1       4.660  -2.694  -2.459  0.00  0.00    +0.059 C 
ATOM      5  C   UNL     1       4.225  -3.785  -3.440  0.00  0.00    +0.032 C 
ATOM      6  C   UNL     1       2.741  -3.583  -3.765  0.00  0.00    +0.088 C 
ATOM      7  C   UNL     1       1.953  -3.598  -2.484  0.00  0.00    +0.162 C 
ATOM      8  O   UNL     1       0.796  -3.968  -2.499  0.00  0.00    -0.292 OA
ATOM      9  N   UNL     1       4.367  -2.384  -0.022  0.00  0.00    -0.321 N 
ATOM     10  C   UNL     1       3.813  -2.781   1.162  0.00  0.00    +0.016 C 
ATOM     11  C   UNL     1       2.538  -3.203   1.210  0.00  0.00    +0.068 C 
ATOM     12  C   UNL     1       4.638  -2.747   2.423  0.00  0.00    +0.061 C 
ATOM     13  H   UNL     1       5.161  -1.828  -0.018  0.00  0.00    +0.152 HD
ENDROOT
BRANCH   1  18
ATOM     14  C   UNL     1      -0.018   1.503   0.010  0.00  0.00    +0.086 C 
ATOM     15  C   UNL     1       0.002  -0.004   0.002  0.00  0.00    +0.102 A 
ATOM     16  C   UNL     1      -1.078  -0.805   0.003  0.00  0.00    +0.044 A 
ATOM     17  C   UNL     1      -0.601  -2.136  -0.007  0.00  0.00    +0.046 A 
ATOM     18  C   UNL     1       0.742  -2.069  -0.013  0.00  0.00    +0.117 A 
ATOM     19  O   UNL     1       1.102  -0.775  -0.013  0.00  0.00    -0.464 OA
ENDBRANCH   1  18
BRANCH   5  20
ATOM     20  C   UNL     1       5.042  -3.686  -4.703  0.00  0.00    -0.043 A 
ATOM     21  C   UNL     1       5.013  -2.526  -5.454  0.00  0.00    +0.006 A 
ATOM     22  C   UNL     1       5.760  -2.432  -6.612  0.00  0.00    +0.023 A 
ATOM     23  C   UNL     1       6.542  -3.505  -7.021  0.00  0.00    +0.029 A 
ATOM     24  C   UNL     1       6.569  -4.669  -6.263  0.00  0.00    +0.023 A 
ATOM     25  C   UNL     1       5.824  -4.754  -5.104  0.00  0.00    +0.006 A 
BRANCH  23  26
ATOM     26  N   UNL     1       7.299  -3.413  -8.191  0.00  0.00    -0.336 N 
ATOM     27  C   UNL     1       7.269  -2.185  -8.989  0.00  0.00    +0.129 C 
ATOM     28  C   UNL     1       8.123  -4.546  -8.620  0.00  0.00    +0.129 C 
ENDBRANCH  23  26
ENDBRANCH   5  20
BRANCH  11  29
ATOM     29  C   UNL     1       1.992  -3.615   2.448  0.00  0.00    +0.338 C 
ATOM     30  O   UNL     1       2.674  -3.585   3.455  0.00  0.00    -0.245 OA
BRANCH  29  31
ATOM     31  O   UNL     1       0.713  -4.041   2.512  0.00  0.00    -0.459 OA
BRANCH  31  32
ATOM     32  C   UNL     1       0.226  -4.442   3.794  0.00  0.00    +0.264 C 
BRANCH  32  33
ATOM     33  C   UNL     1      -1.231  -4.891   3.669  0.00  0.00    +0.156 C 
ATOM     34  C   UNL     1      -1.802  -5.211   5.067  0.00  0.00    +0.037 C 
ATOM     35  C   UNL     1      -2.672  -6.467   4.788  0.00  0.00    +0.031 C 
ATOM     36  C   UNL     1      -1.841  -7.160   3.679  0.00  0.00    +0.160 C 
ATOM     37  O   UNL     1      -1.306  -6.087   2.885  0.00  0.00    -0.373 OA
ENDBRANCH  32  33
ENDBRANCH  31  32
ENDBRANCH  29  31
ENDBRANCH  11  29
TORSDOF 7
