REMARK  Name = ZINC12384380
REMARK  14 active torsions:
REMARK  status: ('A' for Active; 'I' for Inactive)
REMARK    1  A    between atoms: C_1  and  C_2
REMARK    2  A    between atoms: C_2  and  C_26
REMARK    3  A    between atoms: C_4  and  O_9
REMARK    4  A    between atoms: C_6  and  C_7
REMARK    5  A    between atoms: C_6  and  C_8
REMARK    6  A    between atoms: O_9  and  C_10
REMARK    7  A    between atoms: C_10  and  C_12
REMARK    8  A    between atoms: C_13  and  C_14
REMARK    9  A    between atoms: C_14  and  O_16
REMARK   10  A    between atoms: O_16  and  C_17
REMARK   11  A    between atoms: C_19  and  C_24
REMARK   12  A    between atoms: C_19  and  C_25
REMARK   13  A    between atoms: C_20  and  C_22
REMARK   14  A    between atoms: C_20  and  C_23
REMARK                            x       y       z     vdW  Elec       q    Type
REMARK                         _______ _______ _______ _____ _____    ______ ____
ROOT
ATOM      1  C   UNL     1       0.220   7.093  -2.524  0.00  0.00    +0.098 C 
ATOM      2  C   UNL     1       0.048   7.683  -3.719  0.00  0.00    +0.098 C 
ENDROOT
BRANCH   1   3
ATOM      3  C   UNL     1       0.864   5.768  -2.442  0.00  0.00    +0.332 C 
ATOM      4  O   UNL     1       1.335   5.259  -3.438  0.00  0.00    -0.246 OA
BRANCH   3   5
ATOM      5  O   UNL     1       0.928   5.123  -1.261  0.00  0.00    -0.458 OA
BRANCH   5   9
ATOM      6  C   UNL     1       1.949   1.125  -2.773  0.00  0.00    -0.010 C 
ATOM      7  C   UNL     1       1.177   1.353  -1.468  0.00  0.00    -0.070 C 
ATOM      8  C   UNL     1       0.528   2.734  -1.493  0.00  0.00    +0.032 C 
ATOM      9  C   UNL     1       1.577   3.820  -1.254  0.00  0.00    +0.174 C 
ATOM     10  C   UNL     1       2.218   3.584   0.114  0.00  0.00    +0.032 C 
ATOM     11  C   UNL     1       2.889   2.214   0.156  0.00  0.00    -0.070 C 
ATOM     12  C   UNL     1       3.259   1.922   1.627  0.00  0.00    -0.010 C 
ATOM     13  C   UNL     1       4.199   2.260  -0.640  0.00  0.00    -0.010 C 
ATOM     14  C   UNL     1       0.042   0.306  -1.420  0.00  0.00    -0.010 C 
ATOM     15  N   UNL     1       2.028   1.081  -0.278  0.00  0.00    +0.386 N 
ATOM     16  H   UNL     1       2.638   0.284  -0.498  0.00  0.00    -0.084 HD
ATOM     17  H   UNL     1       1.411   0.833   0.504  0.00  0.00    -0.084 HD
ENDBRANCH   5   9
ENDBRANCH   3   5
ENDBRANCH   1   3
BRANCH   2  18
ATOM     18  C   UNL     1      -0.156   6.859  -4.926  0.00  0.00    +0.332 C 
ATOM     19  O   UNL     1      -0.322   5.661  -4.822  0.00  0.00    -0.246 OA
BRANCH  18  20
ATOM     20  O   UNL     1      -0.159   7.437  -6.143  0.00  0.00    -0.458 OA
BRANCH  20  21
ATOM     21  C   UNL     1      -0.366   6.563  -7.289  0.00  0.00    +0.174 C 
ATOM     22  C   UNL     1       0.990   6.084  -7.808  0.00  0.00    +0.032 C 
ATOM     23  C   UNL     1       0.804   5.183  -9.026  0.00  0.00    -0.070 C 
ATOM     24  C   UNL     1      -1.274   6.460  -9.624  0.00  0.00    -0.070 C 
ATOM     25  C   UNL     1      -1.062   7.348  -8.400  0.00  0.00    +0.032 C 
ATOM     26  C   UNL     1      -2.426   5.485  -9.357  0.00  0.00    -0.010 C 
ATOM     27  C   UNL     1      -1.709   7.373 -10.792  0.00  0.00    -0.010 C 
ATOM     28  C   UNL     1       0.305   3.806  -8.573  0.00  0.00    -0.010 C 
ATOM     29  C   UNL     1       2.195   4.976  -9.667  0.00  0.00    -0.010 C 
ATOM     30  N   UNL     1      -0.057   5.748 -10.099  0.00  0.00    +0.386 N 
ATOM     31  H   UNL     1      -0.356   4.976 -10.706  0.00  0.00    -0.084 HD
ATOM     32  H   UNL     1       0.508   6.412 -10.643  0.00  0.00    -0.084 HD
ENDBRANCH  20  21
ENDBRANCH  18  20
ENDBRANCH   2  18
TORSDOF 6
