REMARK  Name = ZINC19886983
REMARK  3 active torsions:
REMARK  status: ('A' for Active; 'I' for Inactive)
REMARK    1  A    between atoms: C_1  and  C_2
REMARK    2  A    between atoms: C_5  and  N_28
REMARK    3  A    between atoms: C_9  and  C_18
REMARK                            x       y       z     vdW  Elec       q    Type
REMARK                         _______ _______ _______ _____ _____    ______ ____
ROOT
ATOM      1  C   UNL     1      -0.161   1.585   0.062  0.00  0.00    +0.045 C 
ATOM      2  C   UNL     1      -0.101   0.080   0.018  0.00  0.00    -0.029 A 
ATOM      3  C   UNL     1      -0.108  -0.574  -1.197  0.00  0.00    +0.007 A 
ATOM      4  C   UNL     1      -0.050  -1.955  -1.233  0.00  0.00    +0.033 A 
ATOM      5  C   UNL     1       0.021  -2.678  -0.059  0.00  0.00    +0.132 A 
ATOM      6  C   UNL     1       0.032  -2.031   1.167  0.00  0.00    +0.011 A 
ATOM      7  C   UNL     1      -0.034  -0.646   1.202  0.00  0.00    +0.037 A 
ATOM      8  N   UNL     1      -0.057   0.025   2.419  0.00  0.00    -0.336 N 
ATOM      9  C   UNL     1      -0.026  -0.648   3.699  0.00  0.00    +0.105 C 
ATOM     10  C   UNL     1       0.552  -2.047   3.653  0.00  0.00    +0.029 C 
ATOM     11  C   UNL     1       0.132  -2.842   2.415  0.00  0.00    +0.051 C 
ATOM     12  C   UNL     1      -1.174  -3.507   2.768  0.00  0.00    -0.023 C 
ATOM     13  C   UNL     1      -1.330  -3.535   4.068  0.00  0.00    -0.030 C 
ATOM     14  C   UNL     1      -0.132  -2.887   4.769  0.00  0.00    +0.033 C 
ATOM     15  H   UNL     1      -0.094   0.994   2.409  0.00  0.00    +0.147 HD
ENDROOT
BRANCH   9  16
ATOM     16  C   UNL     1       0.797   0.176   4.654  0.00  0.00    -0.019 A 
ATOM     17  C   UNL     1       0.331   0.444   5.904  0.00  0.00    +0.006 A 
ATOM     18  C   UNL     1       1.078   1.204   6.801  0.00  0.00    +0.001 A 
ATOM     19  C   UNL     1       2.296   1.703   6.453  0.00  0.00    +0.008 A 
ATOM     20  C   UNL     1       2.810   1.448   5.171  0.00  0.00    -0.018 A 
ATOM     21  C   UNL     1       2.053   0.669   4.261  0.00  0.00    -0.013 A 
ATOM     22  C   UNL     1       2.570   0.409   2.980  0.00  0.00    +0.009 A 
ATOM     23  C   UNL     1       3.791   0.902   2.634  0.00  0.00    +0.001 A 
ATOM     24  C   UNL     1       4.538   1.663   3.531  0.00  0.00    +0.001 A 
ATOM     25  C   UNL     1       4.064   1.946   4.775  0.00  0.00    +0.008 A 
ENDBRANCH   9  16
BRANCH   5  26
ATOM     26  N   UNL     1       0.086  -4.156  -0.111  0.00  0.00    +0.057 N 
ATOM     27  O   UNL     1       0.076  -4.725  -1.177  0.00  0.00    -0.126 OA
ATOM     28  O   UNL     1       0.148  -4.794   0.914  0.00  0.00    -0.126 OA
ENDBRANCH   5  26
TORSDOF 2
