REMARK  Name = ZINC39477752
REMARK  9 active torsions:
REMARK  status: ('A' for Active; 'I' for Inactive)
REMARK    1  A    between atoms: C_1  and  C_2
REMARK    2  A    between atoms: C_8  and  O_14
REMARK    3  A    between atoms: O_14  and  C_15
REMARK    4  A    between atoms: C_15  and  C_16
REMARK    5  A    between atoms: N_18  and  C_19
REMARK    6  A    between atoms: C_23  and  S_25
REMARK    7  A    between atoms: S_25  and  N_28
REMARK    8  A    between atoms: N_28  and  C_29
REMARK    9  A    between atoms: N_28  and  C_30
REMARK                            x       y       z     vdW  Elec       q    Type
REMARK                         _______ _______ _______ _____ _____    ______ ____
ROOT
ATOM      1  C   UNL     1       1.779  -8.041  -0.054  0.00  0.00    +0.255 C 
ATOM      2  O   UNL     1       0.813  -8.774  -0.046  0.00  0.00    -0.272 OA
ATOM      3  N   UNL     1       3.022  -8.563  -0.065  0.00  0.00    -0.283 N 
ATOM      4  H   UNL     1       3.792  -7.979  -0.139  0.00  0.00    +0.155 HD
ENDROOT
BRANCH   3   5
ATOM      5  C   UNL     1       3.199  -9.948   0.032  0.00  0.00    +0.035 A 
ATOM      6  C   UNL     1       2.288 -10.810  -0.565  0.00  0.00    +0.023 A 
ATOM      7  C   UNL     1       2.466 -12.176  -0.469  0.00  0.00    +0.004 A 
ATOM      8  C   UNL     1       3.550 -12.686   0.222  0.00  0.00    +0.028 A 
ATOM      9  C   UNL     1       4.459 -11.831   0.818  0.00  0.00    +0.107 A 
ATOM     10  C   UNL     1       4.290 -10.463   0.719  0.00  0.00    +0.051 A 
BRANCH   9  11
ATOM     11  S   UNL     1       5.838 -12.486   1.698  0.00  0.00    +0.060 S 
ATOM     12  O   UNL     1       6.240 -11.487   2.624  0.00  0.00    -0.153 OA
ATOM     13  O   UNL     1       5.475 -13.799   2.102  0.00  0.00    -0.153 OA
BRANCH  11  14
ATOM     14  N   UNL     1       7.077 -12.651   0.612  0.00  0.00    -0.183 NA
ATOM     15  C   UNL     1       8.016 -11.546   0.398  0.00  0.00    +0.131 C 
ATOM     16  C   UNL     1       7.236 -13.902  -0.134  0.00  0.00    +0.131 C 
ENDBRANCH  11  14
ENDBRANCH   9  11
ENDBRANCH   3   5
BRANCH   1  17
ATOM     17  C   UNL     1       1.590  -6.546  -0.052  0.00  0.00    +0.324 C 
BRANCH  17  18
ATOM     18  O   UNL     1       0.194  -6.242  -0.040  0.00  0.00    -0.482 OA
BRANCH  18  26
ATOM     19  C   UNL     1      -0.018   1.503  -0.039  0.00  0.00    +0.073 C 
ATOM     20  C   UNL     1       0.003  -0.004  -0.038  0.00  0.00    +0.076 A 
ATOM     21  N   UNL     1      -1.002  -0.837  -0.030  0.00  0.00    -0.243 NA
ATOM     22  C   UNL     1      -0.843  -2.177  -0.031  0.00  0.00    +0.093 A 
ATOM     23  C   UNL     1       0.495  -2.630  -0.042  0.00  0.00    +0.044 A 
ATOM     24  S   UNL     1       1.409  -1.107  -0.057  0.00  0.00    -0.072 S 
ATOM     25  C   UNL     1       0.818  -3.970  -0.044  0.00  0.00    +0.063 A 
ATOM     26  C   UNL     1      -0.152  -4.928  -0.037  0.00  0.00    +0.131 A 
ATOM     27  C   UNL     1      -1.528  -4.554  -0.025  0.00  0.00    +0.033 A 
ATOM     28  C   UNL     1      -1.829  -3.187  -0.023  0.00  0.00    +0.049 A 
ATOM     29  S   UNL     1      -3.603  -3.141  -0.009  0.00  0.00    -0.094 S 
ATOM     30  C   UNL     1      -3.920  -4.895  -0.006  0.00  0.00    +0.046 A 
ATOM     31  C   UNL     1      -2.692  -5.433  -0.015  0.00  0.00    +0.020 A 
ENDBRANCH  18  26
ENDBRANCH  17  18
ENDBRANCH   1  17
TORSDOF 6
