REMARK  Name = ZINC06257995
REMARK  6 active torsions:
REMARK  status: ('A' for Active; 'I' for Inactive)
REMARK    1  A    between atoms: C_4  and  S_7
REMARK    2  A    between atoms: S_7  and  N_10
REMARK    3  A    between atoms: N_10  and  C_11
REMARK    4  A    between atoms: C_23  and  N_25
REMARK    5  A    between atoms: N_25  and  C_26
REMARK    6  A    between atoms: C_29  and  O_32
REMARK                            x       y       z     vdW  Elec       q    Type
REMARK                         _______ _______ _______ _____ _____    ______ ____
ROOT
ATOM      1  C   UNL     1       1.734   5.462   0.012  0.00  0.00    +0.131 C 
ATOM      2  C   UNL     1       2.222   4.033   0.001  0.00  0.00    -0.019 A 
ATOM      3  C   UNL     1       3.448   3.441  -0.012  0.00  0.00    +0.006 A 
ATOM      4  C   UNL     1       3.559   2.049  -0.019  0.00  0.00    +0.001 A 
ATOM      5  C   UNL     1       2.467   1.229  -0.014  0.00  0.00    +0.008 A 
ATOM      6  C   UNL     1       1.187   1.807   0.000  0.00  0.00    -0.017 A 
ATOM      7  C   UNL     1       1.100   3.211   0.008  0.00  0.00    -0.008 A 
ATOM      8  C   UNL     1      -0.115   3.889   0.023  0.00  0.00    -0.017 A 
ATOM      9  C   UNL     1      -1.258   3.150   0.030  0.00  0.00    +0.006 A 
ATOM     10  C   UNL     1      -1.197   1.754   0.017  0.00  0.00    +0.001 A 
ATOM     11  C   UNL     1      -0.013   1.076   0.008  0.00  0.00    +0.008 A 
ATOM     12  C   UNL     1       0.193   5.366   0.027  0.00  0.00    +0.124 C 
ENDROOT
BRANCH   1  13
ATOM     13  N   UNL     1       2.212   6.152   1.213  0.00  0.00    -0.180 NA
ATOM     14  H   UNL     1       1.727   6.064   2.048  0.00  0.00    +0.149 HD
BRANCH  13  15
ATOM     15  S   UNL     1       3.580   7.082   1.144  0.00  0.00    +0.059 S 
ATOM     16  O   UNL     1       3.764   7.631   2.442  0.00  0.00    -0.153 OA
ATOM     17  O   UNL     1       4.574   6.295   0.502  0.00  0.00    -0.153 OA
BRANCH  15  21
ATOM     18  C   UNL     1       2.698  10.559  -1.617  0.00  0.00    +0.000 A 
ATOM     19  C   UNL     1       2.443  10.669  -0.263  0.00  0.00    +0.002 A 
ATOM     20  C   UNL     1       2.712   9.608   0.580  0.00  0.00    +0.028 A 
ATOM     21  C   UNL     1       3.237   8.435   0.069  0.00  0.00    +0.105 A 
ATOM     22  C   UNL     1       3.497   8.326  -1.284  0.00  0.00    +0.028 A 
ATOM     23  C   UNL     1       3.223   9.386  -2.128  0.00  0.00    +0.002 A 
ENDBRANCH  15  21
ENDBRANCH  13  15
ENDBRANCH   1  13
BRANCH  12  24
ATOM     24  N   UNL     1      -0.367   6.005  -1.167  0.00  0.00    -0.335 N 
ATOM     25  H   UNL     1       0.168   6.080  -1.973  0.00  0.00    +0.147 HD
BRANCH  24  26
ATOM     26  C   UNL     1      -1.673   6.507  -1.145  0.00  0.00    +0.028 A 
ATOM     27  C   UNL     1      -2.441   6.395   0.007  0.00  0.00    +0.026 A 
ATOM     28  C   UNL     1      -3.728   6.895   0.029  0.00  0.00    +0.047 A 
ATOM     29  C   UNL     1      -4.257   7.500  -1.101  0.00  0.00    +0.117 A 
ATOM     30  C   UNL     1      -3.493   7.607  -2.253  0.00  0.00    +0.047 A 
ATOM     31  C   UNL     1      -2.204   7.112  -2.276  0.00  0.00    +0.026 A 
BRANCH  29  32
ATOM     32  O   UNL     1      -5.526   7.988  -1.079  0.00  0.00    -0.507 OA
ATOM     33  H   UNL     1      -6.199   7.347  -1.348  0.00  0.00    +0.292 HD
ENDBRANCH  29  32
ENDBRANCH  24  26
ENDBRANCH  12  24
TORSDOF 6
