REMARK  Name = ZINC60340221
REMARK  11 active torsions:
REMARK  status: ('A' for Active; 'I' for Inactive)
REMARK    1  A    between atoms: C_1  and  C_2
REMARK    2  A    between atoms: C_4  and  C_33
REMARK    3  A    between atoms: C_6  and  N_8
REMARK    4  A    between atoms: C_12  and  C_13
REMARK    5  A    between atoms: C_16  and  O_19
REMARK    6  A    between atoms: O_19  and  C_20
REMARK    7  A    between atoms: C_22  and  S_23
REMARK    8  A    between atoms: S_23  and  C_24
REMARK    9  A    between atoms: C_24  and  C_25
REMARK   10  A    between atoms: C_25  and  C_26
REMARK   11  A    between atoms: C_26  and  C_27
REMARK                            x       y       z     vdW  Elec       q    Type
REMARK                         _______ _______ _______ _____ _____    ______ ____
ROOT
ATOM      1  N   UNL     1       0.096  -2.797   2.399  0.00  0.00    -0.214 N 
ATOM      2  C   UNL     1      -0.026  -4.136   2.529  0.00  0.00    +0.275 C 
ATOM      3  O   UNL     1      -0.175  -4.952   1.638  0.00  0.00    -0.268 OA
ATOM      4  C   UNL     1       0.062  -4.401   3.976  0.00  0.00    +0.129 C 
ATOM      5  C   UNL     1      -0.009  -5.616   4.596  0.00  0.00    +0.041 C 
ATOM      6  N   UNL     1       0.228  -3.181   4.571  0.00  0.00    -0.220 NA
ATOM      7  C   UNL     1       0.252  -2.253   3.651  0.00  0.00    +0.168 C 
ENDROOT
BRANCH   1  13
ATOM      8  C   UNL     1      -2.228  -1.601  -1.768  0.00  0.00    +0.044 C 
ATOM      9  C   UNL     1      -1.042  -1.486  -0.846  0.00  0.00    -0.048 A 
ATOM     10  C   UNL     1       0.025  -0.677  -1.190  0.00  0.00    +0.006 A 
ATOM     11  C   UNL     1       1.115  -0.569  -0.346  0.00  0.00    -0.048 A 
ATOM     12  C   UNL     1       1.142  -1.270   0.843  0.00  0.00    +0.027 A 
ATOM     13  C   UNL     1       0.072  -2.084   1.192  0.00  0.00    +0.044 A 
ATOM     14  C   UNL     1      -1.024  -2.185   0.346  0.00  0.00    +0.027 A 
ATOM     15  C   UNL     1       2.276   0.314  -0.725  0.00  0.00    +0.044 C 
ENDBRANCH   1  13
BRANCH   5  16
ATOM     16  C   UNL     1      -0.056  -5.691   6.060  0.00  0.00    -0.023 A 
ATOM     17  C   UNL     1      -0.171  -4.519   6.821  0.00  0.00    +0.011 A 
ATOM     18  C   UNL     1      -0.215  -4.596   8.194  0.00  0.00    +0.046 A 
ATOM     19  C   UNL     1      -0.146  -5.832   8.827  0.00  0.00    +0.120 A 
ATOM     20  C   UNL     1      -0.031  -6.997   8.077  0.00  0.00    +0.046 A 
ATOM     21  C   UNL     1       0.008  -6.934   6.703  0.00  0.00    +0.011 A 
BRANCH  19  22
ATOM     22  O   UNL     1      -0.190  -5.901  10.182  0.00  0.00    -0.495 OA
ATOM     23  C   UNL     1      -0.114  -7.202  10.768  0.00  0.00    +0.277 C 
ENDBRANCH  19  22
ENDBRANCH   5  16
BRANCH   7  24
ATOM     24  S   UNL     1       0.454  -0.533   3.974  0.00  0.00    -0.090 S 
BRANCH  24  25
ATOM     25  C   UNL     1       0.609  -0.440   5.779  0.00  0.00    +0.077 C 
BRANCH  25  26
ATOM     26  C   UNL     1       0.792   1.019   6.201  0.00  0.00    +0.020 C 
BRANCH  26  27
ATOM     27  C   UNL     1       0.923   1.097   7.723  0.00  0.00    +0.097 C 
BRANCH  27  28
ATOM     28  C   UNL     1       1.103   2.534   8.139  0.00  0.00    +0.220 C 
ATOM     29  O   UNL     1       1.125   3.410   7.300  0.00  0.00    -0.275 OA
ATOM     30  N   UNL     1       1.240   2.847   9.443  0.00  0.00    -0.240 N 
ATOM     31  C   UNL     1       1.401   4.132   9.815  0.00  0.00    +0.303 C 
ATOM     32  O   UNL     1       1.423   5.010   8.974  0.00  0.00    -0.253 OA
ATOM     33  N   UNL     1       1.539   4.444  11.118  0.00  0.00    -0.313 N 
ATOM     34  H   UNL     1       1.223   2.146  10.114  0.00  0.00    +0.159 HD
ATOM     35  H   UNL     1       1.521   3.744  11.789  0.00  0.00    +0.146 HD
ATOM     36  H   UNL     1       1.655   5.369  11.386  0.00  0.00    +0.146 HD
ENDBRANCH  27  28
ENDBRANCH  26  27
ENDBRANCH  25  26
ENDBRANCH  24  25
ENDBRANCH   7  24
TORSDOF 8
