REMARK  Name = ZINC34686407
REMARK  12 active torsions:
REMARK  status: ('A' for Active; 'I' for Inactive)
REMARK    1  A    between atoms: C_1  and  C_2
REMARK    2  A    between atoms: C_2  and  C_4
REMARK    3  A    between atoms: C_2  and  O_14
REMARK    4  A    between atoms: N_6  and  C_7
REMARK    5  A    between atoms: C_7  and  C_8
REMARK    6  A    between atoms: C_8  and  N_9
REMARK    7  A    between atoms: O_14  and  C_15
REMARK    8  A    between atoms: C_21  and  C_32
REMARK    9  A    between atoms: C_26  and  C_28
REMARK   10  A    between atoms: C_28  and  C_29
REMARK   11  A    between atoms: C_29  and  C_30
REMARK   12  A    between atoms: C_29  and  C_31
REMARK                            x       y       z     vdW  Elec       q    Type
REMARK                         _______ _______ _______ _____ _____    ______ ____
ROOT
ATOM      1  C   UNL     1       2.466  -1.387   0.245  0.00  0.00    +0.122 A 
ATOM      2  C   UNL     1       3.354  -1.240  -0.812  0.00  0.00    +0.046 A 
ATOM      3  C   UNL     1       4.705  -1.412  -0.599  0.00  0.00    +0.007 A 
ATOM      4  C   UNL     1       5.189  -1.727   0.665  0.00  0.00    -0.040 A 
ATOM      5  C   UNL     1       4.309  -1.863   1.716  0.00  0.00    -0.016 A 
ATOM      6  C   UNL     1       2.948  -1.694   1.506  0.00  0.00    +0.051 A 
ATOM      7  C   UNL     1       4.769  -2.176   3.118  0.00  0.00    +0.137 C 
ATOM      8  N   UNL     1       6.182  -2.572   3.098  0.00  0.00    -0.290 N 
ATOM      9  C   UNL     1       7.098  -1.765   2.276  0.00  0.00    +0.113 C 
ATOM     10  C   UNL     1       6.676  -1.914   0.816  0.00  0.00    +0.054 C 
ATOM     11  C   UNL     1       6.622  -3.633   3.803  0.00  0.00    +0.217 C 
ATOM     12  O   UNL     1       5.862  -4.236   4.530  0.00  0.00    -0.276 OA
ENDROOT
BRANCH   7  13
ATOM     13  C   UNL     1       3.941  -3.304   3.678  0.00  0.00    -0.020 A 
ATOM     14  C   UNL     1       4.063  -4.577   3.154  0.00  0.00    +0.006 A 
ATOM     15  C   UNL     1       3.304  -5.612   3.667  0.00  0.00    +0.003 A 
ATOM     16  C   UNL     1       2.422  -5.375   4.704  0.00  0.00    +0.038 A 
ATOM     17  C   UNL     1       2.299  -4.100   5.230  0.00  0.00    +0.124 A 
ATOM     18  C   UNL     1       3.064  -3.065   4.719  0.00  0.00    +0.044 A 
ATOM     19  F   UNL     1       1.437  -3.867   6.243  0.00  0.00    -0.205 F 
ENDBRANCH   7  13
BRANCH   1  20
ATOM     20  O   UNL     1       1.132  -1.225   0.044  0.00  0.00    -0.480 OA
BRANCH  20  22
ATOM     21  C   UNL     1       0.814   0.453  -1.666  0.00  0.00    +0.062 C 
ATOM     22  C   UNL     1       0.698  -1.029  -1.303  0.00  0.00    +0.255 C 
BRANCH  22  23
ATOM     23  C   UNL     1      -0.738  -1.468  -1.437  0.00  0.00    +0.253 C 
ATOM     24  O   UNL     1      -1.359  -1.820  -0.457  0.00  0.00    -0.272 OA
ATOM     25  N   UNL     1      -1.332  -1.469  -2.647  0.00  0.00    -0.314 N 
ATOM     26  H   UNL     1      -0.836  -1.188  -3.432  0.00  0.00    +0.149 HD
BRANCH  25  27
ATOM     27  C   UNL     1      -2.727  -1.896  -2.778  0.00  0.00    +0.086 C 
BRANCH  27  28
ATOM     28  C   UNL     1      -3.154  -1.803  -4.244  0.00  0.00    -0.060 C 
BRANCH  28  29
ATOM     29  N   UNL     1      -4.553  -2.231  -4.375  0.00  0.00    +0.381 N 
ATOM     30  C   UNL     1      -5.454  -1.242  -3.728  0.00  0.00    -0.079 C 
ATOM     31  C   UNL     1      -6.819  -1.505  -4.413  0.00  0.00    -0.020 C 
ATOM     32  C   UNL     1      -6.418  -1.817  -5.873  0.00  0.00    -0.020 C 
ATOM     33  C   UNL     1      -4.946  -2.262  -5.800  0.00  0.00    -0.079 C 
ATOM     34  H   UNL     1      -4.679  -3.142  -3.959  0.00  0.00    -0.082 HD
ENDBRANCH  28  29
ENDBRANCH  27  28
ENDBRANCH  25  27
ENDBRANCH  22  23
ENDBRANCH  20  22
ENDBRANCH   1  20
BRANCH  11  35
ATOM     35  C   UNL     1       8.060  -4.069   3.689  0.00  0.00    +0.099 C 
BRANCH  35  36
ATOM     36  C   UNL     1       8.297  -5.286   4.585  0.00  0.00    -0.008 C 
ATOM     37  C   UNL     1       9.721  -5.805   4.375  0.00  0.00    +0.008 C 
ATOM     38  C   UNL     1       8.111  -4.885   6.049  0.00  0.00    +0.008 C 
ENDBRANCH  35  36
ENDBRANCH  11  35
TORSDOF 9
