REMARK  Name = ZINC21538166
REMARK  4 active torsions:
REMARK  status: ('A' for Active; 'I' for Inactive)
REMARK    1  A    between atoms: C_1  and  C_2
REMARK    2  A    between atoms: C_10  and  C_22
REMARK    3  A    between atoms: N_13  and  C_14
REMARK    4  A    between atoms: C_22  and  C_23
REMARK                            x       y       z     vdW  Elec       q    Type
REMARK                         _______ _______ _______ _____ _____    ______ ____
ROOT
ATOM      1  C   UNL     1      -3.110  -0.255   2.215  0.00  0.00    +0.007 C 
ATOM      2  C   UNL     1      -2.150   0.933   2.303  0.00  0.00    -0.011 C 
ATOM      3  C   UNL     1      -1.020   0.603   3.282  0.00  0.00    +0.022 C 
ATOM      4  C   UNL     1      -0.042   1.780   3.342  0.00  0.00    +0.108 C 
ATOM      5  N   UNL     1      -0.790   3.001   3.672  0.00  0.00    -0.302 N 
ATOM      6  C   UNL     1      -1.952   3.362   2.848  0.00  0.00    +0.108 C 
ATOM      7  C   UNL     1      -2.909   2.168   2.794  0.00  0.00    +0.022 C 
ATOM      8  C   UNL     1      -0.411   3.789   4.732  0.00  0.00    +0.184 A 
ATOM      9  N   UNL     1       0.047   3.318   5.851  0.00  0.00    -0.327 N 
ATOM     10  C   UNL     1       0.333   4.462   6.731  0.00  0.00    +0.088 A 
ATOM     11  C   UNL     1      -0.049   5.669   5.897  0.00  0.00    +0.278 A 
ATOM     12  O   UNL     1       0.014   6.836   6.218  0.00  0.00    -0.265 OA
ATOM     13  N   UNL     1      -0.475   5.163   4.721  0.00  0.00    -0.246 N 
ATOM     14  H   UNL     1       0.234   2.293   6.203  0.00  0.00    +0.168 HD
ENDROOT
BRANCH  13  15
ATOM     15  C   UNL     1      -0.923   5.932   3.636  0.00  0.00    +0.088 A 
ATOM     16  C   UNL     1      -2.231   6.395   3.605  0.00  0.00    +0.032 A 
ATOM     17  C   UNL     1      -2.669   7.156   2.538  0.00  0.00    +0.040 A 
ATOM     18  C   UNL     1      -1.807   7.449   1.494  0.00  0.00    +0.126 A 
ATOM     19  C   UNL     1      -0.503   6.985   1.519  0.00  0.00    +0.078 A 
ATOM     20  C   UNL     1      -0.059   6.227   2.588  0.00  0.00    +0.150 A 
ATOM     21  F   UNL     1       1.213   5.773   2.612  0.00  0.00    -0.203 F 
ATOM     22  F   UNL     1      -2.240   8.189   0.450  0.00  0.00    -0.205 F 
ENDBRANCH  13  15
BRANCH  10  23
ATOM     23  C   UNL     1       1.819   4.506   7.095  0.00  0.00    +0.094 C 
BRANCH  23  24
ATOM     24  C   UNL     1       2.164   3.309   7.943  0.00  0.00    -0.041 A 
ATOM     25  C   UNL     1       2.067   3.387   9.320  0.00  0.00    +0.004 A 
ATOM     26  C   UNL     1       2.379   2.288  10.098  0.00  0.00    +0.000 A 
ATOM     27  C   UNL     1       2.798   1.114   9.500  0.00  0.00    +0.000 A 
ATOM     28  C   UNL     1       2.900   1.038   8.123  0.00  0.00    +0.000 A 
ATOM     29  C   UNL     1       2.583   2.136   7.345  0.00  0.00    +0.004 A 
ENDBRANCH  23  24
ENDBRANCH  10  23
TORSDOF 3
