REMARK  Name = ZINC01040475
REMARK  6 active torsions:
REMARK  status: ('A' for Active; 'I' for Inactive)
REMARK    1  A    between atoms: C_1  and  C_2
REMARK    2  A    between atoms: C_2  and  O_3
REMARK    3  A    between atoms: O_3  and  C_4
REMARK    4  A    between atoms: N_6  and  N_7
REMARK    5  A    between atoms: C_8  and  C_9
REMARK    6  A    between atoms: C_14  and  O_15
REMARK                            x       y       z     vdW  Elec       q    Type
REMARK                         _______ _______ _______ _____ _____    ______ ____
ROOT
ATOM      1  C   UNL     1       1.155  -2.111  -0.020  0.00  0.00    +0.038 A 
ATOM      2  C   UNL     1       2.371  -2.797  -0.036  0.00  0.00    +0.028 A 
ATOM      3  C   UNL     1       2.384  -4.177  -0.043  0.00  0.00    +0.020 A 
ATOM      4  C   UNL     1       1.193  -4.885  -0.036  0.00  0.00    +0.034 A 
ATOM      5  C   UNL     1      -0.018  -4.218  -0.020  0.00  0.00    +0.061 A 
ATOM      6  C   UNL     1      -0.047  -2.832  -0.007  0.00  0.00    +0.139 A 
ATOM      7 BR   UNL     1      -1.635  -5.197  -0.009  0.00  0.00    -0.046 Br
ATOM      8 BR   UNL     1       4.032  -5.104  -0.065  0.00  0.00    -0.050 Br
ENDROOT
BRANCH   1  10
ATOM      9  N   UNL     1       0.002  -0.004   0.002  0.00  0.00    -0.185 NA
ATOM     10  C   UNL     1       1.135  -0.637  -0.012  0.00  0.00    +0.142 C 
BRANCH   9  13
ATOM     11  C   UNL     1      -1.193   2.055   0.019  0.00  0.00    +0.420 C 
ATOM     12  O   UNL     1      -1.210   3.270   0.026  0.00  0.00    -0.225 OA
ATOM     13  N   UNL     1      -0.017   1.397   0.010  0.00  0.00    -0.172 N 
ATOM     14  H   UNL     1       0.816   1.893   0.004  0.00  0.00    +0.181 HD
BRANCH  11  15
ATOM     15  O   UNL     1      -2.350   1.365   0.021  0.00  0.00    -0.450 OA
BRANCH  15  17
ATOM     16  C   UNL     1      -4.779   1.191   0.031  0.00  0.00    +0.048 C 
ATOM     17  C   UNL     1      -3.579   2.140   0.031  0.00  0.00    +0.230 C 
ENDBRANCH  15  17
ENDBRANCH  11  15
ENDBRANCH   9  13
ENDBRANCH   1  10
BRANCH   6  18
ATOM     18  O   UNL     1      -1.236  -2.175   0.014  0.00  0.00    -0.505 OA
ATOM     19  H   UNL     1      -1.593  -1.980  -0.864  0.00  0.00    +0.292 HD
ENDBRANCH   6  18
TORSDOF 5
