REMARK  Name = ZINC12419476
REMARK  9 active torsions:
REMARK  status: ('A' for Active; 'I' for Inactive)
REMARK    1  A    between atoms: C_1  and  O_2
REMARK    2  A    between atoms: O_2  and  C_3
REMARK    3  A    between atoms: C_5  and  C_17
REMARK    4  A    between atoms: C_8  and  O_9
REMARK    5  A    between atoms: O_9  and  C_10
REMARK    6  A    between atoms: C_10  and  C_11
REMARK    7  A    between atoms: N_18  and  N_19
REMARK    8  A    between atoms: N_19  and  C_20
REMARK    9  A    between atoms: C_23  and  C_28
REMARK                            x       y       z     vdW  Elec       q    Type
REMARK                         _______ _______ _______ _____ _____    ______ ____
ROOT
ATOM      1  C   UNL     1      -2.499   1.008  -0.011  0.00  0.00    +0.138 C 
ATOM      2  N   UNL     1      -2.487  -0.288  -0.086  0.00  0.00    -0.190 NA
ENDROOT
BRANCH   1   5
ATOM      3  C   UNL     1      -0.120   3.854  -0.593  0.00  0.00    +0.162 A 
ATOM      4  C   UNL     1      -1.204   3.129  -0.135  0.00  0.00    +0.059 A 
ATOM      5  C   UNL     1      -1.341   1.785  -0.491  0.00  0.00    -0.002 A 
ATOM      6  C   UNL     1      -0.377   1.177  -1.298  0.00  0.00    +0.013 A 
ATOM      7  C   UNL     1       0.702   1.907  -1.751  0.00  0.00    +0.050 A 
ATOM      8  C   UNL     1       0.835   3.244  -1.402  0.00  0.00    +0.162 A 
BRANCH   3  10
ATOM      9  C   UNL     1      -1.002   5.726   0.579  0.00  0.00    +0.277 C 
ATOM     10  O   UNL     1       0.014   5.164  -0.253  0.00  0.00    -0.491 OA
ENDBRANCH   3  10
BRANCH   8  11
ATOM     11  O   UNL     1       1.901   3.958  -1.851  0.00  0.00    -0.484 OA
BRANCH  11  12
ATOM     12  C   UNL     1       2.843   3.270  -2.676  0.00  0.00    +0.264 C 
BRANCH  12  13
ATOM     13  C   UNL     1       3.947   4.216  -3.075  0.00  0.00    -0.010 A 
ATOM     14  C   UNL     1       3.834   4.961  -4.233  0.00  0.00    +0.007 A 
ATOM     15  C   UNL     1       4.845   5.832  -4.596  0.00  0.00    +0.000 A 
ATOM     16  C   UNL     1       5.973   5.950  -3.805  0.00  0.00    +0.000 A 
ATOM     17  C   UNL     1       6.088   5.200  -2.650  0.00  0.00    +0.000 A 
ATOM     18  C   UNL     1       5.075   4.333  -2.284  0.00  0.00    +0.007 A 
ENDBRANCH  12  13
ENDBRANCH  11  12
ENDBRANCH   8  11
ENDBRANCH   1   5
BRANCH   2  19
ATOM     19  N   UNL     1      -1.268  -0.978  -0.096  0.00  0.00    -0.232 N 
ATOM     20  H   UNL     1      -0.437  -0.498   0.049  0.00  0.00    +0.175 HD
BRANCH  19  21
ATOM     21  C   UNL     1      -1.247  -2.359  -0.313  0.00  0.00    +0.124 A 
ATOM     22  C   UNL     1      -2.420  -3.099  -0.205  0.00  0.00    +0.184 A 
ATOM     23  C   UNL     1      -2.398  -4.465  -0.426  0.00  0.00    +0.175 A 
ATOM     24  C   UNL     1      -1.207  -5.097  -0.745  0.00  0.00    +0.131 A 
ATOM     25  C   UNL     1      -0.037  -4.364  -0.848  0.00  0.00    +0.175 A 
ATOM     26  C   UNL     1      -0.054  -2.997  -0.633  0.00  0.00    +0.184 A 
ATOM     27  F   UNL     1       1.089  -2.282  -0.734  0.00  0.00    -0.200 F 
ATOM     28  F   UNL     1       1.122  -4.984  -1.159  0.00  0.00    -0.202 F 
ATOM     29  F   UNL     1      -3.537  -5.184  -0.326  0.00  0.00    -0.202 F 
ATOM     30  F   UNL     1      -3.581  -2.484   0.111  0.00  0.00    -0.200 F 
BRANCH  24  31
ATOM     31  C   UNL     1      -1.186  -6.586  -0.980  0.00  0.00    +0.423 C 
ATOM     32  F   UNL     1      -0.941  -7.245   0.230  0.00  0.00    -0.166 F 
ATOM     33  F   UNL     1      -2.421  -6.995  -1.492  0.00  0.00    -0.166 F 
ATOM     34  F   UNL     1      -0.174  -6.899  -1.895  0.00  0.00    -0.166 F 
ENDBRANCH  24  31
ENDBRANCH  19  21
ENDBRANCH   2  19
TORSDOF 8
