REMARK  Name = ZINC01440701
REMARK  7 active torsions:
REMARK  status: ('A' for Active; 'I' for Inactive)
REMARK    1  A    between atoms: C_1  and  N_2
REMARK    2  A    between atoms: N_2  and  C_3
REMARK    3  A    between atoms: N_2  and  N_4
REMARK    4  A    between atoms: C_7  and  C_14
REMARK    5  A    between atoms: C_9  and  C_12
REMARK    6  A    between atoms: C_10  and  N_11
REMARK    7  A    between atoms: C_24  and  C_27
REMARK                            x       y       z     vdW  Elec       q    Type
REMARK                         _______ _______ _______ _____ _____    ______ ____
ROOT
ATOM      1  N   UNL     1      -4.635   4.246   2.266  0.00  0.00    -0.223 N 
ATOM      2  C   UNL     1      -3.525   3.958   1.520  0.00  0.00    +0.037 C 
ATOM      3  C   UNL     1      -3.539   4.110   0.179  0.00  0.00    +0.026 C 
ATOM      4  C   UNL     1      -4.773   4.604  -0.532  0.00  0.00    +0.100 C 
ATOM      5  C   UNL     1      -5.989   4.466   0.336  0.00  0.00    +0.078 C 
ATOM      6  C   UNL     1      -5.877   4.300   1.679  0.00  0.00    +0.117 C 
ATOM      7  C   UNL     1      -2.402   3.817  -0.595  0.00  0.00    +0.162 C 
ATOM      8  O   UNL     1      -2.454   3.946  -1.802  0.00  0.00    -0.292 OA
ATOM      9  C   UNL     1      -1.124   3.345   0.043  0.00  0.00    +0.088 C 
ATOM     10  C   UNL     1      -1.042   3.905   1.467  0.00  0.00    +0.032 C 
ATOM     11  C   UNL     1      -2.291   3.464   2.234  0.00  0.00    +0.061 C 
ENDROOT
BRANCH   4  12
ATOM     12  C   UNL     1      -4.587   6.054  -0.896  0.00  0.00    +0.000 A 
ATOM     13  C   UNL     1      -4.374   6.994   0.095  0.00  0.00    +0.007 A 
ATOM     14  C   UNL     1      -4.198   8.323  -0.240  0.00  0.00    +0.000 A 
ATOM     15  C   UNL     1      -4.245   8.716  -1.564  0.00  0.00    +0.003 A 
ATOM     16  C   UNL     1      -4.464   7.780  -2.556  0.00  0.00    +0.038 A 
ATOM     17  C   UNL     1      -4.635   6.447  -2.223  0.00  0.00    +0.127 A 
ATOM     18  F   UNL     1      -4.848   5.530  -3.192  0.00  0.00    -0.205 F 
ENDBRANCH   4  12
BRANCH  10  19
ATOM     19  C   UNL     1       0.189   3.369   2.151  0.00  0.00    -0.044 A 
ATOM     20  C   UNL     1       0.350   2.007   2.317  0.00  0.00    +0.004 A 
ATOM     21  C   UNL     1       1.476   1.516   2.950  0.00  0.00    +0.000 A 
ATOM     22  C   UNL     1       2.447   2.387   3.408  0.00  0.00    +0.000 A 
ATOM     23  C   UNL     1       2.288   3.749   3.238  0.00  0.00    +0.000 A 
ATOM     24  C   UNL     1       1.159   4.241   2.609  0.00  0.00    +0.004 A 
ENDBRANCH  10  19
BRANCH   1  26
ATOM     25  C   UNL     1      -4.110   3.262   4.320  0.00  0.00    +0.128 C 
ATOM     26  N   UNL     1      -4.508   4.482   3.606  0.00  0.00    -0.227 NA
ATOM     27  C   UNL     1      -3.560   5.575   3.860  0.00  0.00    +0.128 C 
ENDBRANCH   1  26
BRANCH   6  28
ATOM     28  N   UNL     1      -7.007   4.185   2.453  0.00  0.00    -0.344 N 
ATOM     29  H   UNL     1      -6.932   4.155   3.420  0.00  0.00    +0.144 HD
ATOM     30  H   UNL     1      -7.880   4.135   2.033  0.00  0.00    +0.144 HD
ENDBRANCH   6  28
BRANCH   5  31
ATOM     31  C   UNL     1      -7.290   4.510  -0.262  0.00  0.00    +0.099 C 
ATOM     32  N   UNL     1      -8.322   4.545  -0.736  0.00  0.00    -0.191 NA
ENDBRANCH   5  31
TORSDOF 5
