REMARK  Name = ZINC49234297
REMARK  5 active torsions:
REMARK  status: ('A' for Active; 'I' for Inactive)
REMARK    1  A    between atoms: C_6  and  N_7
REMARK    2  A    between atoms: C_9  and  C_11
REMARK    3  A    between atoms: N_13  and  C_14
REMARK    4  A    between atoms: C_14  and  C_15
REMARK    5  A    between atoms: C_14  and  C_18
REMARK                            x       y       z     vdW  Elec       q    Type
REMARK                         _______ _______ _______ _____ _____    ______ ____
ROOT
ATOM      1  C   UNL     1      -0.005   1.491  -0.213  0.00  0.00    +0.024 A 
ATOM      2  C   UNL     1       1.188   2.144   0.015  0.00  0.00    +0.017 A 
ATOM      3  C   UNL     1       2.378   1.460  -0.110  0.00  0.00    +0.020 A 
ATOM      4  C   UNL     1       2.432   0.093  -0.468  0.00  0.00    -0.008 A 
ATOM      5  C   UNL     1       1.188  -0.551  -0.696  0.00  0.00    +0.031 A 
ATOM      6  C   UNL     1       0.009   0.142  -0.568  0.00  0.00    +0.025 A 
ATOM      7  C   UNL     1       3.723  -0.458  -0.554  0.00  0.00    +0.029 A 
ATOM      8  C   UNL     1       4.810   0.319  -0.299  0.00  0.00    +0.075 A 
ATOM      9  S   UNL     1       4.086   1.903   0.086  0.00  0.00    -0.084 S 
ENDROOT
BRANCH   8  10
ATOM     10  C   UNL     1       6.231  -0.056  -0.332  0.00  0.00    +0.251 C 
ATOM     11  O   UNL     1       6.554  -1.193  -0.617  0.00  0.00    -0.270 OA
ATOM     12  N   UNL     1       7.176   0.862  -0.046  0.00  0.00    -0.308 N 
ATOM     13  H   UNL     1       6.919   1.769   0.181  0.00  0.00    +0.149 HD
BRANCH  12  14
ATOM     14  C   UNL     1       8.593   0.489  -0.080  0.00  0.00    +0.079 C 
BRANCH  14  15
ATOM     15  C   UNL     1       9.390   1.577  -0.803  0.00  0.00    +0.010 C 
ATOM     16  C   UNL     1       9.908   1.257  -2.207  0.00  0.00    +0.006 C 
ATOM     17  C   UNL     1      10.882   1.326  -1.029  0.00  0.00    +0.006 C 
ENDBRANCH  14  15
BRANCH  14  18
ATOM     18  C   UNL     1       9.114   0.341   1.351  0.00  0.00    +0.010 C 
ATOM     19  C   UNL     1       9.852  -0.953   1.704  0.00  0.00    +0.006 C 
ATOM     20  C   UNL     1       8.442  -0.704   2.244  0.00  0.00    +0.006 C 
ENDBRANCH  14  18
ENDBRANCH  12  14
ENDBRANCH   8  10
BRANCH   6  21
ATOM     21  N   UNL     1      -1.204  -0.519  -0.799  0.00  0.00    -0.358 N 
ATOM     22  H   UNL     1      -2.042  -0.039  -0.711  0.00  0.00    +0.142 HD
ATOM     23  H   UNL     1      -1.205  -1.457  -1.046  0.00  0.00    +0.142 HD
ENDBRANCH   6  21
TORSDOF 5
