REMARK  Name = ZINC09378093
REMARK  7 active torsions:
REMARK  status: ('A' for Active; 'I' for Inactive)
REMARK    1  A    between atoms: C_1  and  C_2
REMARK    2  A    between atoms: C_2  and  C_4
REMARK    3  A    between atoms: C_2  and  S_14
REMARK    4  A    between atoms: N_10  and  C_11
REMARK    5  A    between atoms: N_10  and  C_12
REMARK    6  A    between atoms: S_14  and  C_15
REMARK    7  A    between atoms: N_23  and  C_24
REMARK                            x       y       z     vdW  Elec       q    Type
REMARK                         _______ _______ _______ _____ _____    ______ ____
ROOT
ATOM      1  C   UNL     1      -0.019   1.526   0.010  0.00  0.00    +0.028 C 
ATOM      2  C   UNL     1       0.002  -0.004   0.002  0.00  0.00    +0.119 C 
ENDROOT
BRANCH   2   3
ATOM      3  C   UNL     1      -1.412  -0.526   0.013  0.00  0.00    +0.149 A 
ATOM      4  N   UNL     1      -2.141  -0.475  -1.088  0.00  0.00    -0.198 NA
ATOM      5  C   UNL     1      -3.390  -0.935  -1.083  0.00  0.00    +0.217 A 
ATOM      6  N   UNL     1      -3.903  -1.446   0.031  0.00  0.00    -0.181 NA
ATOM      7  C   UNL     1      -3.167  -1.495   1.136  0.00  0.00    +0.222 A 
ATOM      8  N   UNL     1      -1.917  -1.038   1.121  0.00  0.00    -0.198 NA
ATOM      9  N   UNL     1      -3.695  -2.025   2.295  0.00  0.00    -0.306 N 
ATOM     10  C   UNL     1      -5.069  -2.533   2.309  0.00  0.00    +0.132 C 
ATOM     11  C   UNL     1      -2.882  -2.079   3.513  0.00  0.00    +0.132 C 
ATOM     12  N   UNL     1      -4.152  -0.881  -2.232  0.00  0.00    -0.327 N 
ATOM     13  H   UNL     1      -3.776  -0.507  -3.045  0.00  0.00    +0.145 HD
ATOM     14  H   UNL     1      -5.062  -1.216  -2.228  0.00  0.00    +0.145 HD
ENDBRANCH   2   3
BRANCH   2  15
ATOM     15  S   UNL     1       0.851  -0.589  -1.490  0.00  0.00    -0.077 S 
BRANCH  15  16
ATOM     16  C   UNL     1       2.509  -0.029  -1.285  0.00  0.00    +0.170 A 
ATOM     17  N   UNL     1       2.953   0.648  -0.254  0.00  0.00    -0.222 NA
ATOM     18  C   UNL     1       4.275   0.916  -0.420  0.00  0.00    +0.090 A 
ATOM     19  C   UNL     1       5.221   1.591   0.356  0.00  0.00    +0.030 A 
ATOM     20  C   UNL     1       6.519   1.700  -0.092  0.00  0.00    +0.002 A 
ATOM     21  C   UNL     1       6.894   1.147  -1.307  0.00  0.00    +0.002 A 
ATOM     22  C   UNL     1       5.971   0.478  -2.085  0.00  0.00    +0.028 A 
ATOM     23  C   UNL     1       4.660   0.357  -1.649  0.00  0.00    +0.069 A 
ATOM     24  N   UNL     1       3.525  -0.239  -2.174  0.00  0.00    -0.322 N 
ATOM     25  C   UNL     1       3.431  -0.958  -3.447  0.00  0.00    +0.151 C 
ENDBRANCH  15  16
ENDBRANCH   2  15
TORSDOF 3
