REMARK  Name = ZINC40947065
REMARK  8 active torsions:
REMARK  status: ('A' for Active; 'I' for Inactive)
REMARK    1  A    between atoms: C_1  and  O_2
REMARK    2  A    between atoms: O_2  and  C_3
REMARK    3  A    between atoms: C_5  and  C_11
REMARK    4  A    between atoms: C_8  and  O_9
REMARK    5  A    between atoms: N_12  and  N_13
REMARK    6  A    between atoms: C_14  and  C_16
REMARK    7  A    between atoms: C_16  and  S_17
REMARK    8  A    between atoms: S_17  and  C_18
REMARK                            x       y       z     vdW  Elec       q    Type
REMARK                         _______ _______ _______ _____ _____    ______ ____
ROOT
ATOM      1  N   UNL     1       3.633   0.473   6.202  0.00  0.00    -0.206 N 
ATOM      2  C   UNL     1       4.251  -0.141   7.231  0.00  0.00    +0.242 C 
ATOM      3  O   UNL     1       4.301  -1.352   7.272  0.00  0.00    -0.273 OA
ATOM      4  H   UNL     1       3.593   1.442   6.168  0.00  0.00    +0.177 HD
ENDROOT
BRANCH   1   6
ATOM      5  C   UNL     1       2.455   0.303   4.190  0.00  0.00    +0.138 C 
ATOM      6  N   UNL     1       3.050  -0.288   5.181  0.00  0.00    -0.188 NA
BRANCH   5   9
ATOM      7  C   UNL     1       0.626  -0.619   1.042  0.00  0.00    +0.163 A 
ATOM      8  C   UNL     1       1.200   0.137   2.048  0.00  0.00    +0.059 A 
ATOM      9  C   UNL     1       1.841  -0.498   3.115  0.00  0.00    -0.001 A 
ATOM     10  C   UNL     1       1.898  -1.893   3.161  0.00  0.00    +0.028 A 
ATOM     11  C   UNL     1       1.323  -2.640   2.154  0.00  0.00    +0.063 A 
ATOM     12  C   UNL     1       0.682  -2.009   1.097  0.00  0.00    +0.173 A 
ATOM     13 BR   UNL     1       1.402  -4.529   2.218  0.00  0.00    -0.046 Br
BRANCH   7  15
ATOM     14  C   UNL     1      -0.017   1.425   0.010  0.00  0.00    +0.277 C 
ATOM     15  O   UNL     1       0.002  -0.004   0.002  0.00  0.00    -0.491 OA
ENDBRANCH   7  15
BRANCH  12  16
ATOM     16  O   UNL     1       0.112  -2.751   0.110  0.00  0.00    -0.503 OA
ATOM     17  H   UNL     1       0.708  -2.952  -0.624  0.00  0.00    +0.292 HD
ENDBRANCH  12  16
ENDBRANCH   5   9
ENDBRANCH   1   6
BRANCH   2  18
ATOM     18  C   UNL     1       4.879   0.678   8.329  0.00  0.00    +0.173 C 
BRANCH  18  19
ATOM     19  S   UNL     1       5.624  -0.429   9.558  0.00  0.00    -0.088 S 
BRANCH  19  20
ATOM     20  C   UNL     1       6.306   0.665  10.759  0.00  0.00    +0.160 A 
ATOM     21  N   UNL     1       6.292   1.984  10.793  0.00  0.00    -0.133 NA
ATOM     22  N   UNL     1       6.892   2.648  11.837  0.00  0.00    -0.125 NA
ATOM     23  C   UNL     1       7.479   1.964  12.799  0.00  0.00    +0.180 A 
ATOM     24  S   UNL     1       7.197   0.285  12.260  0.00  0.00    -0.025 S 
ATOM     25  N   UNL     1       8.138   2.426  13.933  0.00  0.00    -0.336 N 
ATOM     26  H   UNL     1       8.209   3.379  14.097  0.00  0.00    +0.144 HD
ATOM     27  H   UNL     1       8.526   1.795  14.559  0.00  0.00    +0.144 HD
ENDBRANCH  19  20
ENDBRANCH  18  19
ENDBRANCH   2  18
TORSDOF 7
