REMARK  Name = ZINC27747884
REMARK  7 active torsions:
REMARK  status: ('A' for Active; 'I' for Inactive)
REMARK    1  A    between atoms: C_1  and  C_2
REMARK    2  A    between atoms: C_2  and  C_3
REMARK    3  A    between atoms: N_8  and  C_11
REMARK    4  A    between atoms: C_11  and  C_12
REMARK    5  A    between atoms: C_16  and  O_24
REMARK    6  A    between atoms: C_20  and  C_22
REMARK    7  A    between atoms: C_20  and  C_23
REMARK                            x       y       z     vdW  Elec       q    Type
REMARK                         _______ _______ _______ _____ _____    ______ ____
ROOT
ATOM      1  C   UNL     1       1.096   4.757   1.940  0.00  0.00    +0.129 C 
ATOM      2  C   UNL     1       0.343   4.253   0.704  0.00  0.00    +0.019 C 
ATOM      3  C   UNL     1       1.303   3.513  -0.213  0.00  0.00    -0.005 C 
ATOM      4  C   UNL     1       1.347   2.008   0.000  0.00  0.00    -0.077 C 
ATOM      5  N   UNL     1      -0.018   1.465   0.010  0.00  0.00    +0.382 N 
ATOM      6  C   UNL     1      -0.731   1.974   1.188  0.00  0.00    -0.077 C 
ATOM      7  C   UNL     1      -0.901   3.480   1.097  0.00  0.00    -0.005 C 
ATOM      8  C   UNL     1      -0.139   5.486  -0.059  0.00  0.00    -0.030 A 
ATOM      9  C   UNL     1      -0.500   5.328  -1.385  0.00  0.00    +0.050 A 
ATOM     10  C   UNL     1      -0.921   6.420  -2.130  0.00  0.00    +0.117 A 
ATOM     11  C   UNL     1      -0.990   7.669  -1.533  0.00  0.00    +0.046 A 
ATOM     12  C   UNL     1      -0.657   7.814  -0.201  0.00  0.00    +0.010 A 
ATOM     13  C   UNL     1      -0.245   6.718   0.546  0.00  0.00    -0.012 A 
ATOM     14  C   UNL     1       0.074   6.923   2.004  0.00  0.00    +0.089 C 
ATOM     15  O   UNL     1       0.250   5.665   2.652  0.00  0.00    -0.365 OA
ATOM     16  C   UNL     1      -1.096   7.653   2.677  0.00  0.00    +0.046 C 
ATOM     17  C   UNL     1       1.337   7.772   2.147  0.00  0.00    +0.046 C 
ATOM     18  H   UNL     1      -0.544   1.792  -0.899  0.00  0.00    -0.081 HD
ENDROOT
BRANCH   1  20
ATOM     19  C   UNL     1       2.347   4.153   4.013  0.00  0.00    +0.006 C 
ATOM     20  C   UNL     1       1.495   3.610   2.865  0.00  0.00    +0.029 C 
ENDBRANCH   1  20
BRANCH  10  21
ATOM     21  O   UNL     1      -1.258   6.265  -3.437  0.00  0.00    -0.507 OA
ATOM     22  H   UNL     1      -1.592   7.133  -4.025  0.00  0.00    +0.292 HD
ENDBRANCH  10  21
BRANCH   5  23
ATOM     23  C   UNL     1       0.002  -0.004   0.002  0.00  0.00    -0.052 C 
BRANCH  23  24
ATOM     24  C   UNL     1      -1.388  -0.527   0.259  0.00  0.00    -0.053 C 
ATOM     25  C   UNL     1      -1.940  -1.361  -0.586  0.00  0.00    +0.002 C 
ENDBRANCH  23  24
ENDBRANCH   5  23
TORSDOF 4
