REMARK  Name = ZINC63383455
REMARK  7 active torsions:
REMARK  status: ('A' for Active; 'I' for Inactive)
REMARK    1  A    between atoms: C_1  and  C_2
REMARK    2  A    between atoms: C_5  and  C_8
REMARK    3  A    between atoms: C_8  and  N_9
REMARK    4  A    between atoms: C_10  and  C_12
REMARK    5  A    between atoms: C_12  and  C_14
REMARK    6  A    between atoms: C_12  and  N_15
REMARK    7  A    between atoms: C_16  and  C_18
REMARK                            x       y       z     vdW  Elec       q    Type
REMARK                         _______ _______ _______ _____ _____    ______ ____
ROOT
ATOM      1  C   UNL     1       4.245 -10.186   0.416  0.00  0.00    +0.167 C 
ATOM      2  C   UNL     1       3.157 -10.726   1.365  0.00  0.00    +0.065 C 
ATOM      3  C   UNL     1       3.851 -11.595   2.383  0.00  0.00    -0.034 C 
ATOM      4  C   UNL     1       3.791 -11.583   3.712  0.00  0.00    -0.001 A 
ATOM      5  C   UNL     1       2.966 -10.800   4.646  0.00  0.00    +0.010 A 
ATOM      6  C   UNL     1       3.176 -11.033   5.970  0.00  0.00    +0.001 A 
ATOM      7  C   UNL     1       4.112 -11.953   6.450  0.00  0.00    +0.002 A 
ATOM      8  C   UNL     1       4.909 -12.719   5.663  0.00  0.00    +0.026 A 
ATOM      9  C   UNL     1       4.774 -12.571   4.252  0.00  0.00    +0.043 A 
ATOM     10  N   UNL     1       5.383 -13.183   3.280  0.00  0.00    -0.375 N 
ATOM     11  C   UNL     1       4.827 -12.703   2.013  0.00  0.00    +0.131 C 
ATOM     12  C   UNL     1       5.897 -12.085   1.115  0.00  0.00    +0.134 C 
ATOM     13  N   UNL     1       5.547 -10.668   0.894  0.00  0.00    -0.276 N 
ATOM     14  C   UNL     1       6.610  -9.909   1.222  0.00  0.00    +0.248 C 
ATOM     15  O   UNL     1       6.690  -8.709   1.046  0.00  0.00    -0.270 OA
ATOM     16  C   UNL     1       7.654 -10.740   1.824  0.00  0.00    +0.042 A 
ATOM     17  C   UNL     1       7.238 -12.096   1.771  0.00  0.00    -0.013 A 
ATOM     18  C   UNL     1       8.013 -13.122   2.264  0.00  0.00    +0.006 A 
ATOM     19  C   UNL     1       9.242 -12.776   2.818  0.00  0.00    +0.000 A 
ATOM     20  C   UNL     1       9.672 -11.465   2.872  0.00  0.00    +0.001 A 
ATOM     21  C   UNL     1       8.890 -10.395   2.377  0.00  0.00    +0.013 A 
ATOM     22  H   UNL     1       6.086 -13.844   3.377  0.00  0.00    +0.160 HD
ENDROOT
BRANCH   1  24
ATOM     23  N   UNL     1       3.851  -8.004  -0.680  0.00  0.00    -0.303 N 
ATOM     24  C   UNL     1       4.225  -8.679   0.425  0.00  0.00    +0.234 C 
ATOM     25  O   UNL     1       4.547  -8.074   1.425  0.00  0.00    -0.274 OA
ATOM     26  H   UNL     1       3.594  -8.488  -1.480  0.00  0.00    +0.149 HD
BRANCH  23  27
ATOM     27  C   UNL     1       3.832  -6.539  -0.672  0.00  0.00    +0.156 C 
ATOM     28  C   UNL     1       5.229  -6.009  -1.000  0.00  0.00    +0.038 C 
BRANCH  27  30
ATOM     29  N   UNL     1       2.666  -4.720  -1.876  0.00  0.00    -0.310 N 
ATOM     30  C   UNL     1       2.852  -6.044  -1.704  0.00  0.00    +0.233 C 
ATOM     31  O   UNL     1       2.230  -6.836  -2.379  0.00  0.00    -0.274 OA
ATOM     32  H   UNL     1       3.163  -4.086  -1.335  0.00  0.00    +0.149 HD
BRANCH  29  33
ATOM     33  C   UNL     1       1.712  -4.238  -2.879  0.00  0.00    +0.139 C 
BRANCH  33  38
ATOM     34  C   UNL     1       1.636   1.540  -2.849  0.00  0.00    +0.044 C 
ATOM     35  C   UNL     1       1.656   0.033  -2.857  0.00  0.00    -0.050 A 
ATOM     36  C   UNL     1       2.537  -0.642  -3.680  0.00  0.00    +0.003 A 
ATOM     37  C   UNL     1       2.556  -2.025  -3.687  0.00  0.00    +0.005 A 
ATOM     38  C   UNL     1       1.693  -2.731  -2.870  0.00  0.00    -0.030 A 
ATOM     39  C   UNL     1       0.812  -2.056  -2.046  0.00  0.00    +0.005 A 
ATOM     40  C   UNL     1       0.797  -0.674  -2.036  0.00  0.00    +0.003 A 
ENDBRANCH  33  38
ENDBRANCH  29  33
ENDBRANCH  27  30
ENDBRANCH  23  27
ENDBRANCH   1  24
TORSDOF 5
