REMARK  Name = ZINC67195969
REMARK  11 active torsions:
REMARK  status: ('A' for Active; 'I' for Inactive)
REMARK    1  A    between atoms: C_1  and  C_2
REMARK    2  A    between atoms: C_2  and  C_3
REMARK    3  A    between atoms: C_3  and  C_4
REMARK    4  A    between atoms: C_4  and  N_5
REMARK    5  A    between atoms: C_10  and  C_12
REMARK    6  A    between atoms: N_14  and  N_15
REMARK    7  A    between atoms: N_15  and  C_16
REMARK    8  A    between atoms: C_16  and  N_18
REMARK    9  A    between atoms: N_18  and  C_19
REMARK   10  A    between atoms: C_22  and  O_26
REMARK   11  A    between atoms: O_26  and  C_27
REMARK                            x       y       z     vdW  Elec       q    Type
REMARK                         _______ _______ _______ _____ _____    ______ ____
ROOT
ATOM      1  C   UNL     1      -5.152  -3.440   2.508  0.00  0.00    +0.280 C 
ATOM      2  O   UNL     1      -6.352  -3.631   2.551  0.00  0.00    -0.267 OA
ATOM      3  N   UNL     1      -4.467  -3.200   3.643  0.00  0.00    -0.230 N 
ATOM      4  H   UNL     1      -3.510  -3.047   3.609  0.00  0.00    +0.173 HD
ENDROOT
BRANCH   1  10
ATOM      5  N   UNL     1      -2.488  -3.279   0.064  0.00  0.00    -0.229 N 
ATOM      6  C   UNL     1      -3.088  -3.511  -1.119  0.00  0.00    +0.267 A 
ATOM      7  O   UNL     1      -2.433  -3.520  -2.148  0.00  0.00    -0.266 OA
ATOM      8  C   UNL     1      -4.481  -3.743  -1.160  0.00  0.00    +0.074 A 
ATOM      9  C   UNL     1      -5.167  -3.723   0.018  0.00  0.00    +0.040 A 
ATOM     10  C   UNL     1      -4.444  -3.470   1.210  0.00  0.00    +0.147 A 
ATOM     11  N   UNL     1      -3.147  -3.268   1.166  0.00  0.00    -0.164 NA
BRANCH   5  12
ATOM     12  C   UNL     1      -1.043  -3.039   0.095  0.00  0.00    +0.147 C 
BRANCH  12  13
ATOM     13  C   UNL     1      -0.771  -1.541  -0.047  0.00  0.00    +0.023 C 
BRANCH  13  15
ATOM     14  C   UNL     1       1.009   0.209  -0.156  0.00  0.00    +0.004 C 
ATOM     15  C   UNL     1       0.738  -1.290  -0.014  0.00  0.00    -0.002 C 
ENDBRANCH  13  15
ENDBRANCH  12  13
ENDBRANCH   5  12
ENDBRANCH   1  10
BRANCH   3  16
ATOM     16  N   UNL     1      -5.137  -3.171   4.873  0.00  0.00    -0.245 N 
ATOM     17  H   UNL     1      -6.094  -3.324   4.907  0.00  0.00    +0.172 HD
BRANCH  16  18
ATOM     18  C   UNL     1      -4.452  -2.931   6.009  0.00  0.00    +0.151 C 
ATOM     19  S   UNL     1      -5.271  -2.895   7.511  0.00  0.00    -0.017 S 
BRANCH  18  20
ATOM     20  N   UNL     1      -3.122  -2.718   5.961  0.00  0.00    -0.296 N 
ATOM     21  H   UNL     1      -2.644  -2.817   5.122  0.00  0.00    +0.154 HD
BRANCH  20  22
ATOM     22  C   UNL     1      -2.428  -2.354   7.122  0.00  0.00    +0.036 A 
ATOM     23  C   UNL     1      -1.188  -2.916   7.396  0.00  0.00    +0.027 A 
ATOM     24  C   UNL     1      -0.505  -2.558   8.541  0.00  0.00    +0.050 A 
ATOM     25  C   UNL     1      -1.055  -1.636   9.418  0.00  0.00    +0.155 A 
ATOM     26  C   UNL     1      -2.296  -1.073   9.146  0.00  0.00    +0.167 A 
ATOM     27  C   UNL     1      -2.978  -1.427   7.997  0.00  0.00    +0.065 A 
ATOM     28  F   UNL     1      -2.832  -0.175  10.002  0.00  0.00    -0.202 F 
BRANCH  25  29
ATOM     29  O   UNL     1      -0.381  -1.284  10.546  0.00  0.00    -0.492 OA
ATOM     30  C   UNL     1       0.889  -1.902  10.763  0.00  0.00    +0.277 C 
ENDBRANCH  25  29
ENDBRANCH  20  22
ENDBRANCH  18  20
ENDBRANCH  16  18
ENDBRANCH   3  16
TORSDOF 9
