REMARK  Name = ZINC15246302
REMARK  12 active torsions:
REMARK  status: ('A' for Active; 'I' for Inactive)
REMARK    1  A    between atoms: C_1  and  C_2
REMARK    2  A    between atoms: C_2  and  C_3
REMARK    3  A    between atoms: C_2  and  C_4
REMARK    4  A    between atoms: C_4  and  C_5
REMARK    5  A    between atoms: C_5  and  N_6
REMARK    6  A    between atoms: C_19  and  S_20
REMARK    7  A    between atoms: S_20  and  C_21
REMARK    8  A    between atoms: C_21  and  C_22
REMARK    9  A    between atoms: C_22  and  C_24
REMARK   10  A    between atoms: C_22  and  O_33
REMARK   11  A    between atoms: C_24  and  O_25
REMARK   12  A    between atoms: O_25  and  C_26
REMARK                            x       y       z     vdW  Elec       q    Type
REMARK                         _______ _______ _______ _____ _____    ______ ____
ROOT
ATOM      1  N   UNL     1      -1.078   2.201   0.019  0.00  0.00    -0.277 N 
ATOM      2  C   UNL     1      -0.869   3.533   0.028  0.00  0.00    +0.263 A 
ATOM      3  O   UNL     1      -1.807   4.307   0.041  0.00  0.00    -0.267 OA
ATOM      4  C   UNL     1       0.517   4.035   0.018  0.00  0.00    +0.064 A 
ATOM      5  C   UNL     1       0.792   5.402   0.022  0.00  0.00    +0.015 A 
ATOM      6  C   UNL     1       2.102   5.833   0.013  0.00  0.00    +0.001 A 
ATOM      7  C   UNL     1       3.141   4.916  -0.001  0.00  0.00    +0.002 A 
ATOM      8  C   UNL     1       2.882   3.560  -0.006  0.00  0.00    +0.027 A 
ATOM      9  C   UNL     1       1.571   3.108   0.003  0.00  0.00    +0.064 A 
ATOM     10  N   UNL     1       1.281   1.746  -0.001  0.00  0.00    -0.256 N 
ATOM     11  C   UNL     1      -0.016   1.310   0.009  0.00  0.00    +0.240 A 
ATOM     12  N   UNL     1       0.002  -0.004   0.002  0.00  0.00    -0.109 NA
ATOM     13  N   UNL     1       1.338  -0.422  -0.013  0.00  0.00    -0.120 NA
ATOM     14  C   UNL     1       2.098   0.647  -0.015  0.00  0.00    +0.198 A 
ENDROOT
BRANCH   1  15
ATOM     15  C   UNL     1      -2.450   1.687   0.023  0.00  0.00    +0.128 C 
BRANCH  15  16
ATOM     16  C   UNL     1      -2.921   1.500   1.467  0.00  0.00    +0.025 C 
BRANCH  16  18
ATOM     17  C   UNL     1      -4.375  -0.437   0.855  0.00  0.00    +0.007 C 
ATOM     18  C   UNL     1      -4.353   0.963   1.472  0.00  0.00    -0.016 C 
ATOM     19  C   UNL     1      -4.868   0.895   2.911  0.00  0.00    +0.007 C 
ENDBRANCH  16  18
ENDBRANCH  15  16
ENDBRANCH   1  15
BRANCH  14  20
ATOM     20  S   UNL     1       3.859   0.665  -0.030  0.00  0.00    -0.083 S 
BRANCH  20  21
ATOM     21  C   UNL     1       4.317  -1.090  -0.044  0.00  0.00    +0.112 C 
BRANCH  21  22
ATOM     22  C   UNL     1       5.841  -1.220  -0.059  0.00  0.00    +0.162 C 
BRANCH  22  23
ATOM     23  O   UNL     1       6.375  -0.700   1.160  0.00  0.00    -0.388 OA
ATOM     24  H   UNL     1       6.058  -1.152   1.954  0.00  0.00    +0.210 HD
ENDBRANCH  22  23
BRANCH  22  25
ATOM     25  C   UNL     1       6.226  -2.694  -0.196  0.00  0.00    +0.261 C 
BRANCH  25  26
ATOM     26  O   UNL     1       7.645  -2.806  -0.327  0.00  0.00    -0.489 OA
BRANCH  26  27
ATOM     27  C   UNL     1       8.155  -4.059  -0.459  0.00  0.00    +0.121 A 
ATOM     28  C   UNL     1       7.309  -5.157  -0.458  0.00  0.00    +0.047 A 
ATOM     29  C   UNL     1       7.830  -6.429  -0.597  0.00  0.00    +0.023 A 
ATOM     30  C   UNL     1       9.195  -6.608  -0.728  0.00  0.00    +0.041 A 
ATOM     31  C   UNL     1      10.042  -5.514  -0.725  0.00  0.00    +0.023 A 
ATOM     32  C   UNL     1       9.524  -4.240  -0.591  0.00  0.00    +0.047 A 
ATOM     33 CL   UNL     1       9.848  -8.208  -0.897  0.00  0.00    -0.084 Cl
ENDBRANCH  26  27
ENDBRANCH  25  26
ENDBRANCH  22  25
ENDBRANCH  21  22
ENDBRANCH  20  21
ENDBRANCH  14  20
TORSDOF 10
