REMARK  Name = ZINC46720441
REMARK  9 active torsions:
REMARK  status: ('A' for Active; 'I' for Inactive)
REMARK    1  A    between atoms: C_1  and  C_2
REMARK    2  A    between atoms: C_2  and  C_4
REMARK    3  A    between atoms: C_2  and  N_13
REMARK    4  A    between atoms: C_7  and  O_11
REMARK    5  A    between atoms: O_11  and  C_12
REMARK    6  A    between atoms: N_13  and  C_14
REMARK    7  A    between atoms: C_17  and  N_28
REMARK    8  A    between atoms: C_19  and  S_20
REMARK    9  A    between atoms: S_20  and  N_23
REMARK                            x       y       z     vdW  Elec       q    Type
REMARK                         _______ _______ _______ _____ _____    ______ ____
ROOT
ATOM      1  C   UNL     1       2.103  -0.604   1.173  0.00  0.00    +0.054 A 
ATOM      2  C   UNL     1       2.817  -0.252   0.035  0.00  0.00    +0.027 A 
ATOM      3  C   UNL     1       4.193  -0.366   0.023  0.00  0.00    +0.034 A 
ATOM      4  C   UNL     1       4.860  -0.830   1.142  0.00  0.00    +0.128 A 
ATOM      5  C   UNL     1       4.152  -1.181   2.277  0.00  0.00    +0.063 A 
ATOM      6  C   UNL     1       2.776  -1.064   2.297  0.00  0.00    +0.128 A 
ENDROOT
BRANCH   6   7
ATOM      7  S   UNL     1       1.875  -1.504   3.746  0.00  0.00    +0.063 S 
ATOM      8  O   UNL     1       0.818  -2.355   3.324  0.00  0.00    -0.153 OA
ATOM      9  O   UNL     1       2.834  -1.905   4.715  0.00  0.00    -0.153 OA
BRANCH   7  10
ATOM     10  N   UNL     1       1.168  -0.122   4.323  0.00  0.00    -0.177 NA
ATOM     11  C   UNL     1       1.772   0.813   5.283  0.00  0.00    +0.109 C 
ATOM     12  C   UNL     1       0.742   1.932   5.543  0.00  0.00    +0.018 C 
ATOM     13  C   UNL     1      -0.602   1.265   5.149  0.00  0.00    +0.018 C 
ATOM     14  C   UNL     1      -0.168   0.378   3.953  0.00  0.00    +0.109 C 
ENDBRANCH   7  10
ENDBRANCH   6   7
BRANCH   4  15
ATOM     15  N   UNL     1       6.335  -0.950   1.126  0.00  0.00    +0.056 N 
ATOM     16  O   UNL     1       6.956  -0.644   0.134  0.00  0.00    -0.126 OA
ATOM     17  O   UNL     1       6.920  -1.355   2.104  0.00  0.00    -0.126 OA
ENDBRANCH   4  15
BRANCH   1  18
ATOM     18  N   UNL     1       0.711  -0.489   1.189  0.00  0.00    -0.336 N 
ATOM     19  H   UNL     1       0.213  -0.731   1.986  0.00  0.00    +0.147 HD
BRANCH  18  21
ATOM     20  C   UNL     1      -0.019   1.526   0.010  0.00  0.00    +0.033 C 
ATOM     21  C   UNL     1       0.002  -0.004   0.002  0.00  0.00    +0.098 C 
BRANCH  21  22
ATOM     22  C   UNL     1      -1.412  -0.526   0.013  0.00  0.00    -0.026 A 
ATOM     23  C   UNL     1      -2.122  -0.570   1.198  0.00  0.00    +0.009 A 
ATOM     24  C   UNL     1      -3.418  -1.048   1.211  0.00  0.00    +0.047 A 
ATOM     25  C   UNL     1      -4.008  -1.484   0.034  0.00  0.00    +0.134 A 
ATOM     26  C   UNL     1      -3.293  -1.438  -1.155  0.00  0.00    +0.060 A 
ATOM     27  C   UNL     1      -1.998  -0.953  -1.164  0.00  0.00    +0.024 A 
ATOM     28 BR   UNL     1      -4.092  -2.030  -2.764  0.00  0.00    -0.047 Br
BRANCH  25  29
ATOM     29  O   UNL     1      -5.282  -1.955   0.044  0.00  0.00    -0.494 OA
ATOM     30  C   UNL     1      -5.957  -1.974   1.304  0.00  0.00    +0.277 C 
ENDBRANCH  25  29
ENDBRANCH  21  22
ENDBRANCH  18  21
ENDBRANCH   1  18
TORSDOF 7
