REMARK  Name = ZINC15836311
REMARK  5 active torsions:
REMARK  status: ('A' for Active; 'I' for Inactive)
REMARK    1  A    between atoms: C_1  and  C_2
REMARK    2  A    between atoms: C_4  and  N_24
REMARK    3  A    between atoms: C_6  and  C_9
REMARK    4  A    between atoms: C_7  and  O_8
REMARK    5  A    between atoms: N_14  and  C_17
REMARK                            x       y       z     vdW  Elec       q    Type
REMARK                         _______ _______ _______ _____ _____    ______ ____
ROOT
ATOM      1  C   UNL     1       0.052  -2.860   2.440  0.00  0.00    +0.030 C 
ATOM      2  C   UNL     1      -0.034  -4.236   2.422  0.00  0.00    +0.102 C 
ATOM      3  C   UNL     1      -0.142  -5.144   3.581  0.00  0.00    +0.266 C 
ATOM      4  O   UNL     1      -0.173  -4.822   4.753  0.00  0.00    -0.268 OA
ATOM      5  N   UNL     1      -0.199  -6.397   3.091  0.00  0.00    -0.223 N 
ATOM      6  N   UNL     1      -0.137  -6.382   1.698  0.00  0.00    -0.184 N 
ATOM      7  C   UNL     1      -0.044  -5.119   1.240  0.00  0.00    +0.272 C 
ATOM      8  O   UNL     1       0.022  -4.773   0.076  0.00  0.00    -0.268 OA
ATOM      9  H   UNL     1      -0.273  -7.198   3.632  0.00  0.00    +0.174 HD
ENDROOT
BRANCH   1  15
ATOM     10  C   UNL     1       1.662   0.879  -0.453  0.00  0.00    +0.047 C 
ATOM     11  C   UNL     1       0.754  -0.300  -0.217  0.00  0.00    -0.006 A 
ATOM     12  C   UNL     1      -0.155  -0.676  -1.187  0.00  0.00    +0.039 A 
ATOM     13  C   UNL     1      -0.996  -1.759  -0.982  0.00  0.00    +0.127 A 
ATOM     14  C   UNL     1      -0.936  -2.474   0.193  0.00  0.00    +0.044 A 
ATOM     15  C   UNL     1      -0.019  -2.106   1.188  0.00  0.00    +0.020 A 
ATOM     16  C   UNL     1       0.836  -1.009   0.972  0.00  0.00    +0.127 A 
BRANCH  13  17
ATOM     17  N   UNL     1      -1.964  -2.148  -2.031  0.00  0.00    +0.056 N 
ATOM     18  O   UNL     1      -2.020  -1.522  -3.064  0.00  0.00    -0.126 OA
ATOM     19  O   UNL     1      -2.699  -3.092  -1.856  0.00  0.00    -0.126 OA
ENDBRANCH  13  17
BRANCH  16  20
ATOM     20  O   UNL     1       1.732  -0.645   1.922  0.00  0.00    -0.506 OA
ATOM     21  H   UNL     1       1.390  -0.003   2.559  0.00  0.00    +0.292 HD
ENDBRANCH  16  20
ENDBRANCH   1  15
BRANCH   6  22
ATOM     22  C   UNL     1      -0.174  -7.522   0.887  0.00  0.00    +0.056 A 
ATOM     23  C   UNL     1      -0.099  -7.396  -0.494  0.00  0.00    +0.026 A 
ATOM     24  C   UNL     1      -0.135  -8.523  -1.292  0.00  0.00    +0.017 A 
ATOM     25  C   UNL     1      -0.246  -9.776  -0.716  0.00  0.00    +0.018 A 
ATOM     26  C   UNL     1      -0.320  -9.905   0.659  0.00  0.00    +0.017 A 
ATOM     27  C   UNL     1      -0.279  -8.782   1.462  0.00  0.00    +0.026 A 
ATOM     28 BR   UNL     1      -0.296 -11.317  -1.812  0.00  0.00    -0.050 Br
ENDBRANCH   6  22
TORSDOF 4
