REMARK  Name = ZINC25601518
REMARK  12 active torsions:
REMARK  status: ('A' for Active; 'I' for Inactive)
REMARK    1  A    between atoms: C_1  and  C_2
REMARK    2  A    between atoms: C_5  and  O_26
REMARK    3  A    between atoms: C_6  and  N_8
REMARK    4  A    between atoms: C_9  and  C_11
REMARK    5  A    between atoms: C_11  and  N_12
REMARK    6  A    between atoms: C_13  and  C_15
REMARK    7  A    between atoms: C_17  and  C_22
REMARK    8  A    between atoms: C_19  and  C_20
REMARK    9  A    between atoms: C_19  and  C_21
REMARK   10  A    between atoms: C_23  and  C_24
REMARK   11  A    between atoms: C_23  and  C_25
REMARK   12  A    between atoms: O_26  and  C_27
REMARK                            x       y       z     vdW  Elec       q    Type
REMARK                         _______ _______ _______ _____ _____    ______ ____
ROOT
ATOM      1  C   UNL     1       0.114  -5.484  -1.674  0.00  0.00    +0.200 C 
ENDROOT
BRANCH   1   3
ATOM      2  N   UNL     1       0.649  -4.079  -3.639  0.00  0.00    -0.281 N 
ATOM      3  C   UNL     1       0.418  -5.310  -3.140  0.00  0.00    +0.234 C 
ATOM      4  O   UNL     1       0.454  -6.277  -3.871  0.00  0.00    -0.274 OA
ATOM      5  H   UNL     1       0.679  -3.210  -2.966  0.00  0.00    +0.155 HD
BRANCH   2  11
ATOM      6  C   UNL     1       0.159  -5.765  -8.232  0.00  0.00    +0.044 C 
ATOM      7  C   UNL     1       0.626  -4.709  -7.263  0.00  0.00    -0.048 A 
ATOM      8  C   UNL     1       1.259  -3.573  -7.734  0.00  0.00    +0.007 A 
ATOM      9  C   UNL     1       1.689  -2.600  -6.851  0.00  0.00    +0.048 A 
ATOM     10  C   UNL     1       1.486  -2.762  -5.490  0.00  0.00    +0.141 A 
ATOM     11  C   UNL     1       0.853  -3.908  -5.014  0.00  0.00    +0.076 A 
ATOM     12  C   UNL     1       0.419  -4.877  -5.907  0.00  0.00    +0.030 A 
BRANCH  10  13
ATOM     13  O   UNL     1       1.908  -1.806  -4.619  0.00  0.00    -0.493 OA
ATOM     14  C   UNL     1       2.555  -0.661  -5.178  0.00  0.00    +0.277 C 
ENDBRANCH  10  13
ENDBRANCH   2  11
ENDBRANCH   1   3
BRANCH   1  15
ATOM     15  N   UNL     1      -0.098  -6.904  -1.384  0.00  0.00    -0.306 N 
ATOM     16  C   UNL     1      -0.385  -7.300  -0.128  0.00  0.00    +0.218 C 
ATOM     17  O   UNL     1      -0.468  -6.480   0.762  0.00  0.00    -0.275 OA
ATOM     18  H   UNL     1      -0.022  -7.647  -2.192  0.00  0.00    +0.149 HD
BRANCH  16  19
ATOM     19  C   UNL     1      -0.603  -8.761   0.170  0.00  0.00    +0.089 C 
ATOM     20  C   UNL     1      -1.505  -9.113   1.354  0.00  0.00    +0.030 C 
ATOM     21  C   UNL     1      -2.001  -9.331  -0.077  0.00  0.00    -0.016 C 
ATOM     22  C   UNL     1      -3.071  -8.374  -0.607  0.00  0.00    +0.012 C 
ATOM     23  C   UNL     1      -2.097 -10.773  -0.579  0.00  0.00    +0.012 C 
BRANCH  20  24
ATOM     24  C   UNL     1      -1.149 -10.335   2.161  0.00  0.00    -0.023 C 
ATOM     25  C   UNL     1      -1.781 -10.589   3.280  0.00  0.00    -0.079 C 
ATOM     26  C   UNL     1      -2.865  -9.659   3.760  0.00  0.00    +0.038 C 
ATOM     27  C   UNL     1      -1.425 -11.811   4.086  0.00  0.00    +0.038 C 
ENDBRANCH  20  24
ENDBRANCH  16  19
ENDBRANCH   1  15
TORSDOF 6
