REMARK  Name = ZINC64057921
REMARK  11 active torsions:
REMARK  status: ('A' for Active; 'I' for Inactive)
REMARK    1  A    between atoms: C_1  and  C_2
REMARK    2  A    between atoms: C_6  and  C_21
REMARK    3  A    between atoms: C_8  and  C_15
REMARK    4  A    between atoms: N_10  and  C_11
REMARK    5  A    between atoms: C_11  and  C_12
REMARK    6  A    between atoms: C_12  and  O_13
REMARK    7  A    between atoms: O_13  and  C_14
REMARK    8  A    between atoms: C_15  and  C_16
REMARK    9  A    between atoms: N_23  and  C_24
REMARK   10  A    between atoms: C_24  and  C_26
REMARK   11  A    between atoms: C_24  and  C_27
REMARK                            x       y       z     vdW  Elec       q    Type
REMARK                         _______ _______ _______ _____ _____    ______ ____
ROOT
ATOM      1  C   UNL     1      -1.247   1.089   1.505  0.00  0.00    +0.060 C 
ATOM      2  C   UNL     1      -0.631  -0.252   1.199  0.00  0.00    +0.007 C 
ATOM      3  C   UNL     1      -0.208  -0.536  -0.056  0.00  0.00    +0.065 C 
ATOM      4  C   UNL     1       0.351  -1.783  -0.362  0.00  0.00    +0.171 C 
ATOM      5  O   UNL     1       0.741  -2.008  -1.491  0.00  0.00    -0.292 OA
ATOM      6  C   UNL     1       0.471  -2.849   0.698  0.00  0.00    +0.165 C 
ATOM      7  C   UNL     1       0.586  -2.175   2.071  0.00  0.00    +0.093 C 
ATOM      8  N   UNL     1      -0.491  -1.184   2.188  0.00  0.00    -0.327 N 
ENDROOT
BRANCH   6   9
ATOM      9  C   UNL     1      -0.750  -3.731   0.667  0.00  0.00    +0.226 C 
ATOM     10  O   UNL     1      -1.266  -4.088   1.704  0.00  0.00    -0.275 OA
ATOM     11  N   UNL     1      -1.268  -4.124  -0.514  0.00  0.00    -0.308 N 
ATOM     12  H   UNL     1      -0.819  -3.891  -1.342  0.00  0.00    +0.149 HD
BRANCH  11  13
ATOM     13  C   UNL     1      -2.508  -4.902  -0.547  0.00  0.00    +0.112 C 
ATOM     14  C   UNL     1      -3.653  -4.017  -1.045  0.00  0.00    +0.032 C 
BRANCH  13  15
ATOM     15  C   UNL     1      -2.338  -6.094  -1.491  0.00  0.00    +0.194 C 
ATOM     16  N   UNL     1      -1.377  -7.051  -0.927  0.00  0.00    -0.362 N 
ATOM     17  C   UNL     1      -2.004  -8.179  -0.756  0.00  0.00    +0.060 A 
ATOM     18  C   UNL     1      -1.583  -9.487  -0.236  0.00  0.00    +0.027 A 
ATOM     19  C   UNL     1      -2.473 -10.497  -0.175  0.00  0.00    +0.002 A 
ATOM     20  C   UNL     1      -3.808 -10.356  -0.595  0.00  0.00    +0.002 A 
ATOM     21  C   UNL     1      -4.298  -9.201  -1.087  0.00  0.00    +0.027 A 
ATOM     22  C   UNL     1      -3.417  -8.030  -1.199  0.00  0.00    +0.060 A 
ATOM     23  N   UNL     1      -3.610  -6.816  -1.627  0.00  0.00    -0.362 N 
ATOM     24  H   UNL     1      -0.446  -6.874  -0.720  0.00  0.00    +0.162 HD
ATOM     25  H   UNL     1      -4.441  -6.454  -1.972  0.00  0.00    +0.162 HD
ENDBRANCH  13  15
ENDBRANCH  11  13
ENDBRANCH   6   9
BRANCH   8  26
ATOM     26  C   UNL     1      -1.398  -1.198   3.339  0.00  0.00    +0.133 C 
BRANCH  26  27
ATOM     27  C   UNL     1      -2.831  -1.428   2.856  0.00  0.00    +0.178 C 
BRANCH  27  28
ATOM     28  O   UNL     1      -2.959  -2.761   2.358  0.00  0.00    -0.381 OA
ATOM     29  C   UNL     1      -4.299  -3.134   2.031  0.00  0.00    +0.194 C 
ENDBRANCH  27  28
ENDBRANCH  26  27
ENDBRANCH   8  26
BRANCH   7  30
ATOM     30  C   UNL     1       1.942  -1.477   2.192  0.00  0.00    +0.027 C 
BRANCH  30  31
ATOM     31  C   UNL     1       2.103  -0.917   3.607  0.00  0.00    -0.009 C 
ATOM     32  C   UNL     1       1.170   0.296   3.804  0.00  0.00    +0.003 C 
ATOM     33  C   UNL     1       1.994   1.270   4.682  0.00  0.00    +0.000 C 
ATOM     34  C   UNL     1       3.429   1.102   4.125  0.00  0.00    +0.000 C 
ATOM     35  C   UNL     1       3.539  -0.404   3.810  0.00  0.00    +0.003 C 
ENDBRANCH  30  31
ENDBRANCH   7  30
TORSDOF 8
