REMARK  Name = ZINC11828421
REMARK  13 active torsions:
REMARK  status: ('A' for Active; 'I' for Inactive)
REMARK    1  A    between atoms: C_1  and  C_2
REMARK    2  A    between atoms: C_5  and  C_24
REMARK    3  A    between atoms: C_6  and  O_9
REMARK    4  A    between atoms: C_7  and  C_8
REMARK    5  A    between atoms: O_9  and  C_10
REMARK    6  A    between atoms: C_10  and  C_11
REMARK    7  A    between atoms: C_11  and  O_12
REMARK    8  A    between atoms: O_12  and  C_13
REMARK    9  A    between atoms: C_14  and  O_22
REMARK   10  A    between atoms: C_16  and  C_20
REMARK   11  A    between atoms: C_20  and  C_21
REMARK   12  A    between atoms: C_21  and  N_51
REMARK   13  A    between atoms: O_22  and  C_23
REMARK                            x       y       z     vdW  Elec       q    Type
REMARK                         _______ _______ _______ _____ _____    ______ ____
ROOT
ATOM      1  C   UNL     1       0.002  -0.004   0.002  0.00  0.00    +0.180 A 
ATOM      2  C   UNL     1      -0.017   1.387   0.010  0.00  0.00    +0.163 A 
ATOM      3  C   UNL     1       1.175   2.094   0.002  0.00  0.00    +0.053 A 
ATOM      4  C   UNL     1       2.381   1.416  -0.013  0.00  0.00    -0.044 A 
ATOM      5  C   UNL     1       2.400   0.034  -0.021  0.00  0.00    +0.027 A 
ATOM      6  C   UNL     1       1.214  -0.677  -0.013  0.00  0.00    +0.086 A 
ATOM      7 CL   UNL     1       1.242  -2.413  -0.023  0.00  0.00    -0.080 Cl
ENDROOT
BRANCH   2   8
ATOM      8  O   UNL     1      -1.203   2.053   0.019  0.00  0.00    -0.491 OA
ATOM      9  C   UNL     1      -1.146   3.480   0.026  0.00  0.00    +0.277 C 
ENDBRANCH   2   8
BRANCH   1  10
ATOM     10  O   UNL     1      -1.166  -0.702   0.010  0.00  0.00    -0.483 OA
BRANCH  10  11
ATOM     11  C   UNL     1      -1.735  -1.028  -1.260  0.00  0.00    +0.270 C 
BRANCH  11  12
ATOM     12  C   UNL     1      -3.035  -1.807  -1.050  0.00  0.00    +0.270 C 
BRANCH  12  13
ATOM     13  O   UNL     1      -3.997  -0.966  -0.409  0.00  0.00    -0.488 OA
BRANCH  13  19
ATOM     14  C   UNL     1      -6.934  -3.407   2.630  0.00  0.00    +0.044 C 
ATOM     15  C   UNL     1      -6.684  -2.705   1.319  0.00  0.00    -0.044 A 
ATOM     16  C   UNL     1      -7.695  -2.614   0.381  0.00  0.00    +0.004 A 
ATOM     17  C   UNL     1      -7.469  -1.970  -0.822  0.00  0.00    +0.007 A 
ATOM     18  C   UNL     1      -6.233  -1.413  -1.087  0.00  0.00    -0.009 A 
ATOM     19  C   UNL     1      -5.215  -1.508  -0.149  0.00  0.00    +0.127 A 
ATOM     20  C   UNL     1      -5.444  -2.154   1.057  0.00  0.00    -0.006 A 
ATOM     21  C   UNL     1      -4.343  -2.254   2.081  0.00  0.00    +0.048 C 
ATOM     22  C   UNL     1      -5.989  -0.707  -2.395  0.00  0.00    +0.047 C 
ENDBRANCH  13  19
ENDBRANCH  12  13
ENDBRANCH  11  12
ENDBRANCH  10  11
ENDBRANCH   1  10
BRANCH   4  23
ATOM     23  C   UNL     1       3.676   2.187  -0.021  0.00  0.00    +0.016 C 
BRANCH  23  24
ATOM     24  C   UNL     1       4.100   2.455  -1.466  0.00  0.00    -0.082 C 
BRANCH  24  27
ATOM     25  H   UNL     1       6.078   2.716  -0.958  0.00  0.00    -0.090 HD
ATOM     26  H   UNL     1       5.665   3.396  -2.418  0.00  0.00    -0.090 HD
ATOM     27  N   UNL     1       5.355   3.227  -1.463  0.00  0.00    +0.378 N 
ATOM     28  H   UNL     1       5.196   4.129  -0.998  0.00  0.00    -0.090 HD
ENDBRANCH  24  27
ENDBRANCH  23  24
ENDBRANCH   4  23
TORSDOF 9
