REMARK  Name = ZINC39935509
REMARK  4 active torsions:
REMARK  status: ('A' for Active; 'I' for Inactive)
REMARK    1  A    between atoms: C_1  and  C_2
REMARK    2  A    between atoms: N_16  and  N_17
REMARK    3  A    between atoms: C_18  and  C_19
REMARK    4  A    between atoms: C_24  and  O_25
REMARK                            x       y       z     vdW  Elec       q    Type
REMARK                         _______ _______ _______ _____ _____    ______ ____
ROOT
ATOM      1  C   UNL     1      -0.018   1.503   0.010  0.00  0.00    +0.046 C 
ATOM      2  C   UNL     1       0.002  -0.004   0.002  0.00  0.00    -0.027 A 
ATOM      3  C   UNL     1       0.006  -0.675  -1.173  0.00  0.00    +0.005 A 
ATOM      4  C   UNL     1       0.022  -2.074  -1.222  0.00  0.00    +0.001 A 
ATOM      5  C   UNL     1       0.076  -2.825  -0.094  0.00  0.00    +0.012 A 
ATOM      6  C   UNL     1       0.117  -2.200   1.169  0.00  0.00    +0.025 A 
ATOM      7  C   UNL     1       0.314  -2.653   2.457  0.00  0.00    +0.113 C 
ATOM      8  C   UNL     1      -0.094  -1.481   3.346  0.00  0.00    +0.220 C 
ATOM      9  N   UNL     1      -0.032  -0.313   2.481  0.00  0.00    -0.361 N 
ATOM     10  C   UNL     1       0.024  -0.722   1.228  0.00  0.00    +0.049 A 
ATOM     11  N   UNL     1       0.872  -1.485   4.452  0.00  0.00    -0.288 N 
ATOM     12  C   UNL     1       1.169  -2.749   4.974  0.00  0.00    +0.231 C 
ATOM     13  N   UNL     1       1.075  -3.842   4.210  0.00  0.00    -0.113 NA
ATOM     14  N   UNL     1       0.728  -3.800   2.971  0.00  0.00    -0.147 NA
ATOM     15  N   UNL     1       1.547  -2.863   6.238  0.00  0.00    -0.247 N 
ATOM     16  H   UNL     1      -0.026   0.611   2.776  0.00  0.00    +0.162 HD
ATOM     17  H   UNL     1       1.276  -0.672   4.795  0.00  0.00    +0.151 HD
ATOM     18  H   UNL     1       1.754  -3.737   6.605  0.00  0.00    +0.192 HD
ENDROOT
BRANCH  15  19
ATOM     19  N   UNL     1       1.641  -1.812   6.981  0.00  0.00    -0.179 NA
ATOM     20  C   UNL     1       2.017  -1.926   8.237  0.00  0.00    +0.144 C 
BRANCH  20  21
ATOM     21  C   UNL     1       2.122  -0.734   9.079  0.00  0.00    +0.038 A 
ATOM     22  C   UNL     1       2.528  -0.849  10.417  0.00  0.00    +0.028 A 
ATOM     23  C   UNL     1       2.626   0.278  11.203  0.00  0.00    +0.020 A 
ATOM     24  C   UNL     1       2.324   1.526  10.679  0.00  0.00    +0.034 A 
ATOM     25  C   UNL     1       1.922   1.656   9.363  0.00  0.00    +0.061 A 
ATOM     26  C   UNL     1       1.823   0.536   8.552  0.00  0.00    +0.139 A 
ATOM     27 BR   UNL     1       1.514   3.365   8.664  0.00  0.00    -0.046 Br
ATOM     28 BR   UNL     1       3.173   0.122  13.007  0.00  0.00    -0.050 Br
BRANCH  26  29
ATOM     29  O   UNL     1       1.435   0.662   7.258  0.00  0.00    -0.505 OA
ATOM     30  H   UNL     1       0.478   0.602   7.127  0.00  0.00    +0.292 HD
ENDBRANCH  26  29
ENDBRANCH  20  21
ENDBRANCH  15  19
TORSDOF 3
