REMARK  Name = ZINC35551211
REMARK  3 active torsions:
REMARK  status: ('A' for Active; 'I' for Inactive)
REMARK    1  A    between atoms: C_8  and  S_10
REMARK    2  A    between atoms: S_10  and  S_11
REMARK    3  A    between atoms: S_11  and  C_14
REMARK                            x       y       z     vdW  Elec       q    Type
REMARK                         _______ _______ _______ _____ _____    ______ ____
ROOT
ATOM      1  S   UNL     1       4.017  -4.012  -2.049  0.00  0.00    +0.058 S 
ATOM      2  O   UNL     1       4.559  -5.323  -2.131  0.00  0.00    -0.158 OA
ATOM      3  O   UNL     1       2.799  -3.650  -2.686  0.00  0.00    -0.158 OA
ENDROOT
BRANCH   1   4
ATOM      4  C   UNL     1       5.252  -2.917  -2.667  0.00  0.00    +0.120 A 
ATOM      5  C   UNL     1       4.899  -1.675  -3.174  0.00  0.00    +0.047 A 
ATOM      6  C   UNL     1       5.904  -0.846  -3.649  0.00  0.00    +0.056 A 
ATOM      7  C   UNL     1       7.217  -1.284  -3.601  0.00  0.00    +0.143 A 
ATOM      8  N   UNL     1       7.514  -2.472  -3.112  0.00  0.00    -0.241 NA
ATOM      9  C   UNL     1       6.584  -3.283  -2.646  0.00  0.00    +0.140 A 
ATOM     10 CL   UNL     1       8.486  -0.257  -4.192  0.00  0.00    -0.061 Cl
ATOM     11 BR   UNL     1       5.487   0.858  -4.353  0.00  0.00    -0.047 Br
ENDBRANCH   1   4
BRANCH   1  12
ATOM     12  S   UNL     1       3.782  -3.598  -0.055  0.00  0.00    +0.097 S 
BRANCH  12  20
ATOM     13  C   UNL     1      -0.017   1.373   0.010  0.00  0.00    +0.002 A 
ATOM     14  C   UNL     1       1.170   2.091   0.002  0.00  0.00    +0.004 A 
ATOM     15  C   UNL     1       2.384   1.435  -0.013  0.00  0.00    +0.048 A 
ATOM     16  C   UNL     1       2.421   0.051  -0.021  0.00  0.00    +0.156 A 
ATOM     17  C   UNL     1       1.223  -0.680  -0.013  0.00  0.00    +0.110 A 
ATOM     18  C   UNL     1       0.002  -0.004   0.002  0.00  0.00    +0.031 A 
ATOM     19  N   UNL     1       1.569  -1.996  -0.024  0.00  0.00    -0.202 NA
ATOM     20  C   UNL     1       2.875  -2.087  -0.038  0.00  0.00    +0.280 A 
ATOM     21  O   UNL     1       3.423  -0.859  -0.036  0.00  0.00    -0.430 OA
ENDBRANCH  12  20
ENDBRANCH   1  12
TORSDOF 3
