REMARK  Name = ZINC48553406
REMARK  8 active torsions:
REMARK  status: ('A' for Active; 'I' for Inactive)
REMARK    1  A    between atoms: C_1  and  C_2
REMARK    2  A    between atoms: C_3  and  C_20
REMARK    3  A    between atoms: N_7  and  C_8
REMARK    4  A    between atoms: C_8  and  N_10
REMARK    5  A    between atoms: C_11  and  C_13
REMARK    6  A    between atoms: C_20  and  C_22
REMARK    7  A    between atoms: C_23  and  C_24
REMARK    8  A    between atoms: C_29  and  O_30
REMARK                            x       y       z     vdW  Elec       q    Type
REMARK                         _______ _______ _______ _____ _____    ______ ____
ROOT
ATOM      1  C   UNL     1      -0.016   1.504   0.035  0.00  0.00    +0.064 C 
ATOM      2  C   UNL     1       0.004  -0.003   0.021  0.00  0.00    +0.032 A 
ATOM      3  C   UNL     1      -1.147  -0.730   0.023  0.00  0.00    +0.081 A 
ATOM      4  S   UNL     1      -0.524  -2.401   0.002  0.00  0.00    -0.049 S 
ATOM      5  C   UNL     1       1.122  -2.057  -0.008  0.00  0.00    +0.163 A 
ATOM      6  N   UNL     1       1.160  -0.691  -0.001  0.00  0.00    -0.339 N 
ATOM      7  N   UNL     1       2.142  -2.909  -0.025  0.00  0.00    -0.169 NA
ATOM      8  H   UNL     1       2.010  -0.224  -0.008  0.00  0.00    +0.167 HD
ENDROOT
BRANCH   7   9
ATOM      9  C   UNL     1       1.916  -4.222   0.070  0.00  0.00    +0.163 C 
ATOM     10  S   UNL     1       0.311  -4.817   0.074  0.00  0.00    -0.016 S 
BRANCH   9  11
ATOM     11  N   UNL     1       2.952  -5.079   0.162  0.00  0.00    -0.262 N 
ATOM     12  C   UNL     1       2.725  -6.404   0.257  0.00  0.00    +0.252 C 
ATOM     13  O   UNL     1       1.585  -6.826   0.260  0.00  0.00    -0.270 OA
ATOM     14  H   UNL     1       3.862  -4.742   0.159  0.00  0.00    +0.157 HD
BRANCH  12  15
ATOM     15  C   UNL     1       3.860  -7.343   0.357  0.00  0.00    +0.072 A 
ATOM     16  C   UNL     1       5.171  -6.861   0.360  0.00  0.00    +0.016 A 
ATOM     17  C   UNL     1       6.226  -7.742   0.454  0.00  0.00    +0.001 A 
ATOM     18  C   UNL     1       5.991  -9.104   0.546  0.00  0.00    +0.003 A 
ATOM     19  C   UNL     1       4.697  -9.591   0.544  0.00  0.00    +0.039 A 
ATOM     20  C   UNL     1       3.628  -8.718   0.456  0.00  0.00    +0.135 A 
ATOM     21  F   UNL     1       2.363  -9.194   0.460  0.00  0.00    -0.205 F 
ENDBRANCH  12  15
ENDBRANCH   9  11
ENDBRANCH   7   9
BRANCH   3  22
ATOM     22  C   UNL     1      -2.538  -0.261   0.040  0.00  0.00    +0.194 C 
ATOM     23  O   UNL     1      -3.453  -1.066   0.039  0.00  0.00    -0.287 OA
BRANCH  22  24
ATOM     24  C   UNL     1      -2.826   1.174   0.057  0.00  0.00    +0.053 C 
ATOM     25  C   UNL     1      -4.106   1.605   0.072  0.00  0.00    +0.015 C 
BRANCH  25  26
ATOM     26  C   UNL     1      -4.395   3.046   0.089  0.00  0.00    +0.017 A 
ATOM     27  C   UNL     1      -3.348   3.974   0.083  0.00  0.00    +0.011 A 
ATOM     28  C   UNL     1      -3.628   5.323   0.099  0.00  0.00    +0.001 A 
ATOM     29  C   UNL     1      -4.941   5.766   0.121  0.00  0.00    +0.004 A 
ATOM     30  C   UNL     1      -5.984   4.860   0.127  0.00  0.00    +0.046 A 
ATOM     31  C   UNL     1      -5.724   3.499   0.104  0.00  0.00    +0.124 A 
BRANCH  31  32
ATOM     32  O   UNL     1      -6.748   2.609   0.104  0.00  0.00    -0.506 OA
ATOM     33  H   UNL     1      -7.038   2.342   0.987  0.00  0.00    +0.292 HD
ENDBRANCH  31  32
ENDBRANCH  25  26
ENDBRANCH  22  24
ENDBRANCH   3  22
TORSDOF 7
