REMARK  Name = ZINC16608383
REMARK  6 active torsions:
REMARK  status: ('A' for Active; 'I' for Inactive)
REMARK    1  A    between atoms: C_1  and  C_2
REMARK    2  A    between atoms: C_8  and  S_10
REMARK    3  A    between atoms: S_10  and  C_11
REMARK    4  A    between atoms: C_19  and  C_23
REMARK    5  A    between atoms: C_20  and  C_21
REMARK    6  A    between atoms: C_20  and  C_22
REMARK                            x       y       z     vdW  Elec       q    Type
REMARK                         _______ _______ _______ _____ _____    ______ ____
ROOT
ATOM      1  C   UNL     1      -1.301   3.672   0.065  0.00  0.00    +0.127 C 
ATOM      2  C   UNL     1      -0.529   3.125   1.260  0.00  0.00    +0.151 C 
ATOM      3  O   UNL     1       0.146   3.748   2.043  0.00  0.00    -0.296 OA
ATOM      4  C   UNL     1      -0.790   1.612   1.253  0.00  0.00    +0.063 C 
ATOM      5  C   UNL     1      -0.013   1.086   0.008  0.00  0.00    +0.012 C 
ATOM      6  C   UNL     1      -0.807   1.621  -1.206  0.00  0.00    +0.009 C 
ATOM      7  C   UNL     1      -1.985   2.426  -0.576  0.00  0.00    -0.007 C 
ATOM      8  C   UNL     1      -2.265   1.570   0.710  0.00  0.00    -0.019 C 
ATOM      9  C   UNL     1      -3.247   2.261   1.659  0.00  0.00    +0.012 C 
ATOM     10  C   UNL     1      -2.714   0.148   0.368  0.00  0.00    +0.012 C 
ATOM     11  C   UNL     1      -3.183   2.692  -1.490  0.00  0.00    +0.013 C 
ENDROOT
BRANCH   1  12
ATOM     12  S   UNL     1      -0.167   4.445  -1.115  0.00  0.00    -0.079 S 
BRANCH  12  19
ATOM     13  C   UNL     1       0.018   6.875   3.288  0.00  0.00    +0.033 C 
ATOM     14  C   UNL     1       0.195   7.208   1.805  0.00  0.00    +0.113 C 
ATOM     15  C   UNL     1       1.654   7.585   1.540  0.00  0.00    +0.122 C 
ATOM     16  C   UNL     1       1.893   7.612   0.050  0.00  0.00    +0.221 C 
ATOM     17  O   UNL     1       2.686   8.393  -0.430  0.00  0.00    -0.275 OA
ATOM     18  N   UNL     1       1.213   6.757  -0.742  0.00  0.00    -0.265 N 
ATOM     19  C   UNL     1       0.319   5.863  -0.189  0.00  0.00    +0.156 C 
ATOM     20  N   UNL     1      -0.175   6.047   0.997  0.00  0.00    -0.260 NA
ATOM     21  H   UNL     1       1.352   6.771  -1.702  0.00  0.00    +0.157 HD
ENDBRANCH  12  19
ENDBRANCH   1  12
TORSDOF 2
