REMARK  Name = ZINC09356210
REMARK  10 active torsions:
REMARK  status: ('A' for Active; 'I' for Inactive)
REMARK    1  A    between atoms: C_1  and  O_2
REMARK    2  A    between atoms: O_2  and  C_3
REMARK    3  A    between atoms: C_7  and  N_9
REMARK    4  A    between atoms: C_12  and  C_13
REMARK    5  A    between atoms: N_14  and  C_15
REMARK    6  A    between atoms: C_15  and  C_17
REMARK    7  A    between atoms: C_15  and  C_28
REMARK    8  A    between atoms: C_17  and  C_18
REMARK    9  A    between atoms: C_28  and  O_30
REMARK   10  A    between atoms: O_30  and  C_31
REMARK                            x       y       z     vdW  Elec       q    Type
REMARK                         _______ _______ _______ _____ _____    ______ ____
ROOT
ATOM      1  N   UNL     1      -5.220  -2.149  -2.301  0.00  0.00    -0.221 N 
ATOM      2  C   UNL     1      -3.969  -1.650  -2.242  0.00  0.00    +0.243 C 
ATOM      3  O   UNL     1      -3.210  -1.752  -3.188  0.00  0.00    -0.274 OA
ATOM      4  C   UNL     1      -3.545  -0.977  -1.001  0.00  0.00    +0.202 C 
ATOM      5  C   UNL     1      -4.529  -0.906   0.094  0.00  0.00    +0.236 C 
ATOM      6  O   UNL     1      -4.251  -0.371   1.150  0.00  0.00    -0.274 OA
ATOM      7  N   UNL     1      -5.749  -1.446  -0.110  0.00  0.00    -0.266 N 
ATOM      8  C   UNL     1      -6.066  -2.043  -1.267  0.00  0.00    +0.150 C 
ATOM      9  S   UNL     1      -7.636  -2.707  -1.433  0.00  0.00    -0.018 S 
ATOM     10  H   UNL     1      -6.410  -1.404   0.599  0.00  0.00    +0.157 HD
ENDROOT
BRANCH   1  15
ATOM     11  C   UNL     1      -6.537  -2.687  -5.697  0.00  0.00    +0.122 A 
ATOM     12  C   UNL     1      -6.485  -4.072  -5.780  0.00  0.00    +0.046 A 
ATOM     13  C   UNL     1      -6.014  -4.812  -4.713  0.00  0.00    +0.005 A 
ATOM     14  C   UNL     1      -5.590  -4.177  -3.561  0.00  0.00    +0.024 A 
ATOM     15  C   UNL     1      -5.646  -2.792  -3.471  0.00  0.00    +0.046 A 
ATOM     16  C   UNL     1      -6.118  -2.047  -4.542  0.00  0.00    +0.069 A 
BRANCH  11  18
ATOM     17  C   UNL     1      -7.416  -2.686  -7.906  0.00  0.00    +0.277 C 
ATOM     18  O   UNL     1      -7.000  -1.960  -6.748  0.00  0.00    -0.495 OA
ENDBRANCH  11  18
ENDBRANCH   1  15
BRANCH   4  19
ATOM     19  C   UNL     1      -2.277  -0.442  -0.867  0.00  0.00    +0.100 C 
ATOM     20  N   UNL     1      -1.965   0.288   0.223  0.00  0.00    -0.280 NA
BRANCH  20  21
ATOM     21  C   UNL     1      -0.622   0.855   0.365  0.00  0.00    +0.217 C 
BRANCH  21  22
ATOM     22  C   UNL     1       0.297  -0.175   0.969  0.00  0.00    +0.332 C 
ATOM     23  O   UNL     1      -0.127  -1.271   1.253  0.00  0.00    -0.248 OA
BRANCH  22  24
ATOM     24  O   UNL     1       1.587   0.122   1.188  0.00  0.00    -0.466 OA
ATOM     25  C   UNL     1       2.415  -0.920   1.768  0.00  0.00    +0.280 C 
ENDBRANCH  22  24
ENDBRANCH  21  22
BRANCH  21  26
ATOM     26  C   UNL     1      -0.680   2.083   1.275  0.00  0.00    +0.075 C 
BRANCH  26  27
ATOM     27  C   UNL     1      -1.500   3.160   0.613  0.00  0.00    -0.020 A 
ATOM     28  C   UNL     1      -1.033   4.179  -0.126  0.00  0.00    +0.087 A 
ATOM     29  N   UNL     1      -2.072   4.953  -0.564  0.00  0.00    -0.360 N 
ATOM     30  H   UNL     1      -1.983   5.745  -1.117  0.00  0.00    +0.165 HD
ATOM     31  C   UNL     1      -3.264   4.444  -0.099  0.00  0.00    +0.047 A 
ATOM     32  C   UNL     1      -2.958   3.298   0.658  0.00  0.00    +0.003 A 
ATOM     33  C   UNL     1      -3.983   2.567   1.260  0.00  0.00    +0.010 A 
ATOM     34  C   UNL     1      -5.281   2.968   1.111  0.00  0.00    +0.001 A 
ATOM     35  C   UNL     1      -5.588   4.097   0.364  0.00  0.00    +0.002 A 
ATOM     36  C   UNL     1      -4.592   4.833  -0.239  0.00  0.00    +0.026 A 
ENDBRANCH  26  27
ENDBRANCH  21  26
ENDBRANCH  20  21
ENDBRANCH   4  19
TORSDOF 8
