REMARK  Name = ZINC32675120
REMARK  7 active torsions:
REMARK  status: ('A' for Active; 'I' for Inactive)
REMARK    1  A    between atoms: C_1  and  C_2
REMARK    2  A    between atoms: C_5  and  C_25
REMARK    3  A    between atoms: N_8  and  C_10
REMARK    4  A    between atoms: C_11  and  C_23
REMARK    5  A    between atoms: C_13  and  C_15
REMARK    6  A    between atoms: C_15  and  O_16
REMARK    7  A    between atoms: O_16  and  C_17
REMARK                            x       y       z     vdW  Elec       q    Type
REMARK                         _______ _______ _______ _____ _____    ______ ____
ROOT
ATOM      1  C   UNL     1      -2.140   1.683  -2.882  0.00  0.00    +0.227 A 
ATOM      2  C   UNL     1      -1.353   2.822  -2.877  0.00  0.00    +0.201 A 
ATOM      3  N   UNL     1      -0.505   2.710  -1.815  0.00  0.00    -0.198 NA
ATOM      4  C   UNL     1      -0.742   1.585  -1.213  0.00  0.00    +0.237 A 
ATOM      5  O   UNL     1      -1.737   0.935  -1.838  0.00  0.00    -0.421 OA
ENDROOT
BRANCH   1  11
ATOM      6  C   UNL     1      -4.441   2.074  -6.285  0.00  0.00    +0.009 C 
ATOM      7  C   UNL     1      -5.161   2.136  -4.936  0.00  0.00    +0.004 C 
ATOM      8  C   UNL     1      -5.830   0.788  -4.652  0.00  0.00    +0.009 C 
ATOM      9  C   UNL     1      -4.753  -0.297  -4.556  0.00  0.00    +0.004 C 
ATOM     10  C   UNL     1      -3.753   0.079  -3.461  0.00  0.00    +0.111 C 
ATOM     11  N   UNL     1      -3.140   1.375  -3.780  0.00  0.00    -0.299 N 
ATOM     12  C   UNL     1      -4.149   2.441  -3.830  0.00  0.00    +0.111 C 
ATOM     13  C   UNL     1      -5.408  -1.637  -4.213  0.00  0.00    +0.009 C 
ENDBRANCH   1  11
BRANCH   2  14
ATOM     14  C   UNL     1      -1.420   3.910  -3.805  0.00  0.00    +0.124 C 
ATOM     15  N   UNL     1      -1.473   4.774  -4.542  0.00  0.00    -0.189 NA
ENDBRANCH   2  14
BRANCH   4  16
ATOM     16  C   UNL     1      -0.013   1.086   0.008  0.00  0.00    +0.324 C 
BRANCH  16  17
ATOM     17  O   UNL     1      -0.682   1.547   1.184  0.00  0.00    -0.483 OA
BRANCH  17  18
ATOM     18  C   UNL     1      -0.149   1.182   2.380  0.00  0.00    +0.121 A 
ATOM     19  C   UNL     1       0.991   0.392   2.421  0.00  0.00    +0.045 A 
ATOM     20  C   UNL     1       1.534   0.028   3.638  0.00  0.00    +0.004 A 
ATOM     21  C   UNL     1       0.936   0.440   4.814  0.00  0.00    +0.000 A 
ATOM     22  C   UNL     1      -0.203   1.223   4.776  0.00  0.00    +0.004 A 
ATOM     23  C   UNL     1      -0.747   1.595   3.561  0.00  0.00    +0.045 A 
ENDBRANCH  17  18
ENDBRANCH  16  17
ENDBRANCH   4  16
TORSDOF 5
