REMARK  Name = ZINC00348250
REMARK  3 active torsions:
REMARK  status: ('A' for Active; 'I' for Inactive)
REMARK    1  A    between atoms: C_4  and  C_7
REMARK    2  A    between atoms: C_7  and  C_8
REMARK    3  A    between atoms: C_11  and  O_12
REMARK                            x       y       z     vdW  Elec       q    Type
REMARK                         _______ _______ _______ _____ _____    ______ ____
ROOT
ATOM      1  C   UNL     1      -0.261   2.234  -5.328  0.00  0.00    +0.138 A 
ATOM      2  N   UNL     1       0.794   1.717  -4.647  0.00  0.00    -0.197 NA
ATOM      3  C   UNL     1       0.725   1.481  -3.323  0.00  0.00    +0.224 A 
ATOM      4  C   UNL     1      -0.493   1.783  -2.631  0.00  0.00    +0.072 A 
ATOM      5  C   UNL     1      -0.792   1.607  -1.202  0.00  0.00    -0.023 A 
ATOM      6  C   UNL     1      -2.018   1.972  -0.790  0.00  0.00    -0.004 A 
ATOM      7  S   UNL     1      -2.839   2.562  -2.252  0.00  0.00    -0.073 S 
ATOM      8  C   UNL     1      -1.524   2.315  -3.416  0.00  0.00    +0.116 A 
ATOM      9  N   UNL     1      -1.382   2.523  -4.723  0.00  0.00    -0.224 NA
ATOM     10  C   UNL     1      -2.210   1.751   0.687  0.00  0.00    +0.043 C 
ATOM     11  C   UNL     1      -0.775   1.595   1.245  0.00  0.00    +0.010 C 
ATOM     12  C   UNL     1      -0.014   1.082   0.007  0.00  0.00    +0.037 C 
ENDROOT
BRANCH   3  14
ATOM     13  H   UNL     1       1.447   0.909  -1.758  0.00  0.00    +0.294 HD
ATOM     14  O   UNL     1       1.679   1.015  -2.725  0.00  0.00    -0.492 OA
ENDBRANCH   3  14
BRANCH   1  15
ATOM     15  C   UNL     1      -0.135   2.480  -6.809  0.00  0.00    +0.111 C 
BRANCH  15  19
ATOM     16  C   UNL     1      -3.793   4.109  -8.297  0.00  0.00    +0.000 A 
ATOM     17  C   UNL     1      -2.798   4.951  -7.839  0.00  0.00    +0.000 A 
ATOM     18  C   UNL     1      -1.614   4.424  -7.357  0.00  0.00    +0.004 A 
ATOM     19  C   UNL     1      -1.426   3.055  -7.334  0.00  0.00    -0.040 A 
ATOM     20  C   UNL     1      -2.419   2.213  -7.798  0.00  0.00    +0.004 A 
ATOM     21  C   UNL     1      -3.605   2.740  -8.275  0.00  0.00    +0.000 A 
ENDBRANCH  15  19
ENDBRANCH   1  15
TORSDOF 3
