REMARK  Name = ZINC09636106
REMARK  6 active torsions:
REMARK  status: ('A' for Active; 'I' for Inactive)
REMARK    1  A    between atoms: C_1  and  N_51
REMARK    2  A    between atoms: C_7  and  N_18
REMARK    3  A    between atoms: C_8  and  C_9
REMARK    4  A    between atoms: C_19  and  C_21
REMARK    5  A    between atoms: C_25  and  S_27
REMARK    6  A    between atoms: S_27  and  C_28
REMARK                            x       y       z     vdW  Elec       q    Type
REMARK                         _______ _______ _______ _____ _____    ______ ____
ROOT
ATOM      1  C   UNL     1      -4.939  11.968   8.968  0.00  0.00    -0.096 C 
ATOM      2  C   UNL     1      -4.384  12.316   6.637  0.00  0.00    -0.074 C 
ATOM      3  C   UNL     1      -3.285  12.083   5.597  0.00  0.00    +0.018 C 
ATOM      4  C   UNL     1      -3.144  10.579   5.381  0.00  0.00    -0.029 A 
ATOM      5  C   UNL     1      -3.650   9.717   6.295  0.00  0.00    -0.021 A 
ATOM      6  S   UNL     1      -3.281   8.110   5.654  0.00  0.00    -0.079 S 
ATOM      7  C   UNL     1      -2.435   8.601   4.162  0.00  0.00    +0.082 A 
ATOM      8  C   UNL     1      -2.489   9.985   4.233  0.00  0.00    +0.039 A 
ATOM      9  C   UNL     1      -4.366  10.077   7.560  0.00  0.00    -0.036 C 
ATOM     10  N   UNL     1      -4.100  11.509   7.840  0.00  0.00    +0.381 N 
ATOM     11  H   UNL     1      -3.111  11.622   8.093  0.00  0.00    -0.082 HD
ENDROOT
BRANCH   8  12
ATOM     12  C   UNL     1      -1.901  10.824   3.175  0.00  0.00    +0.112 A 
ATOM     13  N   UNL     1      -1.869  12.138   3.084  0.00  0.00    -0.239 NA
ATOM     14  C   UNL     1      -1.286  12.777   2.050  0.00  0.00    +0.079 A 
ATOM     15  C   UNL     1      -1.179  14.172   1.834  0.00  0.00    +0.029 A 
ATOM     16  C   UNL     1      -0.554  14.661   0.717  0.00  0.00    +0.002 A 
ATOM     17  C   UNL     1      -0.006  13.816  -0.237  0.00  0.00    +0.001 A 
ATOM     18  C   UNL     1      -0.092  12.447  -0.058  0.00  0.00    +0.017 A 
ATOM     19  C   UNL     1      -0.716  11.947   1.057  0.00  0.00    +0.040 A 
ATOM     20  S   UNL     1      -1.054  10.319   1.685  0.00  0.00    -0.067 S 
ENDBRANCH   8  12
BRANCH   7  21
ATOM     21  N   UNL     1      -1.871   7.801   3.176  0.00  0.00    -0.275 N 
ATOM     22  C   UNL     1      -1.920   6.459   3.288  0.00  0.00    +0.249 C 
ATOM     23  O   UNL     1      -2.459   5.949   4.250  0.00  0.00    -0.270 OA
ATOM     24  H   UNL     1      -1.441   8.209   2.408  0.00  0.00    +0.156 HD
BRANCH  22  25
ATOM     25  C   UNL     1      -1.319   5.608   2.239  0.00  0.00    +0.038 A 
ATOM     26  C   UNL     1      -0.700   6.192   1.132  0.00  0.00    +0.013 A 
ATOM     27  C   UNL     1      -0.139   5.395   0.154  0.00  0.00    +0.002 A 
ATOM     28  C   UNL     1      -0.184   4.019   0.269  0.00  0.00    +0.015 A 
ATOM     29  C   UNL     1      -0.803   3.426   1.364  0.00  0.00    +0.008 A 
ATOM     30  C   UNL     1      -1.369   4.219   2.352  0.00  0.00    +0.027 A 
BRANCH  29  31
ATOM     31  S   UNL     1      -0.862   1.671   1.500  0.00  0.00    -0.129 S 
ATOM     32  C   UNL     1      -0.013   1.086   0.008  0.00  0.00    +0.090 C 
ENDBRANCH  29  31
ENDBRANCH  22  25
ENDBRANCH   7  21
TORSDOF 4
