REMARK  Name = ZINC20294355
REMARK  12 active torsions:
REMARK  status: ('A' for Active; 'I' for Inactive)
REMARK    1  A    between atoms: C_1  and  C_2
REMARK    2  A    between atoms: C_4  and  C_29
REMARK    3  A    between atoms: N_5  and  C_7
REMARK    4  A    between atoms: C_7  and  C_8
REMARK    5  A    between atoms: C_10  and  C_16
REMARK    6  A    between atoms: C_13  and  O_14
REMARK    7  A    between atoms: O_14  and  C_15
REMARK    8  A    between atoms: N_17  and  N_18
REMARK    9  A    between atoms: C_19  and  C_21
REMARK   10  A    between atoms: C_21  and  S_22
REMARK   11  A    between atoms: S_22  and  C_23
REMARK   12  A    between atoms: C_26  and  C_28
REMARK                            x       y       z     vdW  Elec       q    Type
REMARK                         _______ _______ _______ _____ _____    ______ ____
ROOT
ATOM      1  C   UNL     1      -1.426   3.405   2.467  0.00  0.00    +0.016 A 
ATOM      2  C   UNL     1      -1.536   4.768   2.636  0.00  0.00    +0.018 A 
ATOM      3  C   UNL     1      -1.003   5.634   1.677  0.00  0.00    -0.005 A 
ATOM      4  C   UNL     1      -0.361   5.112   0.551  0.00  0.00    +0.013 A 
ATOM      5  C   UNL     1      -0.251   3.748   0.393  0.00  0.00    +0.046 A 
ATOM      6  C   UNL     1      -0.787   2.891   1.346  0.00  0.00    +0.125 A 
ENDROOT
BRANCH   6   7
ATOM      7  O   UNL     1      -0.682   1.547   1.184  0.00  0.00    -0.495 OA
ATOM      8  C   UNL     1      -0.013   1.086   0.008  0.00  0.00    +0.277 C 
ENDBRANCH   6   7
BRANCH   3   9
ATOM      9  C   UNL     1      -1.117   7.093   1.854  0.00  0.00    +0.138 C 
ATOM     10  N   UNL     1      -0.622   7.896   0.962  0.00  0.00    -0.188 NA
BRANCH  10  11
ATOM     11  N   UNL     1      -0.731   9.282   1.130  0.00  0.00    -0.206 N 
ATOM     12  C   UNL     1      -0.216  10.115   0.203  0.00  0.00    +0.242 C 
ATOM     13  O   UNL     1       0.341   9.665  -0.775  0.00  0.00    -0.273 OA
ATOM     14  H   UNL     1      -1.236   9.691   2.017  0.00  0.00    +0.177 HD
BRANCH  12  15
ATOM     15  C   UNL     1      -0.333  11.607   0.384  0.00  0.00    +0.173 C 
BRANCH  15  16
ATOM     16  S   UNL     1       0.448  12.447  -1.016  0.00  0.00    -0.088 S 
BRANCH  16  17
ATOM     17  C   UNL     1       0.173  14.126  -0.558  0.00  0.00    +0.159 A 
ATOM     18  N   UNL     1      -0.434  14.632   0.509  0.00  0.00    -0.135 NA
ATOM     19  N   UNL     1      -0.545  15.876   0.682  0.00  0.00    -0.146 NA
ATOM     20  C   UNL     1      -0.068  16.751  -0.179  0.00  0.00    +0.100 A 
ATOM     21  S   UNL     1       0.638  15.640  -1.394  0.00  0.00    -0.044 S 
ATOM     22  C   UNL     1      -0.100  18.257  -0.149  0.00  0.00    +0.075 C 
ENDBRANCH  16  17
ENDBRANCH  15  16
ENDBRANCH  12  15
ENDBRANCH  10  11
ENDBRANCH   3   9
BRANCH   1  23
ATOM     23  C   UNL     1      -1.999   2.470   3.501  0.00  0.00    +0.182 C 
BRANCH  23  28
ATOM     24  C   UNL     1       1.022   2.494   7.509  0.00  0.00    +0.068 C 
ATOM     25  C   UNL     1       0.361   2.115   6.209  0.00  0.00    +0.074 A 
ATOM     26  C   UNL     1       0.696   1.019   5.407  0.00  0.00    +0.061 A 
ATOM     27  C   UNL     1      -0.128   1.021   4.333  0.00  0.00    +0.051 A 
ATOM     28  N   UNL     1      -0.950   2.086   4.448  0.00  0.00    -0.263 N 
ATOM     29  N   UNL     1      -0.625   2.756   5.635  0.00  0.00    -0.175 NA
ATOM     30  C   UNL     1      -0.128   0.015   3.211  0.00  0.00    +0.066 C 
ATOM     31 BR   UNL     1       2.056  -0.246   5.764  0.00  0.00    -0.047 Br
ENDBRANCH  23  28
ENDBRANCH   1  23
TORSDOF 8
