REMARK  Name = ZINC09926233
REMARK  5 active torsions:
REMARK  status: ('A' for Active; 'I' for Inactive)
REMARK    1  A    between atoms: C_4  and  C_7
REMARK    2  A    between atoms: C_8  and  C_9
REMARK    3  A    between atoms: C_9  and  N_10
REMARK    4  A    between atoms: C_17  and  C_20
REMARK    5  A    between atoms: C_17  and  O_32
REMARK                            x       y       z     vdW  Elec       q    Type
REMARK                         _______ _______ _______ _____ _____    ______ ____
ROOT
ATOM      1  N   UNL     1       0.132   8.176  -1.807  0.00  0.00    -0.265 N 
ATOM      2  C   UNL     1       0.676   8.569  -0.584  0.00  0.00    +0.043 A 
ATOM      3  C   UNL     1       1.852   9.257  -0.289  0.00  0.00    +0.024 A 
ATOM      4  C   UNL     1       2.182   9.533   1.021  0.00  0.00    +0.002 A 
ATOM      5  C   UNL     1       1.352   9.131   2.051  0.00  0.00    +0.000 A 
ATOM      6  C   UNL     1       0.183   8.447   1.766  0.00  0.00    +0.009 A 
ATOM      7  C   UNL     1      -0.149   8.170   0.459  0.00  0.00    +0.015 A 
ATOM      8  C   UNL     1      -1.323   7.460  -0.174  0.00  0.00    +0.178 C 
ATOM      9  C   UNL     1      -1.034   7.524  -1.659  0.00  0.00    +0.257 C 
ATOM     10  O   UNL     1      -1.724   7.071  -2.548  0.00  0.00    -0.272 OA
ENDROOT
BRANCH   8  11
ATOM     11  C   UNL     1      -1.388   6.006   0.297  0.00  0.00    +0.106 C 
ATOM     12  C   UNL     1      -2.472   5.252  -0.485  0.00  0.00    +0.020 C 
ATOM     13  C   UNL     1      -2.586   3.828   0.053  0.00  0.00    +0.036 C 
ATOM     14  C   UNL     1      -1.255   3.128   0.031  0.00  0.00    -0.037 A 
ATOM     15  C   UNL     1      -1.222   1.746   0.017  0.00  0.00    +0.004 A 
ATOM     16  C   UNL     1      -0.013   1.076   0.008  0.00  0.00    +0.000 A 
ATOM     17  C   UNL     1       1.180   1.779   0.000  0.00  0.00    +0.001 A 
ATOM     18  C   UNL     1       1.166   3.158   0.006  0.00  0.00    +0.011 A 
ATOM     19  C   UNL     1      -0.055   3.840   0.021  0.00  0.00    +0.021 A 
ATOM     20  C   UNL     1      -0.068   5.316   0.021  0.00  0.00    +0.170 C 
ATOM     21  O   UNL     1       0.941   5.953  -0.193  0.00  0.00    -0.292 OA
ENDBRANCH   8  11
BRANCH   8  22
ATOM     22  O   UNL     1      -2.543   8.139   0.131  0.00  0.00    -0.374 OA
ATOM     23  H   UNL     1      -2.557   9.065  -0.146  0.00  0.00    +0.211 HD
ENDBRANCH   8  22
BRANCH   1  24
ATOM     24  C   UNL     1       0.758   8.445  -3.104  0.00  0.00    +0.141 C 
BRANCH  24  26
ATOM     25  C   UNL     1       1.522   6.672  -4.621  0.00  0.00    +0.005 C 
ATOM     26  C   UNL     1       1.674   7.304  -3.466  0.00  0.00    -0.007 C 
BRANCH  25  30
ATOM     27  C   UNL     1       4.103   3.457  -5.639  0.00  0.00    +0.000 A 
ATOM     28  C   UNL     1       3.104   3.843  -6.516  0.00  0.00    +0.001 A 
ATOM     29  C   UNL     1       2.262   4.886  -6.191  0.00  0.00    +0.008 A 
ATOM     30  C   UNL     1       2.420   5.553  -4.975  0.00  0.00    -0.025 A 
ATOM     31  C   UNL     1       3.433   5.163  -4.099  0.00  0.00    +0.008 A 
ATOM     32  C   UNL     1       4.264   4.114  -4.433  0.00  0.00    +0.001 A 
ENDBRANCH  25  30
ENDBRANCH  24  26
ENDBRANCH   1  24
TORSDOF 5
