REMARK  Name = ZINC39763598
REMARK  6 active torsions:
REMARK  status: ('A' for Active; 'I' for Inactive)
REMARK    1  A    between atoms: C_1  and  C_2
REMARK    2  A    between atoms: C_7  and  C_8
REMARK    3  A    between atoms: C_12  and  S_21
REMARK    4  A    between atoms: N_14  and  C_15
REMARK    5  A    between atoms: S_21  and  C_22
REMARK    6  A    between atoms: C_22  and  C_23
REMARK                            x       y       z     vdW  Elec       q    Type
REMARK                         _______ _______ _______ _____ _____    ______ ____
ROOT
ATOM      1  C   UNL     1       0.136  -0.111   2.561  0.00  0.00    +0.189 C 
ATOM      2  N   UNL     1      -0.843   1.003   2.669  0.00  0.00    -0.230 NA
ATOM      3  N   UNL     1      -1.017   1.149   4.123  0.00  0.00    -0.226 NA
ATOM      4  C   UNL     1      -0.982  -0.238   4.640  0.00  0.00    +0.218 C 
ATOM      5  N   UNL     1      -0.244  -1.040   3.645  0.00  0.00    -0.284 N 
ATOM      6  H   UNL     1      -0.475   1.849   2.262  0.00  0.00    +0.143 HD
ATOM      7  H   UNL     1      -1.897   1.593   4.339  0.00  0.00    +0.143 HD
ENDROOT
BRANCH   1  14
ATOM      8  C   UNL     1       1.758   0.782   0.343  0.00  0.00    +0.044 C 
ATOM      9  C   UNL     1       0.793  -0.361   0.159  0.00  0.00    -0.044 A 
ATOM     10  C   UNL     1       0.688  -0.987  -1.069  0.00  0.00    +0.004 A 
ATOM     11  C   UNL     1      -0.197  -2.035  -1.238  0.00  0.00    +0.000 A 
ATOM     12  C   UNL     1      -0.977  -2.458  -0.178  0.00  0.00    +0.000 A 
ATOM     13  C   UNL     1      -0.871  -1.834   1.050  0.00  0.00    +0.007 A 
ATOM     14  C   UNL     1       0.017  -0.788   1.220  0.00  0.00    -0.009 A 
ENDBRANCH   1  14
BRANCH   5  15
ATOM     15  C   UNL     1       0.038  -2.406   3.712  0.00  0.00    +0.033 A 
ATOM     16  C   UNL     1       0.869  -2.993   2.765  0.00  0.00    +0.023 A 
ATOM     17  C   UNL     1       1.146  -4.344   2.835  0.00  0.00    +0.002 A 
ATOM     18  C   UNL     1       0.598  -5.112   3.845  0.00  0.00    +0.000 A 
ATOM     19  C   UNL     1      -0.230  -4.532   4.789  0.00  0.00    +0.002 A 
ATOM     20  C   UNL     1      -0.506  -3.180   4.729  0.00  0.00    +0.023 A 
ENDBRANCH   5  15
BRANCH   4  21
ATOM     21  S   UNL     1      -0.120  -0.285   6.235  0.00  0.00    -0.114 S 
BRANCH  21  22
ATOM     22  C   UNL     1       1.527   0.380   5.864  0.00  0.00    +0.146 C 
BRANCH  22  23
ATOM     23  C   UNL     1       2.357   0.396   7.122  0.00  0.00    +0.120 A 
ATOM     24  N   UNL     1       3.629   0.868   7.049  0.00  0.00    -0.310 N 
ATOM     25  H   UNL     1       3.976   1.183   6.199  0.00  0.00    +0.170 HD
ATOM     26  C   UNL     1       4.415   0.904   8.150  0.00  0.00    +0.259 A 
ATOM     27  O   UNL     1       5.556   1.326   8.099  0.00  0.00    -0.267 OA
ATOM     28  C   UNL     1       3.837   0.415   9.410  0.00  0.00    +0.065 A 
ATOM     29  C   UNL     1       4.562   0.409  10.600  0.00  0.00    +0.015 A 
ATOM     30  C   UNL     1       3.971  -0.061  11.753  0.00  0.00    +0.001 A 
ATOM     31  C   UNL     1       2.663  -0.527  11.736  0.00  0.00    +0.002 A 
ATOM     32  C   UNL     1       1.930  -0.530  10.571  0.00  0.00    +0.028 A 
ATOM     33  C   UNL     1       2.506  -0.058   9.390  0.00  0.00    +0.078 A 
ATOM     34  N   UNL     1       1.818  -0.037   8.221  0.00  0.00    -0.233 NA
ENDBRANCH  22  23
ENDBRANCH  21  22
ENDBRANCH   4  21
TORSDOF 5
