REMARK  Name = ZINC36705380
REMARK  10 active torsions:
REMARK  status: ('A' for Active; 'I' for Inactive)
REMARK    1  A    between atoms: C_1  and  C_2
REMARK    2  A    between atoms: C_7  and  C_8
REMARK    3  A    between atoms: N_10  and  C_11
REMARK    4  A    between atoms: C_11  and  C_13
REMARK    5  A    between atoms: C_11  and  C_16
REMARK    6  A    between atoms: C_13  and  C_14
REMARK    7  A    between atoms: C_13  and  C_15
REMARK    8  A    between atoms: N_18  and  C_19
REMARK    9  A    between atoms: C_19  and  C_20
REMARK   10  A    between atoms: C_20  and  C_21
REMARK                            x       y       z     vdW  Elec       q    Type
REMARK                         _______ _______ _______ _____ _____    ______ ____
ROOT
ATOM      1  C   UNL     1       0.630   0.263   5.130  0.00  0.00    +0.162 C 
ENDROOT
BRANCH   1   4
ATOM      2  C   UNL     1      -0.664   1.238   3.310  0.00  0.00    +0.245 C 
ATOM      3  O   UNL     1      -0.120   2.302   3.532  0.00  0.00    -0.270 OA
ATOM      4  N   UNL     1      -0.358   0.156   4.054  0.00  0.00    -0.300 N 
ATOM      5  H   UNL     1      -0.793  -0.693   3.877  0.00  0.00    +0.150 HD
BRANCH   2  12
ATOM      6  C   UNL     1      -1.520   3.622   1.911  0.00  0.00    +0.044 C 
ATOM      7  C   UNL     1      -2.082   2.273   1.542  0.00  0.00    -0.038 A 
ATOM      8  C   UNL     1      -3.008   2.165   0.526  0.00  0.00    +0.004 A 
ATOM      9  C   UNL     1      -3.525   0.928   0.186  0.00  0.00    +0.000 A 
ATOM     10  C   UNL     1      -3.117  -0.209   0.862  0.00  0.00    +0.001 A 
ATOM     11  C   UNL     1      -2.191  -0.115   1.879  0.00  0.00    +0.013 A 
ATOM     12  C   UNL     1      -1.661   1.130   2.224  0.00  0.00    +0.040 A 
ENDBRANCH   2  12
ENDBRANCH   1   4
BRANCH   1  13
ATOM     13  C   UNL     1       0.368  -0.805   6.160  0.00  0.00    +0.234 C 
ATOM     14  O   UNL     1      -0.220  -1.819   5.847  0.00  0.00    -0.274 OA
ATOM     15  N   UNL     1       0.787  -0.634   7.430  0.00  0.00    -0.313 N 
ATOM     16  H   UNL     1       1.202   0.202   7.695  0.00  0.00    +0.149 HD
BRANCH  15  17
ATOM     17  C   UNL     1       0.616  -1.710   8.409  0.00  0.00    +0.108 C 
BRANCH  17  18
ATOM     18  C   UNL     1       1.172  -1.262   9.762  0.00  0.00    +0.049 C 
BRANCH  18  19
ATOM     19  C   UNL     1       0.996  -2.369  10.769  0.00  0.00    -0.072 C 
ATOM     20  C   UNL     1       1.991  -3.173  10.967  0.00  0.00    -0.028 C 
ATOM     21  C   UNL     1       1.962  -4.325  11.928  0.00  0.00    +0.027 C 
ATOM     22  C   UNL     1       0.804  -4.161  12.914  0.00  0.00    +0.004 C 
ATOM     23  C   UNL     1      -0.471  -3.854  12.117  0.00  0.00    +0.005 C 
ATOM     24  C   UNL     1      -0.320  -2.467  11.484  0.00  0.00    +0.030 C 
ENDBRANCH  18  19
ENDBRANCH  17  18
ENDBRANCH  15  17
ENDBRANCH   1  13
BRANCH   1  25
ATOM     25  C   UNL     1       2.035   0.081   4.552  0.00  0.00    +0.012 C 
ATOM     26  C   UNL     1       2.123  -1.273   3.844  0.00  0.00    +0.009 C 
ATOM     27  C   UNL     1       2.323   1.200   3.550  0.00  0.00    +0.009 C 
ENDBRANCH   1  25
TORSDOF 7
