REMARK  Name = ZINC07466978
REMARK  5 active torsions:
REMARK  status: ('A' for Active; 'I' for Inactive)
REMARK    1  A    between atoms: C_3  and  C_6
REMARK    2  A    between atoms: C_9  and  S_11
REMARK    3  A    between atoms: S_11  and  C_12
REMARK    4  A    between atoms: C_15  and  C_21
REMARK    5  A    between atoms: C_17  and  N_18
REMARK                            x       y       z     vdW  Elec       q    Type
REMARK                         _______ _______ _______ _____ _____    ______ ____
ROOT
ATOM      1  C   UNL     1       8.464   2.483  -0.029  0.00  0.00    +0.047 A 
ATOM      2  C   UNL     1       7.921   3.761   0.092  0.00  0.00    +0.018 A 
ATOM      3  C   UNL     1       8.754   4.861   0.125  0.00  0.00    +0.013 A 
ATOM      4  C   UNL     1      10.125   4.697   0.038  0.00  0.00    +0.057 A 
ATOM      5  C   UNL     1      10.669   3.429  -0.082  0.00  0.00    +0.046 A 
ATOM      6  C   UNL     1       9.845   2.323  -0.111  0.00  0.00    +0.141 A 
ENDROOT
BRANCH   4   7
ATOM      7  C   UNL     1      11.030   5.901   0.075  0.00  0.00    +0.417 C 
ATOM      8  F   UNL     1      10.257   7.061   0.200  0.00  0.00    -0.166 F 
ATOM      9  F   UNL     1      11.899   5.800   1.167  0.00  0.00    -0.166 F 
ATOM     10  F   UNL     1      11.774   5.962  -1.109  0.00  0.00    -0.166 F 
ENDBRANCH   4   7
BRANCH   6  11
ATOM     11  N   UNL     1      10.428   0.968  -0.234  0.00  0.00    +0.058 N 
ATOM     12  O   UNL     1      11.734   0.817  -0.311  0.00  0.00    -0.126 OA
ATOM     13  O   UNL     1       9.641  -0.087  -0.266  0.00  0.00    -0.126 OA
ENDBRANCH   6  11
BRANCH   1  14
ATOM     14  S   UNL     1       7.406   1.075  -0.072  0.00  0.00    -0.027 S 
BRANCH  14  18
ATOM     15  C   UNL     1       6.967  -0.392  -3.532  0.00  0.00    +0.256 A 
ATOM     16  N   UNL     1       7.693   0.714  -3.797  0.00  0.00    -0.106 NA
ATOM     17  N   UNL     1       7.928   1.334  -2.693  0.00  0.00    -0.100 NA
ATOM     18  C   UNL     1       7.364   0.653  -1.677  0.00  0.00    +0.282 A 
ATOM     19  O   UNL     1       6.754  -0.429  -2.198  0.00  0.00    -0.410 OA
BRANCH  15  22
ATOM     20  C   UNL     1       6.138  -2.388  -6.522  0.00  0.00    +0.008 A 
ATOM     21  C   UNL     1       6.702  -1.342  -5.872  0.00  0.00    +0.021 A 
ATOM     22  C   UNL     1       6.514  -1.323  -4.464  0.00  0.00    +0.076 A 
ATOM     23  S   UNL     1       5.549  -2.798  -4.199  0.00  0.00    -0.092 S 
ATOM     24  C   UNL     1       5.438  -3.336  -5.787  0.00  0.00    +0.046 A 
ENDBRANCH  15  22
ENDBRANCH  14  18
ENDBRANCH   1  14
TORSDOF 5
