REMARK  Name = ZINC35458272
REMARK  11 active torsions:
REMARK  status: ('A' for Active; 'I' for Inactive)
REMARK    1  A    between atoms: C_1  and  C_2
REMARK    2  A    between atoms: C_5  and  C_36
REMARK    3  A    between atoms: C_9  and  C_35
REMARK    4  A    between atoms: C_12  and  O_15
REMARK    5  A    between atoms: O_15  and  C_16
REMARK    6  A    between atoms: C_16  and  C_18
REMARK    7  A    between atoms: C_18  and  C_20
REMARK    8  A    between atoms: C_24  and  C_34
REMARK    9  A    between atoms: C_28  and  C_32
REMARK   10  A    between atoms: C_28  and  O_33
REMARK   11  A    between atoms: C_36  and  C_38
REMARK                            x       y       z     vdW  Elec       q    Type
REMARK                         _______ _______ _______ _____ _____    ______ ____
ROOT
ATOM      1  O   UNL     1       2.858  -2.369  -0.390  0.00  0.00    -0.422 OA
ENDROOT
BRANCH   1  12
ATOM      2  C   UNL     1       0.221   1.283   0.175  0.00  0.00    +0.085 C 
ATOM      3  C   UNL     1       0.123  -0.206   0.389  0.00  0.00    +0.099 C 
ATOM      4  C   UNL     1      -1.069  -0.573   0.557  0.00  0.00    -0.026 C 
ATOM      5  C   UNL     1      -2.176   0.415   0.927  0.00  0.00    +0.043 C 
ATOM      6  C   UNL     1      -2.528   0.092   2.390  0.00  0.00    +0.030 C 
ATOM      7  C   UNL     1      -2.950  -1.362   2.568  0.00  0.00    +0.009 C 
ATOM      8  C   UNL     1      -1.851  -2.337   2.105  0.00  0.00    +0.012 C 
ATOM      9  C   UNL     1      -1.542  -2.017   0.675  0.00  0.00    -0.007 C 
ATOM     10  C   UNL     1      -0.827  -2.952  -0.238  0.00  0.00    +0.018 C 
ATOM     11  C   UNL     1       0.639  -3.105   0.089  0.00  0.00    +0.090 C 
ATOM     12  C   UNL     1       1.486  -1.972  -0.422  0.00  0.00    +0.367 C 
ATOM     13  O   UNL     1       1.333  -0.792   0.344  0.00  0.00    -0.458 OA
ATOM     14  C   UNL     1      -2.931  -1.939   0.040  0.00  0.00    +0.016 C 
BRANCH   6  15
ATOM     15  C   UNL     1      -1.322   0.359   3.254  0.00  0.00    +0.037 C 
ATOM     16  C   UNL     1      -0.181  -0.291   3.026  0.00  0.00    +0.020 C 
BRANCH  15  17
ATOM     17  C   UNL     1      -1.405   1.335   4.346  0.00  0.00    +0.382 C 
ATOM     18  O   UNL     1      -0.402   1.621   4.987  0.00  0.00    -0.241 OA
ATOM     19  O   UNL     1      -2.475   1.861   4.617  0.00  0.00    -0.241 OA
ENDBRANCH  15  17
ENDBRANCH   6  15
ENDBRANCH   1  12
BRANCH   1  20
ATOM     20  C   UNL     1       3.756  -1.510  -0.913  0.00  0.00    +0.338 C 
ATOM     21  O   UNL     1       3.384  -0.453  -1.383  0.00  0.00    -0.245 OA
BRANCH  20  22
ATOM     22  C   UNL     1       5.185  -1.852  -0.914  0.00  0.00    +0.033 C 
ATOM     23  C   UNL     1       6.072  -1.005  -1.430  0.00  0.00    +0.019 C 
BRANCH  22  24
ATOM     24  C   UNL     1       5.647  -3.163  -0.331  0.00  0.00    +0.026 C 
ATOM     25  C   UNL     1       4.990  -4.318  -1.088  0.00  0.00    +0.009 C 
ATOM     26  C   UNL     1       5.458  -5.649  -0.496  0.00  0.00    +0.007 C 
ATOM     27  C   UNL     1       5.063  -5.717   0.980  0.00  0.00    -0.027 C 
ATOM     28  C   UNL     1       3.542  -5.610   1.107  0.00  0.00    +0.007 C 
ATOM     29  C   UNL     1       3.147  -5.679   2.583  0.00  0.00    +0.003 C 
ATOM     30  C   UNL     1       3.804  -4.523   3.341  0.00  0.00    +0.035 C 
ATOM     31  C   UNL     1       5.325  -4.630   3.215  0.00  0.00    +0.067 C 
ATOM     32  C   UNL     1       5.720  -4.562   1.738  0.00  0.00    +0.027 C 
ATOM     33  C   UNL     1       5.252  -3.231   1.146  0.00  0.00    +0.015 C 
ATOM     34  C   UNL     1       5.982  -3.475   3.973  0.00  0.00    +0.041 C 
ATOM     35  C   UNL     1       5.532  -7.048   1.573  0.00  0.00    +0.011 C 
BRANCH  31  36
ATOM     36  O   UNL     1       5.763  -5.873   3.768  0.00  0.00    -0.389 OA
ATOM     37  H   UNL     1       5.546  -5.985   4.704  0.00  0.00    +0.210 HD
ENDBRANCH  31  36
ENDBRANCH  22  24
ENDBRANCH  20  22
ENDBRANCH   1  20
TORSDOF 7
