REMARK  Name = ZINC15015895
REMARK  8 active torsions:
REMARK  status: ('A' for Active; 'I' for Inactive)
REMARK    1  A    between atoms: C_1  and  C_2
REMARK    2  A    between atoms: N_7  and  C_8
REMARK    3  A    between atoms: C_8  and  C_10
REMARK    4  A    between atoms: C_8  and  C_22
REMARK    5  A    between atoms: C_13  and  O_16
REMARK    6  A    between atoms: O_16  and  C_17
REMARK    7  A    between atoms: C_28  and  C_33
REMARK    8  A    between atoms: C_31  and  O_32
REMARK                            x       y       z     vdW  Elec       q    Type
REMARK                         _______ _______ _______ _____ _____    ______ ____
ROOT
ATOM      1  C   UNL     1       4.987   3.886  -0.027  0.00  0.00    +0.136 C 
ENDROOT
BRANCH   1   2
ATOM      2  C   UNL     1       3.896   2.856  -0.171  0.00  0.00    +0.021 A 
ATOM      3  C   UNL     1       4.188   1.513   0.051  0.00  0.00    +0.010 A 
ATOM      4  C   UNL     1       3.226   0.557  -0.071  0.00  0.00    +0.010 A 
ATOM      5  C   UNL     1       1.918   0.928  -0.426  0.00  0.00    +0.004 A 
ATOM      6  C   UNL     1       0.896  -0.031  -0.562  0.00  0.00    +0.012 A 
ATOM      7  C   UNL     1      -0.350   0.401  -0.915  0.00  0.00    +0.023 A 
ATOM      8  C   UNL     1      -0.583   1.760  -1.120  0.00  0.00    +0.039 A 
ATOM      9  N   UNL     1       0.371   2.649  -0.992  0.00  0.00    -0.248 NA
ATOM     10  C   UNL     1       1.613   2.292  -0.653  0.00  0.00    +0.113 A 
ATOM     11  C   UNL     1       2.637   3.254  -0.518  0.00  0.00    +0.148 A 
ATOM     12  C   UNL     1      -1.966   2.217  -1.503  0.00  0.00    +0.065 C 
BRANCH  11  13
ATOM     13  O   UNL     1       2.370   4.569  -0.731  0.00  0.00    -0.504 OA
ATOM     14  H   UNL     1       2.089   5.047   0.061  0.00  0.00    +0.292 HD
ENDBRANCH  11  13
ENDBRANCH   1   2
BRANCH   1  21
ATOM     15  C   UNL     1       9.867   2.050  -3.224  0.00  0.00    +0.063 C 
ATOM     16  C   UNL     1       8.475   2.592  -3.027  0.00  0.00    +0.014 A 
ATOM     17  C   UNL     1       7.732   2.974  -4.126  0.00  0.00    +0.021 A 
ATOM     18  C   UNL     1       6.450   3.474  -3.940  0.00  0.00    +0.005 A 
ATOM     19  C   UNL     1       5.961   3.572  -2.650  0.00  0.00    +0.041 A 
ATOM     20  C   UNL     1       6.765   3.168  -1.589  0.00  0.00    +0.097 A 
ATOM     21  N   UNL     1       6.286   3.261  -0.287  0.00  0.00    -0.320 N 
ATOM     22  H   UNL     1       6.812   2.912   0.449  0.00  0.00    +0.148 HD
ATOM     23  N   UNL     1       8.029   2.679  -1.746  0.00  0.00    -0.347 N 
ATOM     24  H   UNL     1       8.607   2.395  -0.947  0.00  0.00    +0.167 HD
ENDBRANCH   1  21
BRANCH   1  25
ATOM     25  C   UNL     1       4.969   4.445   1.372  0.00  0.00    -0.023 A 
ATOM     26  C   UNL     1       5.471   3.696   2.421  0.00  0.00    +0.009 A 
ATOM     27  C   UNL     1       5.461   4.208   3.704  0.00  0.00    +0.046 A 
ATOM     28  C   UNL     1       4.936   5.470   3.941  0.00  0.00    +0.121 A 
ATOM     29  C   UNL     1       4.427   6.217   2.888  0.00  0.00    +0.046 A 
ATOM     30  C   UNL     1       4.445   5.703   1.606  0.00  0.00    +0.009 A 
BRANCH  28  31
ATOM     31  O   UNL     1       4.920   5.974   5.203  0.00  0.00    -0.489 OA
BRANCH  31  32
ATOM     32  C   UNL     1       4.269   7.233   5.391  0.00  0.00    +0.173 C 
ATOM     33  C   UNL     1       5.261   8.385   5.128  0.00  0.00    +0.044 C 
ATOM     34  C   UNL     1       4.883   9.458   6.181  0.00  0.00    +0.004 C 
ATOM     35  C   UNL     1       4.534   8.607   7.427  0.00  0.00    +0.004 C 
ATOM     36  C   UNL     1       3.807   7.374   6.852  0.00  0.00    +0.044 C 
ENDBRANCH  31  32
ENDBRANCH  28  31
ENDBRANCH   1  25
TORSDOF 6
