REMARK  Name = ZINC13639952
REMARK  6 active torsions:
REMARK  status: ('A' for Active; 'I' for Inactive)
REMARK    1  A    between atoms: C_1  and  C_2
REMARK    2  A    between atoms: C_2  and  O_3
REMARK    3  A    between atoms: O_3  and  C_4
REMARK    4  A    between atoms: C_11  and  C_20
REMARK    5  A    between atoms: C_23  and  O_27
REMARK    6  A    between atoms: C_25  and  O_26
REMARK                            x       y       z     vdW  Elec       q    Type
REMARK                         _______ _______ _______ _____ _____    ______ ____
ROOT
ATOM      1  C   UNL     1       1.129   3.068  -5.774  0.00  0.00    +0.142 A 
ATOM      2  C   UNL     1       0.554   2.849  -7.013  0.00  0.00    +0.047 A 
ATOM      3  C   UNL     1      -0.009   1.618  -7.299  0.00  0.00    +0.004 A 
ATOM      4  C   UNL     1       0.003   0.616  -6.351  0.00  0.00    +0.006 A 
ATOM      5  C   UNL     1       0.579   0.825  -5.104  0.00  0.00    -0.016 A 
ATOM      6  C   UNL     1       1.142   2.051  -4.814  0.00  0.00    +0.074 A 
ATOM      7  N   UNL     1       1.737   2.324  -3.579  0.00  0.00    -0.334 N 
ATOM      8  C   UNL     1       1.146   1.520  -2.507  0.00  0.00    +0.109 C 
ATOM      9  C   UNL     1       1.301   0.041  -2.823  0.00  0.00    +0.029 C 
ATOM     10  C   UNL     1       0.551  -0.317  -4.122  0.00  0.00    +0.049 C 
ATOM     11  C   UNL     1       1.381  -1.452  -4.700  0.00  0.00    -0.023 C 
ATOM     12  C   UNL     1       2.597  -1.425  -4.216  0.00  0.00    -0.030 C 
ATOM     13  C   UNL     1       2.757  -0.270  -3.246  0.00  0.00    +0.033 C 
ATOM     14  H   UNL     1       1.686   3.308  -3.362  0.00  0.00    +0.147 HD
ENDROOT
BRANCH   8  15
ATOM     15  C   UNL     1       1.842   1.830  -1.207  0.00  0.00    +0.015 A 
ATOM     16  C   UNL     1       3.096   2.409  -1.217  0.00  0.00    +0.012 A 
ATOM     17  C   UNL     1       3.737   2.694  -0.026  0.00  0.00    +0.046 A 
ATOM     18  C   UNL     1       3.122   2.399   1.182  0.00  0.00    +0.120 A 
ATOM     19  C   UNL     1       1.862   1.822   1.195  0.00  0.00    +0.091 A 
ATOM     20  C   UNL     1       1.223   1.532  -0.001  0.00  0.00    +0.125 A 
BRANCH  20  21
ATOM     21  O   UNL     1      -0.011   0.963   0.007  0.00  0.00    -0.506 OA
ATOM     22  H   UNL     1       0.002  -0.004   0.002  0.00  0.00    +0.292 HD
ENDBRANCH  20  21
BRANCH  18  23
ATOM     23  O   UNL     1       3.753   2.679   2.353  0.00  0.00    -0.507 OA
ATOM     24  H   UNL     1       3.566   3.562   2.700  0.00  0.00    +0.292 HD
ENDBRANCH  18  23
ENDBRANCH   8  15
BRANCH   1  25
ATOM     25  O   UNL     1       1.685   4.276  -5.489  0.00  0.00    -0.490 OA
BRANCH  25  27
ATOM     26  C   UNL     1       2.306   6.552  -6.014  0.00  0.00    +0.048 C 
ATOM     27  C   UNL     1       1.637   5.270  -6.515  0.00  0.00    +0.226 C 
ENDBRANCH  25  27
ENDBRANCH   1  25
TORSDOF 5
