REMARK  Name = ZINC19370930
REMARK  4 active torsions:
REMARK  status: ('A' for Active; 'I' for Inactive)
REMARK    1  A    between atoms: C_4  and  C_7
REMARK    2  A    between atoms: C_7  and  C_8
REMARK    3  A    between atoms: C_7  and  N_14
REMARK    4  A    between atoms: N_17  and  C_20
REMARK                            x       y       z     vdW  Elec       q    Type
REMARK                         _______ _______ _______ _____ _____    ______ ____
ROOT
ATOM      1  N   UNL     1      -5.303  -2.492  -2.346  0.00  0.00    +0.389 N 
ATOM      2  C   UNL     1      -5.742  -1.259  -3.015  0.00  0.00    -0.062 C 
ATOM      3  C   UNL     1      -4.608  -0.232  -2.982  0.00  0.00    +0.066 C 
ATOM      4  N   UNL     1      -4.233   0.035  -1.586  0.00  0.00    -0.299 NA
ATOM      5  C   UNL     1      -3.794  -1.198  -0.917  0.00  0.00    +0.066 C 
ATOM      6  C   UNL     1      -4.928  -2.225  -0.950  0.00  0.00    -0.062 C 
ATOM      7  H   UNL     1      -4.412  -2.865  -2.871  0.00  0.00    -0.080 HD
ENDROOT
BRANCH   4   8
ATOM      8  C   UNL     1      -3.197   1.073  -1.509  0.00  0.00    +0.092 C 
ATOM      9  C   UNL     1      -1.959   0.542  -2.158  0.00  0.00    +0.060 C 
ATOM     10  C   UNL     1      -0.956   1.610  -2.448  0.00  0.00    -0.032 A 
ATOM     11  C   UNL     1      -0.840   2.103  -3.742  0.00  0.00    +0.005 A 
ATOM     12  C   UNL     1       0.036   3.140  -4.002  0.00  0.00    +0.000 A 
ATOM     13  C   UNL     1       0.806   3.680  -2.988  0.00  0.00    +0.001 A 
ATOM     14  C   UNL     1       0.711   3.170  -1.706  0.00  0.00    +0.015 A 
ATOM     15  C   UNL     1      -0.171   2.124  -1.458  0.00  0.00    +0.016 A 
ATOM     16  S   UNL     1      -0.290   1.422   0.150  0.00  0.00    -0.089 S 
ATOM     17  C   UNL     1      -1.942   1.695   0.683  0.00  0.00    +0.018 A 
ATOM     18  C   UNL     1      -3.071   1.500  -0.072  0.00  0.00    -0.015 A 
ATOM     19  C   UNL     1      -4.318   1.742   0.523  0.00  0.00    +0.026 A 
ATOM     20  C   UNL     1      -4.439   2.183   1.818  0.00  0.00    +0.041 A 
ATOM     21  C   UNL     1      -3.297   2.397   2.572  0.00  0.00    +0.021 A 
ATOM     22  C   UNL     1      -2.071   2.152   2.007  0.00  0.00    +0.017 A 
ATOM     23 CL   UNL     1      -6.007   2.471   2.503  0.00  0.00    -0.084 Cl
ENDBRANCH   4   8
BRANCH   1  24
ATOM     24  C   UNL     1      -6.339  -3.530  -2.423  0.00  0.00    -0.007 C 
BRANCH  24  28
ATOM     25  C   UNL     1      -7.078  -4.502  -6.517  0.00  0.00    +0.000 A 
ATOM     26  C   UNL     1      -8.137  -4.325  -5.646  0.00  0.00    +0.000 A 
ATOM     27  C   UNL     1      -7.898  -4.011  -4.321  0.00  0.00    +0.002 A 
ATOM     28  C   UNL     1      -6.600  -3.873  -3.867  0.00  0.00    -0.057 A 
ATOM     29  C   UNL     1      -5.541  -4.045  -4.739  0.00  0.00    +0.002 A 
ATOM     30  C   UNL     1      -5.780  -4.364  -6.062  0.00  0.00    +0.000 A 
ENDBRANCH  24  28
BRANCH  24  31
ATOM     31  C   UNL     1      -5.871  -4.762  -1.691  0.00  0.00    -0.057 A 
ATOM     32  C   UNL     1      -4.591  -5.242  -1.894  0.00  0.00    +0.002 A 
ATOM     33  C   UNL     1      -4.161  -6.369  -1.218  0.00  0.00    +0.000 A 
ATOM     34  C   UNL     1      -5.014  -7.021  -0.348  0.00  0.00    +0.000 A 
ATOM     35  C   UNL     1      -6.296  -6.544  -0.149  0.00  0.00    +0.000 A 
ATOM     36  C   UNL     1      -6.724  -5.414  -0.820  0.00  0.00    +0.002 A 
ENDBRANCH  24  31
ENDBRANCH   1  24
TORSDOF 4
