REMARK  Name = ZINC08448214
REMARK  6 active torsions:
REMARK  status: ('A' for Active; 'I' for Inactive)
REMARK    1  A    between atoms: C_4  and  C_7
REMARK    2  A    between atoms: C_7  and  N_8
REMARK    3  A    between atoms: C_9  and  C_29
REMARK    4  A    between atoms: C_16  and  C_17
REMARK    5  A    between atoms: C_20  and  C_23
REMARK    6  A    between atoms: C_32  and  C_35
REMARK                            x       y       z     vdW  Elec       q    Type
REMARK                         _______ _______ _______ _____ _____    ______ ____
ROOT
ATOM      1  N   UNL     1      -0.233  -2.131   0.277  0.00  0.00    -0.243 N 
ATOM      2  C   UNL     1       1.181  -2.042  -0.158  0.00  0.00    +0.130 C 
ATOM      3  C   UNL     1       1.174  -0.725  -0.951  0.00  0.00    +0.049 C 
ATOM      4  C   UNL     1       2.415   0.124  -0.668  0.00  0.00    -0.070 C 
ATOM      5  C   UNL     1       1.133   2.235  -0.794  0.00  0.00    -0.045 C 
ATOM      6  C   UNL     1      -0.058   1.440  -0.344  0.00  0.00    -0.041 C 
ATOM      7  C   UNL     1      -1.193   2.071   0.019  0.00  0.00    +0.011 C 
ATOM      8  C   UNL     1       0.010   0.026  -0.306  0.00  0.00    +0.064 C 
ATOM      9  N   UNL     1      -0.773  -0.839   0.234  0.00  0.00    -0.188 NA
ATOM     10  N   UNL     1       2.256   1.445  -1.339  0.00  0.00    +0.382 N 
ATOM     11  H   UNL     1       2.090   1.286  -2.340  0.00  0.00    -0.085 HD
ATOM     12  H   UNL     1       3.123   1.981  -1.217  0.00  0.00    -0.085 HD
ENDROOT
BRANCH   7  13
ATOM     13  C   UNL     1      -1.214   3.538   0.138  0.00  0.00    -0.025 A 
ATOM     14  C   UNL     1      -0.151   4.209   0.752  0.00  0.00    +0.008 A 
ATOM     15  C   UNL     1      -0.175   5.583   0.855  0.00  0.00    +0.013 A 
ATOM     16  C   UNL     1      -1.253   6.299   0.363  0.00  0.00    +0.055 A 
ATOM     17  C   UNL     1      -2.311   5.643  -0.241  0.00  0.00    +0.013 A 
ATOM     18  C   UNL     1      -2.299   4.269  -0.356  0.00  0.00    +0.008 A 
BRANCH  16  19
ATOM     19  C   UNL     1      -1.273   7.801   0.484  0.00  0.00    +0.417 C 
ATOM     20  F   UNL     1      -1.882   8.163   1.691  0.00  0.00    -0.166 F 
ATOM     21  F   UNL     1       0.037   8.289   0.459  0.00  0.00    -0.166 F 
ATOM     22  F   UNL     1      -1.995   8.345  -0.584  0.00  0.00    -0.166 F 
ENDBRANCH  16  19
ENDBRANCH   7  13
BRANCH   2  23
ATOM     23  C   UNL     1       2.107  -1.956   1.028  0.00  0.00    -0.025 A 
ATOM     24  C   UNL     1       1.693  -1.319   2.183  0.00  0.00    +0.006 A 
ATOM     25  C   UNL     1       2.541  -1.244   3.272  0.00  0.00    +0.013 A 
ATOM     26  C   UNL     1       3.806  -1.796   3.202  0.00  0.00    +0.055 A 
ATOM     27  C   UNL     1       4.222  -2.428   2.045  0.00  0.00    +0.013 A 
ATOM     28  C   UNL     1       3.372  -2.507   0.958  0.00  0.00    +0.006 A 
BRANCH  26  29
ATOM     29  C   UNL     1       4.732  -1.709   4.388  0.00  0.00    +0.417 C 
ATOM     30  F   UNL     1       5.493  -0.538   4.301  0.00  0.00    -0.166 F 
ATOM     31  F   UNL     1       3.980  -1.689   5.567  0.00  0.00    -0.166 F 
ATOM     32  F   UNL     1       5.584  -2.819   4.397  0.00  0.00    -0.166 F 
ENDBRANCH  26  29
ENDBRANCH   2  23
BRANCH   1  33
ATOM     33  C   UNL     1      -0.939  -3.349   0.679  0.00  0.00    +0.161 C 
BRANCH  33  37
ATOM     34  C   UNL     1      -0.489  -3.932   4.887  0.00  0.00    +0.000 A 
ATOM     35  C   UNL     1      -1.555  -3.198   4.401  0.00  0.00    +0.000 A 
ATOM     36  C   UNL     1      -1.700  -3.010   3.039  0.00  0.00    +0.005 A 
ATOM     37  C   UNL     1      -0.780  -3.555   2.164  0.00  0.00    -0.029 A 
ATOM     38  C   UNL     1       0.283  -4.293   2.650  0.00  0.00    +0.005 A 
ATOM     39  C   UNL     1       0.431  -4.479   4.011  0.00  0.00    +0.000 A 
ENDBRANCH  33  37
ENDBRANCH   1  33
TORSDOF 6
