REMARK  Name = ZINC05341419
REMARK  8 active torsions:
REMARK  status: ('A' for Active; 'I' for Inactive)
REMARK    1  A    between atoms: C_1  and  C_2
REMARK    2  A    between atoms: C_2  and  C_3
REMARK    3  A    between atoms: C_3  and  N_4
REMARK    4  A    between atoms: C_5  and  C_24
REMARK    5  A    between atoms: C_8  and  C_15
REMARK    6  A    between atoms: C_18  and  C_22
REMARK    7  A    between atoms: C_20  and  O_21
REMARK    8  A    between atoms: C_28  and  O_30
REMARK                            x       y       z     vdW  Elec       q    Type
REMARK                         _______ _______ _______ _____ _____    ______ ____
ROOT
ATOM      1  N   UNL     1       0.738  -1.962  -1.265  0.00  0.00    -0.285 N 
ATOM      2  C   UNL     1       1.783  -2.812  -0.679  0.00  0.00    +0.141 C 
ATOM      3  C   UNL     1       1.360  -4.232  -0.940  0.00  0.00    +0.035 A 
ATOM      4  C   UNL     1       1.647  -5.593  -0.794  0.00  0.00    +0.102 A 
ATOM      5  N   UNL     1       0.666  -6.266  -1.363  0.00  0.00    -0.173 NA
ATOM      6  N   UNL     1      -0.211  -5.464  -1.853  0.00  0.00    -0.272 N 
ATOM      7  H   UNL     1      -1.018  -5.738  -2.317  0.00  0.00    +0.189 HD
ATOM      8  C   UNL     1       0.161  -4.170  -1.623  0.00  0.00    +0.126 A 
ATOM      9  C   UNL     1      -0.201  -2.760  -1.805  0.00  0.00    +0.265 C 
ATOM     10  O   UNL     1      -1.206  -2.368  -2.367  0.00  0.00    -0.268 OA
ENDROOT
BRANCH   4  11
ATOM     11  C   UNL     1       2.837  -6.174  -0.122  0.00  0.00    +0.045 A 
ATOM     12  C   UNL     1       3.797  -5.339   0.443  0.00  0.00    +0.034 A 
ATOM     13  C   UNL     1       4.902  -5.884   1.067  0.00  0.00    +0.045 A 
ATOM     14  C   UNL     1       5.059  -7.258   1.132  0.00  0.00    -0.029 A 
ATOM     15  C   UNL     1       4.111  -8.095   0.573  0.00  0.00    +0.050 A 
ATOM     16  C   UNL     1       2.995  -7.560  -0.051  0.00  0.00    +0.126 A 
ATOM     17  C   UNL     1       6.268  -7.845   1.814  0.00  0.00    +0.045 C 
ATOM     18 CL   UNL     1       6.099  -4.843   1.772  0.00  0.00    -0.083 Cl
BRANCH  16  19
ATOM     19  O   UNL     1       2.060  -8.382  -0.595  0.00  0.00    -0.506 OA
ATOM     20  H   UNL     1       2.227  -8.610  -1.520  0.00  0.00    +0.292 HD
ENDBRANCH  16  19
ENDBRANCH   4  11
BRANCH   2  21
ATOM     21  C   UNL     1       1.883  -2.563   0.804  0.00  0.00    -0.019 A 
ATOM     22  C   UNL     1       0.735  -2.386   1.554  0.00  0.00    +0.006 A 
ATOM     23  C   UNL     1       0.824  -2.157   2.914  0.00  0.00    +0.004 A 
ATOM     24  C   UNL     1       2.061  -2.104   3.528  0.00  0.00    +0.045 A 
ATOM     25  C   UNL     1       3.214  -2.282   2.778  0.00  0.00    +0.117 A 
ATOM     26  C   UNL     1       3.122  -2.517   1.413  0.00  0.00    +0.051 A 
BRANCH  25  27
ATOM     27  O   UNL     1       4.432  -2.230   3.379  0.00  0.00    -0.507 OA
ATOM     28  H   UNL     1       4.747  -3.085   3.702  0.00  0.00    +0.292 HD
ENDBRANCH  25  27
ENDBRANCH   2  21
BRANCH   1  29
ATOM     29  C   UNL     1       0.718  -0.497  -1.257  0.00  0.00    +0.109 C 
BRANCH  29  31
ATOM     30  C   UNL     1      -0.019   1.526   0.010  0.00  0.00    +0.005 C 
ATOM     31  C   UNL     1       0.002  -0.004   0.002  0.00  0.00    +0.016 C 
ENDBRANCH  29  31
ENDBRANCH   1  29
TORSDOF 6
