REMARK  Name = ZINC20207801
REMARK  10 active torsions:
REMARK  status: ('A' for Active; 'I' for Inactive)
REMARK    1  A    between atoms: C_1  and  C_2
REMARK    2  A    between atoms: C_5  and  O_8
REMARK    3  A    between atoms: O_8  and  C_9
REMARK    4  A    between atoms: C_9  and  C_10
REMARK    5  A    between atoms: C_10  and  C_11
REMARK    6  A    between atoms: C_11  and  O_12
REMARK    7  A    between atoms: O_12  and  C_13
REMARK    8  A    between atoms: C_16  and  C_19
REMARK    9  A    between atoms: C_29  and  S_31
REMARK   10  A    between atoms: S_31  and  C_34
REMARK                            x       y       z     vdW  Elec       q    Type
REMARK                         _______ _______ _______ _____ _____    ______ ____
ROOT
ATOM      1  C   UNL     1       0.192  -9.435   3.300  0.00  0.00    +0.121 A 
ATOM      2  C   UNL     1       0.434  -8.833   4.530  0.00  0.00    +0.046 A 
ATOM      3  C   UNL     1       0.382  -9.573   5.678  0.00  0.00    +0.011 A 
ATOM      4  C   UNL     1       0.082 -10.941   5.614  0.00  0.00    -0.024 A 
ATOM      5  C   UNL     1      -0.162 -11.542   4.370  0.00  0.00    +0.011 A 
ATOM      6  C   UNL     1      -0.111 -10.791   3.230  0.00  0.00    +0.046 A 
ENDROOT
BRANCH   4   7
ATOM      7  C   UNL     1       0.025 -11.740   6.840  0.00  0.00    +0.024 C 
ATOM      8  C   UNL     1      -0.409 -11.167   8.014  0.00  0.00    +0.081 C 
ATOM      9  C   UNL     1      -1.001  -9.800   8.050  0.00  0.00    +0.153 C 
ATOM     10  N   UNL     1      -1.712  -9.300   7.074  0.00  0.00    -0.283 NA
ATOM     11  N   UNL     1      -0.717  -9.098   9.241  0.00  0.00    -0.150 N 
ATOM     12  C   UNL     1      -0.409  -9.841  10.360  0.00  0.00    +0.182 C 
ATOM     13  N   UNL     1      -0.252 -11.139  10.438  0.00  0.00    -0.152 NA
ATOM     14  C   UNL     1      -0.319 -11.881   9.313  0.00  0.00    +0.273 C 
ATOM     15  O   UNL     1      -0.302 -13.101   9.359  0.00  0.00    -0.268 OA
ATOM     16  S   UNL     1      -0.270  -8.591  11.610  0.00  0.00    -0.015 S 
ATOM     17  C   UNL     1      -0.527  -7.173  10.552  0.00  0.00    +0.235 C 
ATOM     18  N   UNL     1      -0.732  -7.727   9.392  0.00  0.00    -0.145 NA
ATOM     19  H   UNL     1      -2.075  -8.403   7.149  0.00  0.00    +0.188 HD
BRANCH  17  20
ATOM     20  S   UNL     1      -0.507  -5.462  10.972  0.00  0.00    +0.019 S 
ATOM     21  O   UNL     1       0.420  -5.362  12.045  0.00  0.00    -0.168 OA
ATOM     22  O   UNL     1      -0.268  -4.789   9.743  0.00  0.00    -0.168 OA
ATOM     23  C   UNL     1      -2.186  -5.107  11.562  0.00  0.00    +0.202 C 
ENDBRANCH  17  20
ENDBRANCH   4   7
BRANCH   1  24
ATOM     24  O   UNL     1       0.246  -8.696   2.164  0.00  0.00    -0.492 OA
BRANCH  24  25
ATOM     25  C   UNL     1       0.563  -7.309   2.306  0.00  0.00    +0.232 C 
BRANCH  25  26
ATOM     26  C   UNL     1       0.578  -6.645   0.928  0.00  0.00    +0.082 C 
BRANCH  26  27
ATOM     27  C   UNL     1       0.917  -5.161   1.081  0.00  0.00    +0.232 C 
BRANCH  27  28
ATOM     28  O   UNL     1       0.931  -4.541  -0.206  0.00  0.00    -0.492 OA
BRANCH  28  33
ATOM     29  C   UNL     1       2.116   0.963  -0.380  0.00  0.00    +0.044 C 
ATOM     30  C   UNL     1       1.800  -0.510  -0.333  0.00  0.00    -0.050 A 
ATOM     31  C   UNL     1       1.540  -1.197  -1.505  0.00  0.00    +0.007 A 
ATOM     32  C   UNL     1       1.248  -2.547  -1.465  0.00  0.00    +0.046 A 
ATOM     33  C   UNL     1       1.218  -3.213  -0.248  0.00  0.00    +0.121 A 
ATOM     34  C   UNL     1       1.480  -2.521   0.925  0.00  0.00    +0.046 A 
ATOM     35  C   UNL     1       1.775  -1.173   0.880  0.00  0.00    +0.007 A 
ENDBRANCH  28  33
ENDBRANCH  27  28
ENDBRANCH  26  27
ENDBRANCH  25  26
ENDBRANCH  24  25
ENDBRANCH   1  24
TORSDOF 8
