REMARK  Name = ZINC19743422
REMARK  7 active torsions:
REMARK  status: ('A' for Active; 'I' for Inactive)
REMARK    1  A    between atoms: C_1  and  C_2
REMARK    2  A    between atoms: C_10  and  C_11
REMARK    3  A    between atoms: N_13  and  C_14
REMARK    4  A    between atoms: C_14  and  C_15
REMARK    5  A    between atoms: C_15  and  N_20
REMARK    6  A    between atoms: N_26  and  C_27
REMARK    7  A    between atoms: C_27  and  C_28
REMARK                            x       y       z     vdW  Elec       q    Type
REMARK                         _______ _______ _______ _____ _____    ______ ____
ROOT
ATOM      1  C   UNL     1       6.135   0.013   0.238  0.00  0.00    +0.251 C 
ATOM      2  O   UNL     1       6.462  -1.156   0.321  0.00  0.00    -0.270 OA
ATOM      3  N   UNL     1       6.992   0.981   0.619  0.00  0.00    -0.309 N 
ATOM      4  H   UNL     1       6.697   2.038   0.544  0.00  0.00    +0.149 HD
ENDROOT
BRANCH   1  14
ATOM      5  C   UNL     1       4.013  -1.950  -0.688  0.00  0.00    +0.046 C 
ATOM      6  C   UNL     1       3.814  -0.456  -0.707  0.00  0.00    -0.019 A 
ATOM      7  C   UNL     1       2.606   0.085  -1.166  0.00  0.00    +0.051 A 
ATOM      8  C   UNL     1       1.444  -0.584  -1.655  0.00  0.00    +0.131 A 
ATOM      9  N   UNL     1       0.402   0.134  -2.041  0.00  0.00    -0.220 NA
ATOM     10  C   UNL     1       0.396   1.453  -1.989  0.00  0.00    +0.224 A 
ATOM     11  N   UNL     1       1.438   2.131  -1.547  0.00  0.00    -0.228 NA
ATOM     12  C   UNL     1       2.521   1.499  -1.142  0.00  0.00    +0.114 A 
ATOM     13  S   UNL     1       4.097   1.992  -0.493  0.00  0.00    -0.064 S 
ATOM     14  C   UNL     1       4.807   0.370  -0.277  0.00  0.00    +0.079 A 
ATOM     15  N   UNL     1       1.409  -1.961  -1.726  0.00  0.00    -0.325 N 
ATOM     16  H   UNL     1       2.313  -2.547  -1.501  0.00  0.00    +0.148 HD
BRANCH  15  17
ATOM     17  C   UNL     1       0.169  -2.644  -2.102  0.00  0.00    +0.130 C 
BRANCH  17  18
ATOM     18  C   UNL     1       0.396  -4.134  -2.104  0.00  0.00    -0.016 C 
ATOM     19  C   UNL     1      -0.373  -4.915  -1.387  0.00  0.00    +0.005 C 
ENDBRANCH  17  18
ENDBRANCH  15  17
ENDBRANCH   1  14
BRANCH   3  20
ATOM     20  C   UNL     1       8.317   0.626   1.133  0.00  0.00    +0.126 C 
BRANCH  20  21
ATOM     21  C   UNL     1       9.034   1.889   1.612  0.00  0.00    +0.038 C 
ATOM     22  C   UNL     1       8.221   2.564   2.736  0.00  0.00    +0.024 C 
ATOM     23  C   UNL     1       8.400   4.081   2.474  0.00  0.00    +0.002 C 
ATOM     24  C   UNL     1       8.371   4.169   0.928  0.00  0.00    +0.002 C 
ATOM     25  C   UNL     1       9.130   2.909   0.464  0.00  0.00    +0.024 C 
BRANCH  21  26
ATOM     26  N   UNL     1      10.379   1.551   2.098  0.00  0.00    -0.291 NA
ATOM     27  C   UNL     1      11.220   1.039   1.007  0.00  0.00    +0.113 C 
ATOM     28  C   UNL     1      12.626   0.756   1.543  0.00  0.00    +0.175 C 
ATOM     29  O   UNL     1      12.538  -0.163   2.635  0.00  0.00    -0.377 OA
ATOM     30  C   UNL     1      11.726   0.304   3.716  0.00  0.00    +0.175 C 
ATOM     31  C   UNL     1      10.311   0.582   3.202  0.00  0.00    +0.113 C 
ENDBRANCH  21  26
ENDBRANCH  20  21
ENDBRANCH   3  20
TORSDOF 6
