REMARK  Name = ZINC02621412
REMARK  8 active torsions:
REMARK  status: ('A' for Active; 'I' for Inactive)
REMARK    1  A    between atoms: C_1  and  C_2
REMARK    2  A    between atoms: C_2  and  C_4
REMARK    3  A    between atoms: C_2  and  S_10
REMARK    4  A    between atoms: S_10  and  C_11
REMARK    5  A    between atoms: C_14  and  C_22
REMARK    6  A    between atoms: N_15  and  C_16
REMARK    7  A    between atoms: C_22  and  O_23
REMARK    8  A    between atoms: O_23  and  C_24
REMARK                            x       y       z     vdW  Elec       q    Type
REMARK                         _______ _______ _______ _____ _____    ______ ____
ROOT
ATOM      1  C   UNL     1       0.573   3.603   0.015  0.00  0.00    +0.197 A 
ATOM      2  N   UNL     1      -0.736   3.500   0.027  0.00  0.00    -0.122 NA
ATOM      3  N   UNL     1      -1.078   2.261   0.019  0.00  0.00    -0.130 NA
ATOM      4  C   UNL     1      -0.018   1.503   0.010  0.00  0.00    +0.176 A 
ATOM      5  N   UNL     1       1.074   2.330   0.004  0.00  0.00    -0.271 N 
ENDROOT
BRANCH   5   6
ATOM      6  C   UNL     1       2.424   1.950  -0.010  0.00  0.00    +0.050 A 
ATOM      7  C   UNL     1       2.967   1.273   1.073  0.00  0.00    +0.026 A 
ATOM      8  C   UNL     1       4.296   0.896   1.054  0.00  0.00    +0.002 A 
ATOM      9  C   UNL     1       5.087   1.202  -0.038  0.00  0.00    +0.000 A 
ATOM     10  C   UNL     1       4.550   1.882  -1.115  0.00  0.00    +0.002 A 
ATOM     11  C   UNL     1       3.221   2.256  -1.105  0.00  0.00    +0.026 A 
ENDBRANCH   5   6
BRANCH   1  12
ATOM     12  S   UNL     1       1.506   5.097   0.014  0.00  0.00    -0.073 S 
BRANCH  12  14
ATOM     13  C   UNL     1      -0.613   6.190   1.347  0.00  0.00    +0.029 C 
ATOM     14  C   UNL     1       0.162   6.308   0.033  0.00  0.00    +0.137 C 
BRANCH  14  15
ATOM     15  C   UNL     1       0.735   7.696  -0.090  0.00  0.00    +0.233 C 
ATOM     16  O   UNL     1       1.899   7.897   0.179  0.00  0.00    -0.274 OA
ATOM     17  N   UNL     1      -0.048   8.715  -0.498  0.00  0.00    -0.239 N 
ATOM     18  C   UNL     1       0.464   9.956  -0.608  0.00  0.00    +0.303 C 
ATOM     19  O   UNL     1       1.632  10.158  -0.338  0.00  0.00    -0.253 OA
ATOM     20  N   UNL     1      -0.319  10.975  -1.017  0.00  0.00    -0.313 N 
ATOM     21  H   UNL     1      -0.980   8.554  -0.714  0.00  0.00    +0.159 HD
ATOM     22  H   UNL     1      -1.251  10.814  -1.232  0.00  0.00    +0.146 HD
ATOM     23  H   UNL     1       0.050  11.868  -1.095  0.00  0.00    +0.146 HD
ENDBRANCH  14  15
ENDBRANCH  12  14
ENDBRANCH   1  12
BRANCH   4  24
ATOM     24  C   UNL     1       0.002  -0.004   0.002  0.00  0.00    +0.305 C 
BRANCH  24  25
ATOM     25  O   UNL     1       0.021  -0.488   1.347  0.00  0.00    -0.481 OA
BRANCH  25  26
ATOM     26  C   UNL     1       0.041  -1.836   1.517  0.00  0.00    +0.156 A 
ATOM     27  C   UNL     1       0.037  -2.676   0.414  0.00  0.00    +0.048 A 
ATOM     28  C   UNL     1       0.061  -4.047   0.590  0.00  0.00    +0.004 A 
ATOM     29  C   UNL     1       0.081  -4.582   1.864  0.00  0.00    +0.003 A 
ATOM     30  C   UNL     1       0.081  -3.748   2.967  0.00  0.00    +0.042 A 
ATOM     31  C   UNL     1       0.061  -2.375   2.797  0.00  0.00    +0.165 A 
ATOM     32  F   UNL     1       0.060  -1.560   3.875  0.00  0.00    -0.202 F 
ENDBRANCH  25  26
ENDBRANCH  24  25
ENDBRANCH   4  24
TORSDOF 7
