REMARK  Name = ZINC43327000
REMARK  8 active torsions:
REMARK  status: ('A' for Active; 'I' for Inactive)
REMARK    1  A    between atoms: C_1  and  C_2
REMARK    2  A    between atoms: C_2  and  C_3
REMARK    3  A    between atoms: C_2  and  C_4
REMARK    4  A    between atoms: C_2  and  O_5
REMARK    5  A    between atoms: O_5  and  C_6
REMARK    6  A    between atoms: C_12  and  N_15
REMARK    7  A    between atoms: N_15  and  C_16
REMARK    8  A    between atoms: C_21  and  O_24
REMARK                            x       y       z     vdW  Elec       q    Type
REMARK                         _______ _______ _______ _____ _____    ______ ____
ROOT
ATOM      1  C   UNL     1       1.906  -0.294  -1.360  0.00  0.00    +0.403 C 
ATOM      2  O   UNL     1       2.389   0.503  -0.581  0.00  0.00    -0.226 OA
ATOM      3  N   UNL     1       2.619  -0.714  -2.424  0.00  0.00    -0.269 N 
ATOM      4  C   UNL     1       2.046  -1.673  -3.378  0.00  0.00    +0.111 C 
ATOM      5  C   UNL     1       3.007  -2.857  -3.524  0.00  0.00    +0.018 C 
ATOM      6  C   UNL     1       4.394  -2.338  -3.911  0.00  0.00    -0.013 C 
ATOM      7  C   UNL     1       4.923  -1.420  -2.807  0.00  0.00    -0.054 C 
ATOM      8  C   UNL     1       3.982  -0.215  -2.656  0.00  0.00    +0.095 C 
ENDROOT
BRANCH   7   9
ATOM      9  N   UNL     1       6.268  -0.949  -3.164  0.00  0.00    +0.384 N 
ATOM     10  H   UNL     1       6.860  -1.741  -3.361  0.00  0.00    -0.085 HD
ATOM     11  H   UNL     1       6.211  -0.359  -3.980  0.00  0.00    -0.085 HD
BRANCH   9  12
ATOM     12  C   UNL     1       6.831  -0.182  -2.044  0.00  0.00    -0.069 C 
ATOM     13  C   UNL     1       8.165   0.434  -2.469  0.00  0.00    -0.016 C 
ATOM     14  C   UNL     1       8.752   1.232  -1.302  0.00  0.00    +0.001 C 
ATOM     15  C   UNL     1       8.977   0.301  -0.109  0.00  0.00    +0.031 C 
ATOM     16  C   UNL     1       7.643  -0.315   0.315  0.00  0.00    +0.113 C 
ATOM     17  C   UNL     1       7.056  -1.113  -0.851  0.00  0.00    +0.015 C 
BRANCH  16  18
ATOM     18  O   UNL     1       7.852  -1.185   1.430  0.00  0.00    -0.392 OA
ATOM     19  H   UNL     1       8.224  -0.745   2.207  0.00  0.00    +0.210 HD
ENDBRANCH  16  18
ENDBRANCH   9  12
ENDBRANCH   7   9
BRANCH   1  20
ATOM     20  O   UNL     1       0.658  -0.759  -1.160  0.00  0.00    -0.445 OA
BRANCH  20  22
ATOM     21  C   UNL     1      -0.178   1.249  -0.107  0.00  0.00    +0.055 C 
ATOM     22  C   UNL     1      -0.040  -0.272  -0.012  0.00  0.00    +0.107 C 
ATOM     23  C   UNL     1       0.742  -0.635   1.252  0.00  0.00    +0.055 C 
ATOM     24  C   UNL     1      -1.430  -0.907   0.047  0.00  0.00    +0.055 C 
ENDBRANCH  20  22
ENDBRANCH   1  20
TORSDOF 5
