REMARK  Name = ZINC17818049
REMARK  11 active torsions:
REMARK  status: ('A' for Active; 'I' for Inactive)
REMARK    1  A    between atoms: C_1  and  C_2
REMARK    2  A    between atoms: C_2  and  C_3
REMARK    3  A    between atoms: C_3  and  O_4
REMARK    4  A    between atoms: O_4  and  C_5
REMARK    5  A    between atoms: C_8  and  C_13
REMARK    6  A    between atoms: C_10  and  O_11
REMARK    7  A    between atoms: O_11  and  C_12
REMARK    8  A    between atoms: N_15  and  N_16
REMARK    9  A    between atoms: C_17  and  C_19
REMARK   10  A    between atoms: C_19  and  C_20
REMARK   11  A    between atoms: C_20  and  C_21
REMARK                            x       y       z     vdW  Elec       q    Type
REMARK                         _______ _______ _______ _____ _____    ______ ____
ROOT
ATOM      1  N   UNL     1       1.266  -6.309  -0.042  0.00  0.00    -0.234 N 
ATOM      2  C   UNL     1       2.444  -6.964  -0.057  0.00  0.00    +0.229 C 
ATOM      3  O   UNL     1       3.484  -6.340  -0.065  0.00  0.00    -0.274 OA
ATOM      4  H   UNL     1       0.434  -6.808  -0.036  0.00  0.00    +0.173 HD
ENDROOT
BRANCH   1   7
ATOM      5  C   UNL     1       0.065  -4.253  -0.019  0.00  0.00    +0.260 C 
ATOM      6  O   UNL     1      -0.978  -4.878  -0.012  0.00  0.00    -0.269 OA
ATOM      7  N   UNL     1       1.243  -4.908  -0.035  0.00  0.00    -0.230 N 
ATOM      8  H   UNL     1       2.075  -4.410  -0.041  0.00  0.00    +0.173 HD
BRANCH   5  12
ATOM      9  C   UNL     1       0.002  -0.004   0.002  0.00  0.00    +0.162 A 
ATOM     10  C   UNL     1       1.214  -0.680  -0.013  0.00  0.00    +0.050 A 
ATOM     11  C   UNL     1       1.238  -2.058  -0.020  0.00  0.00    +0.017 A 
ATOM     12  C   UNL     1       0.041  -2.778  -0.012  0.00  0.00    +0.042 A 
ATOM     13  C   UNL     1      -1.179  -2.097   0.003  0.00  0.00    +0.062 A 
ATOM     14  C   UNL     1      -1.196  -0.716   0.015  0.00  0.00    +0.162 A 
BRANCH  14  15
ATOM     15  O   UNL     1      -2.382  -0.051   0.036  0.00  0.00    -0.491 OA
ATOM     16  C   UNL     1      -3.571  -0.844   0.049  0.00  0.00    +0.277 C 
ENDBRANCH  14  15
BRANCH   9  17
ATOM     17  O   UNL     1      -0.016   1.354   0.009  0.00  0.00    -0.488 OA
BRANCH  17  18
ATOM     18  C   UNL     1       1.248   2.020   0.001  0.00  0.00    +0.229 C 
BRANCH  18  20
ATOM     19  C   UNL     1       2.381   4.247   0.002  0.00  0.00    +0.007 C 
ATOM     20  C   UNL     1       1.027   3.534   0.011  0.00  0.00    +0.038 C 
ENDBRANCH  18  20
ENDBRANCH  17  18
ENDBRANCH   9  17
ENDBRANCH   5  12
ENDBRANCH   1   7
BRANCH   2  21
ATOM     21  C   UNL     1       2.468  -8.470  -0.065  0.00  0.00    +0.105 C 
BRANCH  21  22
ATOM     22  C   UNL     1       3.919  -8.957  -0.082  0.00  0.00    +0.083 C 
BRANCH  22  23
ATOM     23  C   UNL     1       3.943 -10.464  -0.090  0.00  0.00    +0.111 A 
ATOM     24  N   UNL     1       5.137 -11.111  -0.105  0.00  0.00    -0.310 N 
ATOM     25  H   UNL     1       5.957 -10.594  -0.111  0.00  0.00    +0.170 HD
ATOM     26  C   UNL     1       5.204 -12.456  -0.113  0.00  0.00    +0.260 A 
ATOM     27  O   UNL     1       6.283 -13.022  -0.127  0.00  0.00    -0.267 OA
ATOM     28  C   UNL     1       3.985 -13.210  -0.104  0.00  0.00    +0.075 A 
ATOM     29  C   UNL     1       3.816 -14.662  -0.110  0.00  0.00    -0.023 A 
ATOM     30  C   UNL     1       2.551 -15.132  -0.100  0.00  0.00    -0.004 A 
ATOM     31  S   UNL     1       1.525 -13.686  -0.081  0.00  0.00    -0.073 S 
ATOM     32  C   UNL     1       2.803 -12.454  -0.088  0.00  0.00    +0.116 A 
ATOM     33  N   UNL     1       2.816 -11.124  -0.076  0.00  0.00    -0.227 NA
ATOM     34  C   UNL     1       2.114 -16.565  -0.103  0.00  0.00    +0.043 C 
ATOM     35  C   UNL     1       3.316 -17.436  -0.495  0.00  0.00    +0.005 C 
ATOM     36  C   UNL     1       4.529 -17.001   0.332  0.00  0.00    +0.005 C 
ATOM     37  C   UNL     1       5.003 -15.622  -0.127  0.00  0.00    +0.037 C 
ENDBRANCH  22  23
ENDBRANCH  21  22
ENDBRANCH   2  21
TORSDOF 9
