REMARK  Name = ZINC36658192
REMARK  7 active torsions:
REMARK  status: ('A' for Active; 'I' for Inactive)
REMARK    1  A    between atoms: C_1  and  C_2
REMARK    2  A    between atoms: C_2  and  C_3
REMARK    3  A    between atoms: C_6  and  C_9
REMARK    4  A    between atoms: C_9  and  C_10
REMARK    5  A    between atoms: C_16  and  C_18
REMARK    6  A    between atoms: N_23  and  S_24
REMARK    7  A    between atoms: S_24  and  C_27
REMARK                            x       y       z     vdW  Elec       q    Type
REMARK                         _______ _______ _______ _____ _____    ______ ____
ROOT
ATOM      1  C   UNL     1      -6.383  -0.846   0.053  0.00  0.00    +0.223 A 
ATOM      2  N   UNL     1      -6.888  -0.257  -0.992  0.00  0.00    -0.111 NA
ATOM      3  N   UNL     1      -7.672   0.690  -0.614  0.00  0.00    -0.092 NA
ATOM      4  C   UNL     1      -7.694   0.738   0.694  0.00  0.00    +0.314 A 
ATOM      5  O   UNL     1      -6.883  -0.236   1.144  0.00  0.00    -0.409 OA
ATOM      6  N   UNL     1      -8.423   1.627   1.472  0.00  0.00    -0.237 N 
ATOM      7  C   UNL     1      -9.203   2.554   0.884  0.00  0.00    +0.239 C 
ATOM      8  O   UNL     1      -9.269   2.613  -0.326  0.00  0.00    -0.274 OA
ATOM      9  H   UNL     1      -8.370   1.580   2.440  0.00  0.00    +0.159 HD
ENDROOT
BRANCH   7  10
ATOM     10  C   UNL     1      -9.994   3.519   1.729  0.00  0.00    +0.166 C 
ATOM     11  C   UNL     1      -9.036   4.380   2.579  0.00  0.00    +0.031 C 
ATOM     12  C   UNL     1      -8.906   5.682   1.745  0.00  0.00    +0.019 C 
ATOM     13  C   UNL     1     -10.332   5.817   1.155  0.00  0.00    +0.110 C 
ATOM     14  N   UNL     1     -10.756   4.432   0.865  0.00  0.00    -0.165 NA
BRANCH  14  15
ATOM     15  S   UNL     1     -11.897   3.981  -0.248  0.00  0.00    +0.062 S 
ATOM     16  O   UNL     1     -11.964   5.028  -1.207  0.00  0.00    -0.153 OA
ATOM     17  O   UNL     1     -11.605   2.637  -0.606  0.00  0.00    -0.153 OA
BRANCH  15  18
ATOM     18  C   UNL     1     -13.452   3.956   0.580  0.00  0.00    +0.106 A 
ATOM     19  C   UNL     1     -13.886   2.799   1.198  0.00  0.00    +0.030 A 
ATOM     20  C   UNL     1     -15.106   2.779   1.848  0.00  0.00    +0.022 A 
ATOM     21  C   UNL     1     -15.892   3.917   1.879  0.00  0.00    +0.041 A 
ATOM     22  C   UNL     1     -15.456   5.075   1.260  0.00  0.00    +0.022 A 
ATOM     23  C   UNL     1     -14.234   5.095   0.616  0.00  0.00    +0.030 A 
ATOM     24 CL   UNL     1     -17.424   3.892   2.695  0.00  0.00    -0.084 Cl
ENDBRANCH  15  18
ENDBRANCH  14  15
ENDBRANCH   7  10
BRANCH   1  25
ATOM     25  C   UNL     1      -5.419  -2.005   0.043  0.00  0.00    +0.132 C 
BRANCH  25  29
ATOM     26  C   UNL     1      -1.412  -0.526   0.013  0.00  0.00    -0.048 A 
ATOM     27  C   UNL     1      -2.051  -0.766   1.215  0.00  0.00    +0.004 A 
ATOM     28  C   UNL     1      -3.348  -1.244   1.225  0.00  0.00    +0.004 A 
ATOM     29  C   UNL     1      -4.006  -1.482   0.032  0.00  0.00    -0.038 A 
ATOM     30  C   UNL     1      -3.367  -1.241  -1.170  0.00  0.00    +0.004 A 
ATOM     31  C   UNL     1      -2.072  -0.758  -1.179  0.00  0.00    +0.004 A 
BRANCH  26  33
ATOM     32  C   UNL     1      -0.019   1.526   0.010  0.00  0.00    +0.009 C 
ATOM     33  C   UNL     1       0.002  -0.004   0.002  0.00  0.00    +0.032 C 
ENDBRANCH  26  33
ENDBRANCH  25  29
ENDBRANCH   1  25
TORSDOF 6
