REMARK  Name = ZINC64651062
REMARK  8 active torsions:
REMARK  status: ('A' for Active; 'I' for Inactive)
REMARK    1  A    between atoms: C_1  and  N_2
REMARK    2  A    between atoms: N_2  and  C_3
REMARK    3  A    between atoms: C_3  and  C_5
REMARK    4  A    between atoms: C_3  and  C_13
REMARK    5  A    between atoms: C_5  and  C_6
REMARK    6  A    between atoms: N_16  and  C_19
REMARK    7  A    between atoms: C_19  and  C_20
REMARK    8  A    between atoms: C_30  and  C_32
REMARK                            x       y       z     vdW  Elec       q    Type
REMARK                         _______ _______ _______ _____ _____    ______ ____
ROOT
ATOM      1  C   UNL     1       1.267  -0.743  -0.008  0.00  0.00    +0.083 C 
ENDROOT
BRANCH   1   2
ATOM      2  C   UNL     1       2.133  -0.289   1.169  0.00  0.00    +0.006 C 
ATOM      3  C   UNL     1       3.451  -1.068   1.166  0.00  0.00    -0.013 C 
ATOM      4  C   UNL     1       4.277  -0.666   2.389  0.00  0.00    -0.078 C 
ATOM      5  N   UNL     1       3.528  -0.975   3.613  0.00  0.00    +0.381 N 
ATOM      6  C   UNL     1       2.297  -0.177   3.657  0.00  0.00    -0.078 C 
ATOM      7  C   UNL     1       1.394  -0.560   2.483  0.00  0.00    -0.013 C 
ATOM      8  H   UNL     1       3.292  -1.956   3.624  0.00  0.00    -0.082 HD
BRANCH   5   9
ATOM      9  C   UNL     1       4.356  -0.660   4.785  0.00  0.00    -0.050 C 
BRANCH   9  10
ATOM     10  C   UNL     1       3.626  -1.096   6.057  0.00  0.00    +0.086 C 
ATOM     11  C   UNL     1       4.536  -0.947   7.256  0.00  0.00    +0.005 C 
ATOM     12  C   UNL     1       4.672  -2.187   7.779  0.00  0.00    -0.004 A 
ATOM     13  C   UNL     1       5.417  -2.703   8.934  0.00  0.00    +0.010 A 
ATOM     14  C   UNL     1       5.360  -4.025   9.214  0.00  0.00    +0.001 A 
ATOM     15  C   UNL     1       4.609  -4.913   8.431  0.00  0.00    +0.002 A 
ATOM     16  C   UNL     1       3.898  -4.514   7.354  0.00  0.00    +0.026 A 
ATOM     17  C   UNL     1       3.887  -3.145   6.968  0.00  0.00    +0.043 A 
ATOM     18  N   UNL     1       3.286  -2.521   5.982  0.00  0.00    -0.380 N 
ATOM     19  H   UNL     1       2.714  -2.932   5.315  0.00  0.00    +0.160 HD
ENDBRANCH   9  10
ENDBRANCH   5   9
ENDBRANCH   1   2
BRANCH   1  21
ATOM     20  C   UNL     1       0.011   1.461   0.033  0.00  0.00    +0.132 C 
ATOM     21  N   UNL     1       0.002  -0.004   0.002  0.00  0.00    -0.297 N 
ATOM     22  C   UNL     1      -1.169  -0.671  -0.018  0.00  0.00    +0.253 C 
ATOM     23  O   UNL     1      -1.178  -1.886   0.045  0.00  0.00    -0.269 OA
BRANCH  22  24
ATOM     24  C   UNL     1      -2.431   0.068  -0.115  0.00  0.00    +0.074 A 
ATOM     25  C   UNL     1      -3.731  -0.411  -0.051  0.00  0.00    +0.021 A 
ATOM     26  C   UNL     1      -4.722   0.533  -0.176  0.00  0.00    +0.008 A 
ATOM     27  C   UNL     1      -4.376   1.833  -0.349  0.00  0.00    +0.046 A 
ATOM     28  S   UNL     1      -2.696   1.816  -0.339  0.00  0.00    -0.092 S 
ENDBRANCH  22  24
ENDBRANCH   1  21
BRANCH   1  29
ATOM     29  C   UNL     1       2.006  -0.472  -1.320  0.00  0.00    +0.060 C 
BRANCH  29  30
ATOM     30  C   UNL     1       1.209  -1.030  -2.470  0.00  0.00    -0.010 A 
ATOM     31  C   UNL     1       1.485  -2.295  -2.954  0.00  0.00    +0.006 A 
ATOM     32  C   UNL     1       0.754  -2.808  -4.009  0.00  0.00    +0.000 A 
ATOM     33  C   UNL     1      -0.254  -2.055  -4.582  0.00  0.00    +0.003 A 
ATOM     34  C   UNL     1      -0.532  -0.790  -4.101  0.00  0.00    +0.038 A 
ATOM     35  C   UNL     1       0.196  -0.278  -3.040  0.00  0.00    +0.127 A 
ATOM     36  F   UNL     1      -0.078   0.957  -2.565  0.00  0.00    -0.205 F 
ENDBRANCH  29  30
ENDBRANCH   1  29
TORSDOF 7
