REMARK  Name = ZINC20208534
REMARK  7 active torsions:
REMARK  status: ('A' for Active; 'I' for Inactive)
REMARK    1  A    between atoms: C_1  and  C_2
REMARK    2  A    between atoms: C_2  and  S_3
REMARK    3  A    between atoms: S_3  and  C_6
REMARK    4  A    between atoms: C_12  and  C_13
REMARK    5  A    between atoms: C_16  and  O_20
REMARK    6  A    between atoms: O_20  and  C_21
REMARK    7  A    between atoms: C_21  and  C_23
REMARK                            x       y       z     vdW  Elec       q    Type
REMARK                         _______ _______ _______ _____ _____    ______ ____
ROOT
ATOM      1  C   UNL     1       1.216  -2.739  -2.831  0.00  0.00    +0.235 C 
ATOM      2  N   UNL     1       0.338  -3.649  -3.140  0.00  0.00    -0.145 NA
ATOM      3  N   UNL     1       0.328  -4.877  -2.513  0.00  0.00    -0.150 N 
ATOM      4  C   UNL     1      -0.518  -5.960  -2.833  0.00  0.00    +0.153 C 
ATOM      5  N   UNL     1      -1.094  -6.102  -3.996  0.00  0.00    -0.283 NA
ATOM      6  C   UNL     1      -0.688  -6.928  -1.711  0.00  0.00    +0.081 C 
ATOM      7  C   UNL     1      -1.866  -7.613  -1.517  0.00  0.00    +0.024 C 
ATOM      8  C   UNL     1       0.481  -7.112  -0.815  0.00  0.00    +0.273 C 
ATOM      9  O   UNL     1       0.632  -8.146  -0.185  0.00  0.00    -0.268 OA
ATOM     10  N   UNL     1       1.371  -6.105  -0.719  0.00  0.00    -0.152 NA
ATOM     11  C   UNL     1       1.248  -5.065  -1.504  0.00  0.00    +0.182 C 
ATOM     12  S   UNL     1       2.173  -3.552  -1.559  0.00  0.00    -0.015 S 
ATOM     13  H   UNL     1      -1.008  -5.407  -4.668  0.00  0.00    +0.188 HD
ENDROOT
BRANCH   7  14
ATOM     14  C   UNL     1      -3.051  -7.271  -2.307  0.00  0.00    -0.023 A 
ATOM     15  C   UNL     1      -3.947  -8.275  -2.702  0.00  0.00    +0.011 A 
ATOM     16  C   UNL     1      -5.059  -7.948  -3.444  0.00  0.00    +0.048 A 
ATOM     17  C   UNL     1      -5.295  -6.625  -3.803  0.00  0.00    +0.150 A 
ATOM     18  C   UNL     1      -4.409  -5.624  -3.415  0.00  0.00    +0.084 A 
ATOM     19  C   UNL     1      -3.297  -5.939  -2.667  0.00  0.00    +0.031 A 
ATOM     20 CL   UNL     1      -4.711  -3.976  -3.869  0.00  0.00    -0.080 Cl
BRANCH  17  21
ATOM     21  O   UNL     1      -6.393  -6.309  -4.535  0.00  0.00    -0.419 OA
BRANCH  21  22
ATOM     22  C   UNL     1      -6.239  -6.131  -5.864  0.00  0.00    +0.380 C 
ATOM     23  O   UNL     1      -5.161  -6.345  -6.385  0.00  0.00    -0.241 OA
BRANCH  22  24
ATOM     24  C   UNL     1      -7.369  -5.679  -6.678  0.00  0.00    +0.212 A 
ATOM     25  C   UNL     1      -7.352  -5.465  -8.028  0.00  0.00    +0.056 A 
ATOM     26  C   UNL     1      -8.641  -5.043  -8.386  0.00  0.00    +0.042 A 
ATOM     27  C   UNL     1      -9.380  -5.019  -7.254  0.00  0.00    +0.196 A 
ATOM     28  O   UNL     1      -8.612  -5.407  -6.229  0.00  0.00    -0.456 OA
ENDBRANCH  22  24
ENDBRANCH  21  22
ENDBRANCH  17  21
ENDBRANCH   7  14
BRANCH   1  29
ATOM     29  S   UNL     1       1.415  -1.122  -3.502  0.00  0.00    +0.022 S 
ATOM     30  O   UNL     1       0.762  -1.169  -4.763  0.00  0.00    -0.167 OA
ATOM     31  O   UNL     1       2.810  -0.864  -3.417  0.00  0.00    -0.167 OA
BRANCH  29  33
ATOM     32  C   UNL     1       0.615   1.413  -2.858  0.00  0.00    +0.028 C 
ATOM     33  C   UNL     1       0.509  -0.033  -2.369  0.00  0.00    +0.171 C 
ENDBRANCH  29  33
ENDBRANCH   1  29
TORSDOF 6
