REMARK  Name = ZINC36735540
REMARK  3 active torsions:
REMARK  status: ('A' for Active; 'I' for Inactive)
REMARK    1  A    between atoms: C_7  and  C_11
REMARK    2  A    between atoms: C_24  and  C_26
REMARK    3  A    between atoms: C_26  and  N_27
REMARK                            x       y       z     vdW  Elec       q    Type
REMARK                         _______ _______ _______ _____ _____    ______ ____
ROOT
ATOM      1  C   UNL     1       2.774  -4.044   3.642  0.00  0.00    +0.143 C 
ATOM      2  C   UNL     1       3.313  -2.961   4.600  0.00  0.00    +0.032 C 
ATOM      3  C   UNL     1       4.612  -2.488   3.895  0.00  0.00    +0.021 C 
ATOM      4  C   UNL     1       4.208  -2.583   2.403  0.00  0.00    +0.107 C 
ATOM      5  N   UNL     1       3.358  -3.788   2.317  0.00  0.00    -0.304 N 
ATOM      6  C   UNL     1       3.145  -4.550   1.181  0.00  0.00    +0.134 A 
ATOM      7  C   UNL     1       3.926  -5.712   0.935  0.00  0.00    +0.051 A 
ATOM      8  C   UNL     1       5.007  -6.280   1.757  0.00  0.00    -0.025 A 
ATOM      9  C   UNL     1       5.594  -7.397   1.300  0.00  0.00    -0.004 A 
ATOM     10  S   UNL     1       4.761  -7.766  -0.228  0.00  0.00    -0.073 S 
ATOM     11  C   UNL     1       3.622  -6.409  -0.248  0.00  0.00    +0.114 A 
ATOM     12  N   UNL     1       2.673  -5.997  -1.067  0.00  0.00    -0.223 NA
ATOM     13  C   UNL     1       1.980  -4.910  -0.786  0.00  0.00    +0.146 A 
ATOM     14  N   UNL     1       2.208  -4.210   0.310  0.00  0.00    -0.215 NA
ATOM     15  C   UNL     1       6.686  -7.882   2.216  0.00  0.00    +0.043 C 
ATOM     16  C   UNL     1       7.003  -6.668   3.116  0.00  0.00    +0.010 C 
ATOM     17  C   UNL     1       5.670  -5.896   3.083  0.00  0.00    +0.037 C 
ENDROOT
BRANCH   1  24
ATOM     18  C   UNL     1      -1.508  -6.759   5.843  0.00  0.00    +0.002 C 
ATOM     19  C   UNL     1      -2.115  -5.372   5.654  0.00  0.00    +0.008 C 
ATOM     20  C   UNL     1      -2.145  -5.024   4.163  0.00  0.00    +0.076 C 
ATOM     21  C   UNL     1      -0.841  -4.369   3.784  0.00  0.00    +0.134 A 
ATOM     22  N   UNL     1      -0.680  -3.283   3.083  0.00  0.00    -0.134 NA
ATOM     23  N   UNL     1       0.577  -3.040   2.949  0.00  0.00    -0.132 NA
ATOM     24  C   UNL     1       1.272  -3.959   3.565  0.00  0.00    +0.154 A 
ATOM     25  N   UNL     1       0.390  -4.820   4.120  0.00  0.00    -0.313 N 
ATOM     26  C   UNL     1       0.695  -5.996   4.934  0.00  0.00    +0.125 C 
ATOM     27  C   UNL     1      -0.434  -7.021   4.788  0.00  0.00    +0.022 C 
ENDBRANCH   1  24
BRANCH  13  28
ATOM     28  C   UNL     1       0.901  -4.459  -1.737  0.00  0.00    +0.160 C 
BRANCH  28  29
ATOM     29  N   UNL     1      -0.376  -5.080  -1.358  0.00  0.00    -0.291 NA
ATOM     30  C   UNL     1      -0.332  -6.536  -1.554  0.00  0.00    +0.113 C 
ATOM     31  C   UNL     1      -1.657  -7.148  -1.091  0.00  0.00    +0.175 C 
ATOM     32  O   UNL     1      -2.734  -6.537  -1.808  0.00  0.00    -0.377 OA
ATOM     33  C   UNL     1      -2.807  -5.119  -1.639  0.00  0.00    +0.175 C 
ATOM     34  C   UNL     1      -1.493  -4.487  -2.107  0.00  0.00    +0.113 C 
ENDBRANCH  28  29
ENDBRANCH  13  28
TORSDOF 3
