REMARK  Name = ZINC38650777
REMARK  15 active torsions:
REMARK  status: ('A' for Active; 'I' for Inactive)
REMARK    1  A    between atoms: C_1  and  C_2
REMARK    2  A    between atoms: C_2  and  C_3
REMARK    3  A    between atoms: C_3  and  C_4
REMARK    4  A    between atoms: C_4  and  O_5
REMARK    5  A    between atoms: O_5  and  C_6
REMARK    6  A    between atoms: C_9  and  C_12
REMARK    7  A    between atoms: C_17  and  O_26
REMARK    8  A    between atoms: C_21  and  N_25
REMARK    9  A    between atoms: C_22  and  C_23
REMARK   10  A    between atoms: O_26  and  C_27
REMARK   11  A    between atoms: C_27  and  C_29
REMARK   12  A    between atoms: C_29  and  O_30
REMARK   13  A    between atoms: O_30  and  C_31
REMARK   14  A    between atoms: C_36  and  O_37
REMARK   15  A    between atoms: O_37  and  C_38
REMARK                            x       y       z     vdW  Elec       q    Type
REMARK                         _______ _______ _______ _____ _____    ______ ____
ROOT
ATOM      1  C   UNL     1       1.837  -8.095  -3.170  0.00  0.00    +0.098 C 
ATOM      2  C   UNL     1       3.294  -8.470  -3.208  0.00  0.00    +0.008 A 
ATOM      3  C   UNL     1       4.042  -8.415  -2.045  0.00  0.00    +0.012 A 
ATOM      4  C   UNL     1       5.380  -8.756  -2.061  0.00  0.00    +0.047 A 
ATOM      5  C   UNL     1       5.979  -9.156  -3.247  0.00  0.00    +0.135 A 
ATOM      6  C   UNL     1       5.234  -9.213  -4.413  0.00  0.00    +0.093 A 
ATOM      7  C   UNL     1       3.888  -8.869  -4.395  0.00  0.00    +0.138 A 
ATOM      8  O   UNL     1       3.172  -8.930  -5.545  0.00  0.00    -0.441 OA
ATOM      9  C   UNL     1       1.831  -8.986  -5.497  0.00  0.00    +0.199 C 
ATOM     10  C   UNL     1       1.140  -8.603  -4.401  0.00  0.00    +0.098 C 
ENDROOT
BRANCH   1  14
ATOM     11  C   UNL     1       1.476  -3.840  -2.994  0.00  0.00    +0.121 A 
ATOM     12  C   UNL     1       0.958  -4.624  -1.974  0.00  0.00    +0.046 A 
ATOM     13  C   UNL     1       1.076  -5.999  -2.033  0.00  0.00    +0.008 A 
ATOM     14  C   UNL     1       1.709  -6.594  -3.108  0.00  0.00    -0.034 A 
ATOM     15  C   UNL     1       2.226  -5.815  -4.127  0.00  0.00    +0.008 A 
ATOM     16  C   UNL     1       2.106  -4.440  -4.075  0.00  0.00    +0.046 A 
BRANCH  11  17
ATOM     17  O   UNL     1       1.361  -2.487  -2.939  0.00  0.00    -0.492 OA
BRANCH  17  18
ATOM     18  C   UNL     1       0.700  -1.939  -1.796  0.00  0.00    +0.229 C 
BRANCH  18  19
ATOM     19  C   UNL     1       0.667  -0.413  -1.910  0.00  0.00    +0.041 C 
BRANCH  19  21
ATOM     20  C   UNL     1      -0.073   1.700  -0.800  0.00  0.00    +0.004 C 
ATOM     21  C   UNL     1      -0.040   0.174  -0.687  0.00  0.00    -0.000 C 
ENDBRANCH  19  21
ENDBRANCH  18  19
ENDBRANCH  17  18
ENDBRANCH  11  17
ENDBRANCH   1  14
BRANCH   9  22
ATOM     22  N   UNL     1       1.144  -9.443  -6.593  0.00  0.00    -0.328 N 
ATOM     23  H   UNL     1       1.627  -9.720  -7.388  0.00  0.00    +0.145 HD
ATOM     24  H   UNL     1       0.175  -9.489  -6.574  0.00  0.00    +0.145 HD
ENDBRANCH   9  22
BRANCH  10  25
ATOM     25  C   UNL     1      -0.289  -8.686  -4.414  0.00  0.00    +0.101 C 
ATOM     26  N   UNL     1      -1.423  -8.752  -4.425  0.00  0.00    -0.191 NA
ENDBRANCH  10  25
BRANCH   5  27
ATOM     27  O   UNL     1       7.296  -9.491  -3.264  0.00  0.00    -0.423 OA
BRANCH  27  28
ATOM     28  C   UNL     1       8.147  -8.674  -3.905  0.00  0.00    +0.350 C 
ATOM     29  O   UNL     1       7.753  -7.624  -4.354  0.00  0.00    -0.247 OA
BRANCH  28  30
ATOM     30  C   UNL     1       9.593  -9.066  -4.064  0.00  0.00    +0.349 C 
BRANCH  30  31
ATOM     31  O   UNL     1      10.289  -8.040  -4.775  0.00  0.00    -0.477 OA
BRANCH  31  32
ATOM     32  C   UNL     1      11.615  -8.238  -5.005  0.00  0.00    +0.163 A 
ATOM     33  C   UNL     1      12.231  -9.398  -4.561  0.00  0.00    +0.049 A 
ATOM     34  C   UNL     1      13.578  -9.598  -4.796  0.00  0.00    +0.004 A 
ATOM     35  C   UNL     1      14.314  -8.644  -5.473  0.00  0.00    +0.004 A 
ATOM     36  C   UNL     1      13.706  -7.485  -5.918  0.00  0.00    +0.049 A 
ATOM     37  C   UNL     1      12.355  -7.280  -5.691  0.00  0.00    +0.162 A 
BRANCH  37  38
ATOM     38  O   UNL     1      11.754  -6.144  -6.134  0.00  0.00    -0.491 OA
ATOM     39  C   UNL     1      12.575  -5.205  -6.831  0.00  0.00    +0.277 C 
ENDBRANCH  37  38
ENDBRANCH  31  32
ENDBRANCH  30  31
ENDBRANCH  28  30
ENDBRANCH  27  28
ENDBRANCH   5  27
TORSDOF 13
