REMARK  Name = ZINC01761427
REMARK  9 active torsions:
REMARK  status: ('A' for Active; 'I' for Inactive)
REMARK    1  A    between atoms: C_1  and  C_2
REMARK    2  A    between atoms: C_2  and  C_3
REMARK    3  A    between atoms: C_3  and  C_37
REMARK    4  A    between atoms: N_15  and  C_30
REMARK    5  A    between atoms: C_16  and  S_18
REMARK    6  A    between atoms: S_18  and  C_19
REMARK    7  A    between atoms: C_19  and  C_20
REMARK    8  A    between atoms: N_22  and  C_23
REMARK    9  A    between atoms: C_30  and  C_31
REMARK                            x       y       z     vdW  Elec       q    Type
REMARK                         _______ _______ _______ _____ _____    ______ ____
ROOT
ATOM      1  C   UNL     1       0.678  -0.478   1.074  0.00  0.00    +0.004 C 
ATOM      2  C   UNL     1       0.789  -1.993   0.927  0.00  0.00    +0.047 C 
ATOM      3  C   UNL     1      -0.559  -2.641   1.096  0.00  0.00    -0.037 A 
ATOM      4  C   UNL     1      -0.897  -3.755   0.355  0.00  0.00    +0.004 A 
ATOM      5  C   UNL     1      -2.136  -4.347   0.519  0.00  0.00    +0.000 A 
ATOM      6  C   UNL     1      -3.045  -3.829   1.425  0.00  0.00    +0.001 A 
ATOM      7  C   UNL     1      -2.720  -2.714   2.171  0.00  0.00    +0.010 A 
ATOM      8  C   UNL     1      -1.475  -2.114   2.008  0.00  0.00    +0.004 A 
ATOM      9  C   UNL     1      -1.101  -0.912   2.786  0.00  0.00    +0.083 A 
ATOM     10  C   UNL     1      -0.054  -0.120   2.336  0.00  0.00    +0.049 A 
ATOM     11  C   UNL     1       0.303   1.012   3.079  0.00  0.00    +0.259 A 
ATOM     12  O   UNL     1       1.220   1.732   2.716  0.00  0.00    -0.267 OA
ATOM     13  N   UNL     1      -0.388   1.292   4.205  0.00  0.00    -0.283 N 
ATOM     14  C   UNL     1      -1.412   0.484   4.600  0.00  0.00    +0.173 A 
ATOM     15  N   UNL     1      -1.753  -0.584   3.906  0.00  0.00    -0.223 NA
ATOM     16  C   UNL     1       2.082   0.128   1.117  0.00  0.00    +0.016 C 
ENDROOT
BRANCH   1  18
ATOM     17  C   UNL     1      -0.170   1.613   0.001  0.00  0.00    +0.005 C 
ATOM     18  C   UNL     1      -0.081   0.091  -0.127  0.00  0.00    +0.008 C 
ENDBRANCH   1  18
BRANCH  14  19
ATOM     19  S   UNL     1      -2.300   0.877   6.070  0.00  0.00    -0.078 S 
BRANCH  19  20
ATOM     20  C   UNL     1      -3.541  -0.441   6.198  0.00  0.00    +0.173 C 
BRANCH  20  21
ATOM     21  C   UNL     1      -4.380  -0.222   7.431  0.00  0.00    +0.227 C 
ATOM     22  O   UNL     1      -4.163   0.728   8.152  0.00  0.00    -0.275 OA
ATOM     23  N   UNL     1      -5.372  -1.084   7.731  0.00  0.00    -0.285 N 
ATOM     24  H   UNL     1      -5.498  -1.885   7.199  0.00  0.00    +0.155 HD
BRANCH  23  25
ATOM     25  C   UNL     1      -6.222  -0.823   8.813  0.00  0.00    +0.033 A 
ATOM     26  C   UNL     1      -6.735  -1.872   9.563  0.00  0.00    +0.024 A 
ATOM     27  C   UNL     1      -7.572  -1.612  10.630  0.00  0.00    +0.017 A 
ATOM     28  C   UNL     1      -7.901  -0.306  10.951  0.00  0.00    +0.018 A 
ATOM     29  C   UNL     1      -7.391   0.741  10.205  0.00  0.00    +0.017 A 
ATOM     30  C   UNL     1      -6.549   0.487   9.140  0.00  0.00    +0.024 A 
ATOM     31 BR   UNL     1      -9.048   0.046  12.412  0.00  0.00    -0.050 Br
ENDBRANCH  23  25
ENDBRANCH  20  21
ENDBRANCH  19  20
ENDBRANCH  14  19
BRANCH  13  32
ATOM     32  C   UNL     1      -0.035   2.467   5.005  0.00  0.00    +0.162 C 
BRANCH  32  33
ATOM     33  C   UNL     1      -0.826   3.657   4.525  0.00  0.00    -0.028 A 
ATOM     34  C   UNL     1      -0.318   4.466   3.526  0.00  0.00    +0.005 A 
ATOM     35  C   UNL     1      -1.043   5.558   3.085  0.00  0.00    +0.000 A 
ATOM     36  C   UNL     1      -2.275   5.840   3.644  0.00  0.00    +0.000 A 
ATOM     37  C   UNL     1      -2.783   5.031   4.643  0.00  0.00    +0.000 A 
ATOM     38  C   UNL     1      -2.060   3.937   5.080  0.00  0.00    +0.005 A 
ENDBRANCH  32  33
ENDBRANCH  13  32
TORSDOF 7
