REMARK  Name = ZINC12677819
REMARK  8 active torsions:
REMARK  status: ('A' for Active; 'I' for Inactive)
REMARK    1  A    between atoms: C_1  and  C_2
REMARK    2  A    between atoms: C_2  and  O_3
REMARK    3  A    between atoms: O_3  and  C_4
REMARK    4  A    between atoms: C_7  and  C_10
REMARK    5  A    between atoms: N_15  and  C_16
REMARK    6  A    between atoms: C_16  and  N_17
REMARK    7  A    between atoms: C_20  and  C_24
REMARK    8  A    between atoms: C_20  and  C_30
REMARK                            x       y       z     vdW  Elec       q    Type
REMARK                         _______ _______ _______ _____ _____    ______ ____
ROOT
ATOM      1  N   UNL     1       4.625  -6.725  -2.134  0.00  0.00    -0.210 N 
ATOM      2  C   UNL     1       5.549  -7.542  -2.676  0.00  0.00    +0.257 C 
ATOM      3  O   UNL     1       5.395  -8.692  -3.026  0.00  0.00    -0.272 OA
ATOM      4  C   UNL     1       6.822  -6.722  -2.759  0.00  0.00    +0.164 C 
ATOM      5  N   UNL     1       6.429  -5.416  -2.201  0.00  0.00    -0.278 N 
ATOM      6  C   UNL     1       5.129  -5.514  -1.870  0.00  0.00    +0.311 C 
ATOM      7  O   UNL     1       4.486  -4.606  -1.382  0.00  0.00    -0.252 OA
ATOM      8  H   UNL     1       6.997  -4.637  -2.096  0.00  0.00    +0.152 HD
ENDROOT
BRANCH   4   9
ATOM      9  C   UNL     1       7.911  -7.348  -1.927  0.00  0.00    -0.011 A 
ATOM     10  C   UNL     1       8.615  -6.580  -1.019  0.00  0.00    +0.006 A 
ATOM     11  C   UNL     1       9.614  -7.154  -0.255  0.00  0.00    +0.000 A 
ATOM     12  C   UNL     1       9.909  -8.497  -0.400  0.00  0.00    +0.000 A 
ATOM     13  C   UNL     1       9.204  -9.266  -1.307  0.00  0.00    +0.000 A 
ATOM     14  C   UNL     1       8.202  -8.692  -2.067  0.00  0.00    +0.006 A 
ENDBRANCH   4   9
BRANCH   4  15
ATOM     15  C   UNL     1       7.266  -6.575  -4.192  0.00  0.00    -0.011 A 
ATOM     16  C   UNL     1       7.582  -5.326  -4.692  0.00  0.00    +0.006 A 
ATOM     17  C   UNL     1       7.990  -5.191  -6.006  0.00  0.00    +0.000 A 
ATOM     18  C   UNL     1       8.080  -6.305  -6.820  0.00  0.00    +0.000 A 
ATOM     19  C   UNL     1       7.764  -7.554  -6.319  0.00  0.00    +0.000 A 
ATOM     20  C   UNL     1       7.361  -7.690  -5.003  0.00  0.00    +0.006 A 
ENDBRANCH   4  15
BRANCH   1  21
ATOM     21  C   UNL     1       3.236  -7.113  -1.872  0.00  0.00    +0.205 C 
BRANCH  21  26
ATOM     22  C   UNL     1       0.998  -6.617  -2.675  0.00  0.00    +0.088 C 
ATOM     23  C   UNL     1       0.185  -7.169  -3.872  0.00  0.00    +0.025 C 
ATOM     24  C   UNL     1       1.041  -8.393  -4.294  0.00  0.00    +0.017 C 
ATOM     25  C   UNL     1       2.485  -7.911  -4.039  0.00  0.00    +0.086 C 
ATOM     26  N   UNL     1       2.414  -6.816  -3.052  0.00  0.00    -0.279 NA
BRANCH  22  30
ATOM     27  C   UNL     1       0.180  -2.460  -2.112  0.00  0.00    +0.121 A 
ATOM     28  C   UNL     1      -0.397  -3.402  -1.272  0.00  0.00    +0.046 A 
ATOM     29  C   UNL     1      -0.131  -4.745  -1.456  0.00  0.00    +0.009 A 
ATOM     30  C   UNL     1       0.710  -5.151  -2.476  0.00  0.00    -0.030 A 
ATOM     31  C   UNL     1       1.286  -4.214  -3.314  0.00  0.00    +0.009 A 
ATOM     32  C   UNL     1       1.019  -2.870  -3.138  0.00  0.00    +0.046 A 
BRANCH  27  33
ATOM     33  O   UNL     1      -0.080  -1.138  -1.933  0.00  0.00    -0.492 OA
BRANCH  33  35
ATOM     34  C   UNL     1      -1.125   0.731  -0.812  0.00  0.00    +0.048 C 
ATOM     35  C   UNL     1      -0.953  -0.789  -0.856  0.00  0.00    +0.225 C 
ENDBRANCH  33  35
ENDBRANCH  27  33
ENDBRANCH  22  30
ENDBRANCH  21  26
ENDBRANCH   1  21
TORSDOF 7
