REMARK  Name = ZINC35640833
REMARK  11 active torsions:
REMARK  status: ('A' for Active; 'I' for Inactive)
REMARK    1  A    between atoms: C_1  and  C_2
REMARK    2  A    between atoms: C_2  and  N_3
REMARK    3  A    between atoms: C_4  and  C_26
REMARK    4  A    between atoms: C_5  and  C_21
REMARK    5  A    between atoms: C_6  and  C_11
REMARK    6  A    between atoms: C_16  and  C_17
REMARK    7  A    between atoms: C_21  and  O_23
REMARK    8  A    between atoms: O_23  and  C_24
REMARK    9  A    between atoms: C_24  and  C_25
REMARK   10  A    between atoms: C_26  and  N_27
REMARK   11  A    between atoms: C_31  and  C_34
REMARK                            x       y       z     vdW  Elec       q    Type
REMARK                         _______ _______ _______ _____ _____    ______ ____
ROOT
ATOM      1  N   UNL     1       1.840   0.282   1.032  0.00  0.00    -0.258 N 
ATOM      2  C   UNL     1       3.155   0.099   1.354  0.00  0.00    +0.041 C 
ATOM      3  C   UNL     1       3.513  -0.613   2.444  0.00  0.00    +0.080 C 
ATOM      4  C   UNL     1       2.408  -1.201   3.297  0.00  0.00    +0.144 C 
ATOM      5  N   UNL     1       1.024  -0.946   2.864  0.00  0.00    -0.288 N 
ATOM      6  C   UNL     1       0.824  -0.210   1.753  0.00  0.00    +0.307 C 
ATOM      7  O   UNL     1      -0.315   0.009   1.389  0.00  0.00    -0.252 OA
ATOM      8  H   UNL     1       0.273  -1.296   3.369  0.00  0.00    +0.151 HD
ENDROOT
BRANCH   4   9
ATOM      9  C   UNL     1       2.608  -2.694   3.353  0.00  0.00    -0.011 A 
ATOM     10  C   UNL     1       2.280  -3.477   2.263  0.00  0.00    +0.006 A 
ATOM     11  C   UNL     1       2.463  -4.846   2.314  0.00  0.00    +0.000 A 
ATOM     12  C   UNL     1       2.977  -5.432   3.457  0.00  0.00    +0.001 A 
ATOM     13  C   UNL     1       3.306  -4.649   4.547  0.00  0.00    +0.013 A 
ATOM     14  C   UNL     1       3.126  -3.279   4.494  0.00  0.00    +0.060 A 
BRANCH  14  15
ATOM     15  C   UNL     1       3.490  -2.424   5.680  0.00  0.00    +0.418 C 
ATOM     16  F   UNL     1       4.034  -3.231   6.686  0.00  0.00    -0.166 F 
ATOM     17  F   UNL     1       4.431  -1.464   5.292  0.00  0.00    -0.166 F 
ATOM     18  F   UNL     1       2.344  -1.785   6.164  0.00  0.00    -0.166 F 
ENDBRANCH  14  15
ENDBRANCH   4   9
BRANCH   1  20
ATOM     19  C   UNL     1       1.393   2.542   0.213  0.00  0.00    +0.025 C 
ATOM     20  C   UNL     1       1.524   1.065  -0.164  0.00  0.00    +0.111 C 
ENDBRANCH   1  20
BRANCH   3  21
ATOM     21  C   UNL     1       4.875  -0.804   2.778  0.00  0.00    +0.339 C 
ATOM     22  O   UNL     1       5.398  -1.889   2.602  0.00  0.00    -0.245 OA
BRANCH  21  23
ATOM     23  O   UNL     1       5.593   0.216   3.291  0.00  0.00    -0.462 OA
BRANCH  23  24
ATOM     24  C   UNL     1       6.986  -0.017   3.511  0.00  0.00    +0.229 C 
ATOM     25  C   UNL     1       7.606   1.206   4.190  0.00  0.00    +0.048 C 
ENDBRANCH  23  24
ENDBRANCH  21  23
ENDBRANCH   3  21
BRANCH   2  26
ATOM     26  C   UNL     1       4.223   0.701   0.478  0.00  0.00    +0.136 C 
BRANCH  26  27
ATOM     27  N   UNL     1       4.120   0.140  -0.876  0.00  0.00    -0.300 NA
ATOM     28  C   UNL     1       4.441  -1.294  -0.878  0.00  0.00    +0.066 C 
ATOM     29  C   UNL     1       4.264  -1.851  -2.292  0.00  0.00    -0.067 C 
ATOM     30  N   UNL     1       5.150  -1.132  -3.216  0.00  0.00    +0.382 N 
ATOM     31  C   UNL     1       4.801   0.295  -3.222  0.00  0.00    -0.061 C 
ATOM     32  C   UNL     1       4.983   0.870  -1.816  0.00  0.00    +0.069 C 
ATOM     33  C   UNL     1       5.714   1.039  -4.199  0.00  0.00    -0.012 C 
ATOM     34  H   UNL     1       6.108  -1.243  -2.918  0.00  0.00    -0.085 HD
ATOM     35  H   UNL     1       5.043  -1.508  -4.146  0.00  0.00    -0.085 HD
ENDBRANCH  26  27
ENDBRANCH   2  26
TORSDOF 8
