REMARK  Name = ZINC03495571
REMARK  5 active torsions:
REMARK  status: ('A' for Active; 'I' for Inactive)
REMARK    1  A    between atoms: C_12  and  S_13
REMARK    2  A    between atoms: S_13  and  C_14
REMARK    3  A    between atoms: C_14  and  C_15
REMARK    4  A    between atoms: N_17  and  C_18
REMARK    5  A    between atoms: C_19  and  C_23
REMARK                            x       y       z     vdW  Elec       q    Type
REMARK                         _______ _______ _______ _____ _____    ______ ____
ROOT
ATOM      1  S   UNL     1       1.270  -5.320  -0.041  0.00  0.00    -0.076 S 
ENDROOT
BRANCH   1  13
ATOM      2  C   UNL     1      -1.843  -8.815  -0.030  0.00  0.00    +0.002 A 
ATOM      3  C   UNL     1      -1.810 -10.200  -0.038  0.00  0.00    +0.001 A 
ATOM      4  C   UNL     1      -0.586 -10.845  -0.054  0.00  0.00    +0.017 A 
ATOM      5  C   UNL     1       0.572 -10.103  -0.061  0.00  0.00    +0.040 A 
ATOM      6  C   UNL     1       0.571  -8.704  -0.053  0.00  0.00    +0.065 A 
ATOM      7  C   UNL     1      -0.684  -8.075  -0.037  0.00  0.00    +0.027 A 
ATOM      8  N   UNL     1       1.823  -8.070  -0.062  0.00  0.00    -0.264 N 
ATOM      9  C   UNL     1       2.944  -8.858  -0.077  0.00  0.00    +0.202 A 
ATOM     10  S   UNL     1       2.300 -10.514  -0.081  0.00  0.00    -0.048 S 
ATOM     11  N   UNL     1       4.009  -8.113  -0.084  0.00  0.00    -0.121 NA
ATOM     12  N   UNL     1       3.589  -6.776  -0.077  0.00  0.00    -0.121 NA
ATOM     13  C   UNL     1       2.282  -6.762  -0.059  0.00  0.00    +0.197 A 
ENDBRANCH   1  13
BRANCH   1  14
ATOM     14  C   UNL     1       2.459  -3.950  -0.044  0.00  0.00    +0.173 C 
BRANCH  14  15
ATOM     15  C   UNL     1       1.715  -2.639  -0.029  0.00  0.00    +0.228 C 
ATOM     16  O   UNL     1       0.503  -2.630  -0.018  0.00  0.00    -0.275 OA
ATOM     17  N   UNL     1       2.398  -1.477  -0.029  0.00  0.00    -0.278 N 
ATOM     18  H   UNL     1       3.498  -1.485  -0.040  0.00  0.00    +0.155 HD
BRANCH  17  19
ATOM     19  C   UNL     1       1.713  -0.270  -0.016  0.00  0.00    +0.089 A 
ATOM     20  C   UNL     1       2.234   1.018  -0.014  0.00  0.00    +0.080 A 
ATOM     21  C   UNL     1       1.284   2.103   0.001  0.00  0.00    +0.028 A 
ATOM     22  C   UNL     1      -0.022   1.777   0.012  0.00  0.00    +0.048 A 
ATOM     23  S   UNL     1       0.002  -0.004   0.002  0.00  0.00    -0.081 S 
BRANCH  20  24
ATOM     24  C   UNL     1       3.646   1.256  -0.026  0.00  0.00    +0.102 C 
ATOM     25  N   UNL     1       4.766   1.446  -0.036  0.00  0.00    -0.191 NA
ENDBRANCH  20  24
ENDBRANCH  17  19
ENDBRANCH  14  15
ENDBRANCH   1  14
TORSDOF 5
