REMARK  Name = ZINC13155015
REMARK  10 active torsions:
REMARK  status: ('A' for Active; 'I' for Inactive)
REMARK    1  A    between atoms: C_1  and  O_2
REMARK    2  A    between atoms: O_2  and  C_3
REMARK    3  A    between atoms: C_5  and  C_13
REMARK    4  A    between atoms: C_6  and  O_11
REMARK    5  A    between atoms: C_8  and  O_9
REMARK    6  A    between atoms: O_9  and  C_10
REMARK    7  A    between atoms: O_11  and  C_12
REMARK    8  A    between atoms: N_14  and  C_15
REMARK    9  A    between atoms: C_15  and  C_16
REMARK   10  A    between atoms: C_16  and  C_21
REMARK                            x       y       z     vdW  Elec       q    Type
REMARK                         _______ _______ _______ _____ _____    ______ ____
ROOT
ATOM      1  C   UNL     1       2.568   0.741  -4.071  0.00  0.00    +0.090 C 
ATOM      2  N   UNL     1       3.114  -0.015  -4.971  0.00  0.00    -0.389 N 
ATOM      3  H   UNL     1       3.106  -0.979  -4.864  0.00  0.00    +0.159 HD
ENDROOT
BRANCH   1   6
ATOM      4  C   UNL     1       1.050   0.407  -0.656  0.00  0.00    +0.162 A 
ATOM      5  C   UNL     1       1.550   0.969  -1.813  0.00  0.00    +0.062 A 
ATOM      6  C   UNL     1       2.035   0.147  -2.835  0.00  0.00    +0.036 A 
ATOM      7  C   UNL     1       2.012  -1.247  -2.677  0.00  0.00    +0.132 A 
ATOM      8  C   UNL     1       1.509  -1.800  -1.512  0.00  0.00    +0.095 A 
ATOM      9  C   UNL     1       1.035  -0.979  -0.501  0.00  0.00    +0.165 A 
BRANCH   4  11
ATOM     10  C   UNL     1       0.624   2.617   0.114  0.00  0.00    +0.277 C 
ATOM     11  O   UNL     1       0.578   1.206   0.339  0.00  0.00    -0.491 OA
ENDBRANCH   4  11
BRANCH   9  12
ATOM     12  O   UNL     1       0.547  -1.527   0.643  0.00  0.00    -0.491 OA
ATOM     13  C   UNL     1       0.560  -2.953   0.736  0.00  0.00    +0.277 C 
ENDBRANCH   9  12
BRANCH   7  14
ATOM     14  O   UNL     1       2.482  -2.051  -3.665  0.00  0.00    -0.494 OA
ATOM     15  C   UNL     1       2.427  -3.461  -3.435  0.00  0.00    +0.277 C 
ENDBRANCH   7  14
ENDBRANCH   1   6
BRANCH   2  16
ATOM     16  C   UNL     1       3.742   0.586  -6.150  0.00  0.00    +0.123 C 
BRANCH  16  17
ATOM     17  C   UNL     1       5.239   0.272  -6.146  0.00  0.00    +0.013 C 
ATOM     18  C   UNL     1       5.879   0.770  -4.838  0.00  0.00    +0.013 C 
ATOM     19  C   UNL     1       6.947   1.809  -5.238  0.00  0.00    +0.001 C 
ATOM     20  C   UNL     1       6.485   2.313  -6.628  0.00  0.00    +0.001 C 
ATOM     21  C   UNL     1       5.941   1.025  -7.295  0.00  0.00    +0.013 C 
BRANCH  17  22
ATOM     22  C   UNL     1       5.455  -1.212  -6.294  0.00  0.00    -0.040 A 
ATOM     23  C   UNL     1       4.380  -2.046  -6.539  0.00  0.00    +0.004 A 
ATOM     24  C   UNL     1       4.578  -3.407  -6.675  0.00  0.00    +0.000 A 
ATOM     25  C   UNL     1       5.851  -3.935  -6.567  0.00  0.00    +0.000 A 
ATOM     26  C   UNL     1       6.926  -3.101  -6.324  0.00  0.00    +0.000 A 
ATOM     27  C   UNL     1       6.729  -1.740  -6.191  0.00  0.00    +0.004 A 
ENDBRANCH  17  22
ENDBRANCH  16  17
ENDBRANCH   2  16
TORSDOF 7
