REMARK  Name = ZINC15947059
REMARK  6 active torsions:
REMARK  status: ('A' for Active; 'I' for Inactive)
REMARK    1  A    between atoms: C_1  and  C_2
REMARK    2  A    between atoms: C_2  and  C_3
REMARK    3  A    between atoms: C_2  and  N_4
REMARK    4  A    between atoms: C_12  and  O_29
REMARK    5  A    between atoms: C_14  and  C_17
REMARK    6  A    between atoms: C_20  and  C_22
REMARK                            x       y       z     vdW  Elec       q    Type
REMARK                         _______ _______ _______ _____ _____    ______ ____
ROOT
ATOM      1  N   UNL     1       0.637  -0.213  -1.306  0.00  0.00    +0.384 N 
ATOM      2  C   UNL     1       0.579  -1.639  -1.655  0.00  0.00    -0.073 C 
ATOM      3  C   UNL     1       0.945  -1.837  -3.130  0.00  0.00    +0.018 C 
ATOM      4  C   UNL     1       2.272  -1.135  -3.382  0.00  0.00    -0.027 A 
ATOM      5  C   UNL     1       2.728  -0.212  -2.500  0.00  0.00    -0.021 A 
ATOM      6  S   UNL     1       4.271   0.332  -3.176  0.00  0.00    -0.080 S 
ATOM      7  C   UNL     1       4.313  -0.600  -4.548  0.00  0.00    +0.080 A 
ATOM      8  C   UNL     1       3.139  -1.363  -4.520  0.00  0.00    +0.067 A 
ATOM      9  C   UNL     1       2.915  -2.316  -5.638  0.00  0.00    +0.220 C 
ATOM     10  N   UNL     1       3.681  -2.208  -6.689  0.00  0.00    -0.220 NA
ATOM     11  C   UNL     1       4.697  -1.178  -6.869  0.00  0.00    +0.260 C 
ATOM     12  N   UNL     1       5.223  -0.702  -5.576  0.00  0.00    -0.311 N 
ATOM     13  C   UNL     1       2.044   0.224  -1.244  0.00  0.00    -0.035 C 
ATOM     14  H   UNL     1       6.158  -0.474  -5.456  0.00  0.00    +0.149 HD
ATOM     15  H   UNL     1       0.149   0.324  -2.006  0.00  0.00    -0.081 HD
ENDROOT
BRANCH  11  16
ATOM     16  C   UNL     1       4.093  -0.014  -7.611  0.00  0.00    +0.148 A 
ATOM     17  C   UNL     1       3.090  -0.090  -8.507  0.00  0.00    +0.049 A 
ATOM     18  C   UNL     1       2.837   1.222  -8.956  0.00  0.00    +0.050 A 
ATOM     19  C   UNL     1       3.709   2.034  -8.301  0.00  0.00    +0.135 A 
ATOM     20  O   UNL     1       4.461   1.271  -7.484  0.00  0.00    -0.456 OA
BRANCH  19  21
ATOM     21  C   UNL     1       3.811   3.501  -8.454  0.00  0.00    +0.018 A 
ATOM     22  C   UNL     1       2.959   4.174  -9.332  0.00  0.00    +0.011 A 
ATOM     23  C   UNL     1       3.058   5.543  -9.470  0.00  0.00    +0.002 A 
ATOM     24  C   UNL     1       4.000   6.249  -8.743  0.00  0.00    +0.015 A 
ATOM     25  C   UNL     1       4.848   5.588  -7.871  0.00  0.00    +0.019 A 
ATOM     26  C   UNL     1       4.754   4.219  -7.718  0.00  0.00    +0.026 A 
ATOM     27 BR   UNL     1       6.130   6.562  -6.881  0.00  0.00    -0.050 Br
ENDBRANCH  19  21
ENDBRANCH  11  16
BRANCH   1  29
ATOM     28  C   UNL     1       0.150   1.462   0.412  0.00  0.00    -0.014 C 
ATOM     29  C   UNL     1       0.002  -0.004   0.002  0.00  0.00    -0.074 C 
ATOM     30  C   UNL     1      -1.483  -0.360  -0.089  0.00  0.00    -0.014 C 
ENDBRANCH   1  29
BRANCH   9  31
ATOM     31  O   UNL     1       1.951  -3.262  -5.569  0.00  0.00    -0.492 OA
ATOM     32  H   UNL     1       1.896  -3.826  -6.353  0.00  0.00    +0.294 HD
ENDBRANCH   9  31
TORSDOF 4
