REMARK  Name = ZINC24965982
REMARK  6 active torsions:
REMARK  status: ('A' for Active; 'I' for Inactive)
REMARK    1  A    between atoms: C_1  and  C_2
REMARK    2  A    between atoms: C_2  and  C_3
REMARK    3  A    between atoms: C_3  and  N_4
REMARK    4  A    between atoms: C_14  and  C_16
REMARK    5  A    between atoms: C_16  and  C_17
REMARK    6  A    between atoms: C_26  and  O_29
REMARK                            x       y       z     vdW  Elec       q    Type
REMARK                         _______ _______ _______ _____ _____    ______ ____
ROOT
ATOM      1  N   UNL     1      -2.250   4.077   0.044  0.00  0.00    -0.312 N 
ATOM      2  C   UNL     1      -1.239   3.131   0.030  0.00  0.00    +0.070 A 
ATOM      3  C   UNL     1      -1.219   1.744   0.017  0.00  0.00    +0.028 A 
ATOM      4  C   UNL     1      -0.013   1.076   0.008  0.00  0.00    +0.002 A 
ATOM      5  C   UNL     1       1.182   1.781   0.000  0.00  0.00    +0.002 A 
ATOM      6  C   UNL     1       1.181   3.158   0.007  0.00  0.00    +0.030 A 
ATOM      7  C   UNL     1      -0.033   3.850   0.022  0.00  0.00    +0.091 A 
ATOM      8  N   UNL     1      -0.354   5.170   0.031  0.00  0.00    -0.214 NA
ATOM      9  C   UNL     1      -1.656   5.305   0.044  0.00  0.00    +0.203 A 
ATOM     10  N   UNL     1      -2.330   6.515   0.055  0.00  0.00    -0.256 N 
ATOM     11  C   UNL     1      -1.638   7.672   0.054  0.00  0.00    +0.220 C 
ATOM     12  O   UNL     1      -0.426   7.653   0.043  0.00  0.00    -0.275 OA
ATOM     13  H   UNL     1      -3.429   6.532   0.066  0.00  0.00    +0.158 HD
ENDROOT
BRANCH   1  14
ATOM     14  C   UNL     1      -3.691   3.808   0.057  0.00  0.00    +0.125 C 
BRANCH  14  16
ATOM     15  C   UNL     1      -5.710   3.441  -1.368  0.00  0.00    +0.005 C 
ATOM     16  C   UNL     1      -4.206   3.721  -1.381  0.00  0.00    +0.018 C 
ENDBRANCH  14  16
ENDBRANCH   1  14
BRANCH  11  17
ATOM     17  C   UNL     1      -2.372   8.988   0.066  0.00  0.00    +0.103 C 
BRANCH  17  18
ATOM     18  C   UNL     1      -1.360  10.136   0.062  0.00  0.00    -0.018 C 
ATOM     19  C   UNL     1      -0.470  10.036   1.303  0.00  0.00    +0.011 C 
ATOM     20  C   UNL     1       0.542  11.184   1.298  0.00  0.00    -0.007 C 
ATOM     21  C   UNL     1       1.409  11.095   0.041  0.00  0.00    +0.007 C 
ATOM     22  C   UNL     1       0.519  11.194  -1.200  0.00  0.00    -0.007 C 
ATOM     23  C   UNL     1      -0.493  10.047  -1.196  0.00  0.00    +0.011 C 
ATOM     24  C   UNL     1      -0.226  12.531  -1.187  0.00  0.00    +0.038 C 
ATOM     25  C   UNL     1      -1.093  12.620   0.070  0.00  0.00    +0.067 C 
ATOM     26  C   UNL     1      -0.203  12.520   1.311  0.00  0.00    +0.038 C 
ATOM     27  C   UNL     1      -2.104  11.472   0.075  0.00  0.00    +0.042 C 
BRANCH  25  28
ATOM     28  O   UNL     1      -1.788  13.868   0.082  0.00  0.00    -0.389 OA
ATOM     29  H   UNL     1      -2.464  14.113   0.914  0.00  0.00    +0.210 HD
ENDBRANCH  25  28
ENDBRANCH  17  18
ENDBRANCH  11  17
TORSDOF 5
