REMARK  Name = ZINC14545097
REMARK  5 active torsions:
REMARK  status: ('A' for Active; 'I' for Inactive)
REMARK    1  A    between atoms: C_7  and  C_11
REMARK    2  A    between atoms: C_22  and  S_27
REMARK    3  A    between atoms: S_27  and  N_30
REMARK    4  A    between atoms: N_30  and  C_31
REMARK    5  A    between atoms: C_31  and  C_32
REMARK                            x       y       z     vdW  Elec       q    Type
REMARK                         _______ _______ _______ _____ _____    ______ ____
ROOT
ATOM      1  C   UNL     1      -0.668   1.625   1.267  0.00  0.00    +0.107 C 
ATOM      2  C   UNL     1      -0.013   1.086   0.008  0.00  0.00    +0.029 C 
ATOM      3  C   UNL     1      -0.476   1.651  -1.341  0.00  0.00    +0.033 C 
ATOM      4  C   UNL     1       0.787   1.498  -2.190  0.00  0.00    -0.030 C 
ATOM      5  C   UNL     1       1.861   1.501  -1.410  0.00  0.00    -0.023 C 
ATOM      6  C   UNL     1       1.425   1.687  -0.003  0.00  0.00    +0.049 C 
ATOM      7  C   UNL     1       2.170   1.104   1.133  0.00  0.00    -0.018 A 
ATOM      8  C   UNL     1       3.517   0.821   1.067  0.00  0.00    +0.034 A 
ATOM      9  C   UNL     1       4.173   0.289   2.162  0.00  0.00    +0.106 A 
ATOM     10  C   UNL     1       3.477   0.040   3.331  0.00  0.00    +0.030 A 
ATOM     11  C   UNL     1       2.127   0.315   3.405  0.00  0.00    +0.025 A 
ATOM     12  C   UNL     1       1.456   0.842   2.308  0.00  0.00    +0.031 A 
ATOM     13  N   UNL     1       0.079   1.077   2.395  0.00  0.00    -0.336 N 
ATOM     14  H   UNL     1      -0.389   0.864   3.217  0.00  0.00    +0.147 HD
ENDROOT
BRANCH   1  21
ATOM     15  C   UNL     1      -4.586   3.188  -0.777  0.00  0.00    +0.001 A 
ATOM     16  C   UNL     1      -5.712   2.461  -0.414  0.00  0.00    +0.002 A 
ATOM     17  C   UNL     1      -5.613   1.402   0.461  0.00  0.00    +0.026 A 
ATOM     18  C   UNL     1      -4.373   1.055   0.988  0.00  0.00    +0.047 A 
ATOM     19  C   UNL     1      -3.236   1.798   0.623  0.00  0.00    +0.005 A 
ATOM     20  C   UNL     1      -3.359   2.864  -0.271  0.00  0.00    +0.010 A 
ATOM     21  C   UNL     1      -2.109   1.189   1.332  0.00  0.00    -0.002 A 
ATOM     22  C   UNL     1      -2.604   0.172   2.055  0.00  0.00    +0.089 A 
ATOM     23  N   UNL     1      -3.955   0.076   1.862  0.00  0.00    -0.360 N 
ATOM     24  H   UNL     1      -4.532  -0.582   2.279  0.00  0.00    +0.165 HD
ENDBRANCH   1  21
BRANCH   9  25
ATOM     25  S   UNL     1       5.895  -0.072   2.068  0.00  0.00    +0.058 S 
ATOM     26  O   UNL     1       6.155  -1.069   3.047  0.00  0.00    -0.153 OA
ATOM     27  O   UNL     1       6.197  -0.258   0.692  0.00  0.00    -0.153 OA
BRANCH  25  28
ATOM     28  N   UNL     1       6.708   1.288   2.551  0.00  0.00    -0.187 NA
ATOM     29  H   UNL     1       7.268   1.768   1.921  0.00  0.00    +0.148 HD
BRANCH  28  30
ATOM     30  C   UNL     1       6.580   1.766   3.930  0.00  0.00    +0.137 C 
BRANCH  30  31
ATOM     31  C   UNL     1       7.687   2.781   4.222  0.00  0.00    +0.134 C 
ATOM     32  C   UNL     1       7.632   3.204   5.706  0.00  0.00    +0.035 C 
ATOM     33  C   UNL     1       7.945   4.723   5.628  0.00  0.00    +0.031 C 
ATOM     34  C   UNL     1       7.272   5.093   4.282  0.00  0.00    +0.160 C 
ATOM     35  O   UNL     1       7.490   3.957   3.429  0.00  0.00    -0.375 OA
ENDBRANCH  30  31
ENDBRANCH  28  30
ENDBRANCH  25  28
ENDBRANCH   9  25
TORSDOF 5
