REMARK  Name = ZINC33888884
REMARK  5 active torsions:
REMARK  status: ('A' for Active; 'I' for Inactive)
REMARK    1  A    between atoms: C_1  and  N_2
REMARK    2  A    between atoms: N_2  and  C_3
REMARK    3  A    between atoms: N_2  and  C_4
REMARK    4  A    between atoms: C_7  and  C_11
REMARK    5  A    between atoms: C_23  and  C_24
REMARK                            x       y       z     vdW  Elec       q    Type
REMARK                         _______ _______ _______ _____ _____    ______ ____
ROOT
ATOM      1  C   UNL     1       0.003  -2.770  -4.886  0.00  0.00    +0.025 C 
ATOM      2  C   UNL     1      -1.187  -3.213  -5.422  0.00  0.00    +0.085 A 
ATOM      3  C   UNL     1      -1.229  -4.057  -6.650  0.00  0.00    +0.160 A 
ATOM      4  N   UNL     1      -0.308  -4.932  -6.952  0.00  0.00    -0.281 NA
ATOM      5  N   UNL     1      -2.364  -3.818  -7.452  0.00  0.00    -0.212 N 
ATOM      6  C   UNL     1      -3.487  -3.303  -6.833  0.00  0.00    +0.199 A 
ATOM      7  N   UNL     1      -3.590  -2.886  -5.601  0.00  0.00    -0.182 NA
ATOM      8  C   UNL     1      -2.494  -2.881  -4.806  0.00  0.00    +0.283 A 
ATOM      9  O   UNL     1      -2.578  -2.608  -3.621  0.00  0.00    -0.265 OA
ATOM     10  S   UNL     1      -4.710  -3.347  -8.116  0.00  0.00    -0.031 S 
ATOM     11  C   UNL     1      -3.661  -3.927  -9.441  0.00  0.00    +0.101 A 
ATOM     12  N   UNL     1      -2.446  -4.066  -8.807  0.00  0.00    -0.283 N 
ATOM     13  C   UNL     1      -3.981  -4.171 -10.745  0.00  0.00    +0.102 C 
ATOM     14  H   UNL     1      -0.385  -5.457  -7.765  0.00  0.00    +0.188 HD
ATOM     15  H   UNL     1      -1.658  -4.334  -9.306  0.00  0.00    +0.188 HD
ENDROOT
BRANCH  13  16
ATOM     16  C   UNL     1      -2.997  -4.629 -11.635  0.00  0.00    +0.242 C 
ATOM     17  O   UNL     1      -1.881  -4.900 -11.224  0.00  0.00    -0.271 OA
ATOM     18  N   UNL     1      -3.285  -4.770 -12.944  0.00  0.00    -0.294 N 
ATOM     19  C   UNL     1      -2.243  -5.144 -13.913  0.00  0.00    +0.136 C 
ATOM     20  C   UNL     1      -2.758  -6.325 -14.745  0.00  0.00    +0.179 C 
ATOM     21  O   UNL     1      -4.040  -5.997 -15.286  0.00  0.00    -0.377 OA
ATOM     22  C   UNL     1      -5.049  -5.765 -14.300  0.00  0.00    +0.179 C 
ATOM     23  C   UNL     1      -4.653  -4.561 -13.445  0.00  0.00    +0.136 C 
ENDBRANCH  13  16
BRANCH   1  27
ATOM     24  C   UNL     1      -0.021   0.042  -1.729  0.00  0.00    +0.043 A 
ATOM     25  C   UNL     1      -0.897   0.195  -2.802  0.00  0.00    +0.025 A 
ATOM     26  C   UNL     1      -0.893  -0.711  -3.824  0.00  0.00    +0.010 A 
ATOM     27  C   UNL     1      -0.005  -1.796  -3.793  0.00  0.00    -0.023 A 
ATOM     28  C   UNL     1       0.875  -1.946  -2.711  0.00  0.00    +0.025 A 
ATOM     29  C   UNL     1       0.867  -1.032  -1.696  0.00  0.00    +0.039 A 
ATOM     30 BR   UNL     1       2.058  -1.227  -0.240  0.00  0.00    -0.048 Br
BRANCH  24  32
ATOM     31  C   UNL     1      -0.898   0.758   0.469  0.00  0.00    +0.129 C 
ATOM     32  N   UNL     1      -0.029   0.967  -0.692  0.00  0.00    -0.335 N 
ATOM     33  C   UNL     1       0.831   2.151  -0.759  0.00  0.00    +0.129 C 
ENDBRANCH  24  32
ENDBRANCH   1  27
TORSDOF 3
