REMARK  Name = ZINC12800069
REMARK  11 active torsions:
REMARK  status: ('A' for Active; 'I' for Inactive)
REMARK    1  A    between atoms: C_1  and  C_2
REMARK    2  A    between atoms: C_5  and  C_31
REMARK    3  A    between atoms: C_6  and  O_8
REMARK    4  A    between atoms: O_8  and  C_9
REMARK    5  A    between atoms: C_9  and  C_10
REMARK    6  A    between atoms: N_12  and  C_13
REMARK    7  A    between atoms: N_12  and  C_14
REMARK    8  A    between atoms: C_14  and  C_15
REMARK    9  A    between atoms: C_28  and  C_30
REMARK   10  A    between atoms: C_31  and  C_32
REMARK   11  A    between atoms: C_31  and  C_33
REMARK                            x       y       z     vdW  Elec       q    Type
REMARK                         _______ _______ _______ _____ _____    ______ ____
ROOT
ATOM      1  C   UNL     1       0.382   3.528  -2.281  0.00  0.00    +0.203 C 
ENDROOT
BRANCH   1   2
ATOM      2  C   UNL     1       0.805   4.215  -1.008  0.00  0.00    +0.237 C 
ATOM      3  O   UNL     1       0.810   5.427  -0.946  0.00  0.00    -0.274 OA
ATOM      4  N   UNL     1       1.177   3.484   0.061  0.00  0.00    -0.265 N 
ATOM      5  C   UNL     1       1.175   2.084   0.002  0.00  0.00    +0.058 A 
ATOM      6  C   UNL     1      -0.017   1.379   0.010  0.00  0.00    +0.025 A 
ATOM      7  C   UNL     1       0.002  -0.004   0.002  0.00  0.00    +0.002 A 
ATOM      8  C   UNL     1       1.206  -0.685  -0.015  0.00  0.00    +0.002 A 
ATOM      9  C   UNL     1       2.400   0.012  -0.036  0.00  0.00    +0.025 A 
ATOM     10  C   UNL     1       2.390   1.397  -0.034  0.00  0.00    +0.055 A 
ATOM     11  N   UNL     1       3.585   2.124  -0.086  0.00  0.00    -0.284 N 
ATOM     12  C   UNL     1       3.808   3.138   0.779  0.00  0.00    +0.219 C 
ATOM     13  O   UNL     1       4.808   3.814   0.669  0.00  0.00    -0.275 OA
ATOM     14  C   UNL     1       2.821   3.433   1.877  0.00  0.00    +0.118 C 
ATOM     15  C   UNL     1       1.591   4.138   1.304  0.00  0.00    +0.087 C 
ATOM     16  C   UNL     1       0.447   4.069   2.317  0.00  0.00    +0.029 C 
ATOM     17  H   UNL     1       4.257   1.899  -0.747  0.00  0.00    +0.155 HD
ENDBRANCH   1   2
BRANCH   1  20
ATOM     18  C   UNL     1       0.970   5.013  -4.122  0.00  0.00    +0.253 C 
ATOM     19  O   UNL     1       2.111   4.609  -4.044  0.00  0.00    -0.272 OA
ATOM     20  N   UNL     1       0.028   4.535  -3.285  0.00  0.00    -0.293 N 
ATOM     21  C   UNL     1      -1.350   5.022  -3.379  0.00  0.00    +0.132 C 
BRANCH  18  22
ATOM     22  C   UNL     1       0.606   6.048  -5.154  0.00  0.00    +0.324 C 
BRANCH  22  23
ATOM     23  O   UNL     1       1.767   6.392  -5.914  0.00  0.00    -0.482 OA
BRANCH  23  29
ATOM     24  C   UNL     1      -1.145   9.449  -8.363  0.00  0.00    +0.044 C 
ATOM     25  C   UNL     1       0.207   8.831  -8.117  0.00  0.00    -0.047 A 
ATOM     26  C   UNL     1       1.290   9.209  -8.890  0.00  0.00    +0.004 A 
ATOM     27  C   UNL     1       2.532   8.645  -8.666  0.00  0.00    +0.008 A 
ATOM     28  C   UNL     1       2.695   7.702  -7.670  0.00  0.00    -0.003 A 
ATOM     29  C   UNL     1       1.610   7.320  -6.894  0.00  0.00    +0.125 A 
ATOM     30  C   UNL     1       0.363   7.884  -7.124  0.00  0.00    +0.049 A 
BRANCH  28  31
ATOM     31  C   UNL     1       4.049   7.087  -7.427  0.00  0.00    +0.016 C 
ATOM     32  C   UNL     1       4.518   6.370  -8.695  0.00  0.00    +0.012 C 
ATOM     33  C   UNL     1       5.049   8.185  -7.061  0.00  0.00    +0.012 C 
ENDBRANCH  28  31
ENDBRANCH  23  29
ENDBRANCH  22  23
ENDBRANCH  18  22
ENDBRANCH   1  20
TORSDOF 6
