REMARK  Name = ZINC64643871
REMARK  7 active torsions:
REMARK  status: ('A' for Active; 'I' for Inactive)
REMARK    1  A    between atoms: C_3  and  C_6
REMARK    2  A    between atoms: C_6  and  N_7
REMARK    3  A    between atoms: C_11  and  C_13
REMARK    4  A    between atoms: C_13  and  N_14
REMARK    5  A    between atoms: N_17  and  C_18
REMARK    6  A    between atoms: C_18  and  C_19
REMARK    7  A    between atoms: C_19  and  N_20
REMARK                            x       y       z     vdW  Elec       q    Type
REMARK                         _______ _______ _______ _____ _____    ______ ____
ROOT
ATOM      1  N   UNL     1       7.826   3.822   4.141  0.00  0.00    -0.299 N 
ATOM      2  C   UNL     1       9.024   4.393   4.375  0.00  0.00    +0.300 C 
ATOM      3  O   UNL     1       9.776   4.629   3.449  0.00  0.00    -0.253 OA
ATOM      4  N   UNL     1       9.389   4.702   5.635  0.00  0.00    -0.298 N 
ATOM      5  H   UNL     1       7.226   3.633   4.880  0.00  0.00    +0.150 HD
ATOM      6  H   UNL     1       8.790   4.513   6.374  0.00  0.00    +0.150 HD
ENDROOT
BRANCH   1   7
ATOM      7  C   UNL     1       7.429   3.486   2.772  0.00  0.00    +0.107 C 
BRANCH   7  12
ATOM      8  N   UNL     1       4.235   2.004   1.357  0.00  0.00    +0.383 N 
ATOM      9  C   UNL     1       4.291   0.689   2.007  0.00  0.00    -0.078 C 
ATOM     10  C   UNL     1       4.707   0.857   3.470  0.00  0.00    -0.018 C 
ATOM     11  C   UNL     1       6.087   1.518   3.531  0.00  0.00    +0.001 C 
ATOM     12  C   UNL     1       6.036   2.854   2.785  0.00  0.00    -0.011 C 
ATOM     13  C   UNL     1       5.571   2.612   1.347  0.00  0.00    -0.073 C 
ATOM     14  H   UNL     1       3.599   2.601   1.864  0.00  0.00    -0.081 HD
BRANCH   8  15
ATOM     15  C   UNL     1       3.761   1.845  -0.024  0.00  0.00    -0.036 C 
BRANCH  15  18
ATOM     16  C   UNL     1      -0.016   1.351   0.009  0.00  0.00    +0.008 A 
ATOM     17  C   UNL     1       1.183   2.038   0.002  0.00  0.00    +0.009 A 
ATOM     18  C   UNL     1       2.343   1.336  -0.013  0.00  0.00    -0.027 A 
ATOM     19  S   UNL     1       1.754  -0.349  -0.017  0.00  0.00    -0.103 S 
ATOM     20  C   UNL     1       0.002  -0.004   0.002  0.00  0.00    +0.045 A 
ENDBRANCH  15  18
ENDBRANCH   8  15
ENDBRANCH   7  12
ENDBRANCH   1   7
BRANCH   4  21
ATOM     21  C   UNL     1      10.692   5.322   5.889  0.00  0.00    +0.124 C 
BRANCH  21  22
ATOM     22  C   UNL     1      10.856   5.568   7.390  0.00  0.00    +0.123 C 
BRANCH  22  23
ATOM     23  N   UNL     1      12.159   6.188   7.644  0.00  0.00    -0.312 N 
ATOM     24  C   UNL     1      12.533   6.506   8.938  0.00  0.00    +0.215 A 
ATOM     25  N   UNL     1      11.704   6.236   9.936  0.00  0.00    -0.223 NA
ATOM     26  C   UNL     1      12.032   6.527  11.184  0.00  0.00    +0.116 A 
ATOM     27  C   UNL     1      13.259   7.119  11.441  0.00  0.00    +0.039 A 
ATOM     28  C   UNL     1      14.102   7.387  10.374  0.00  0.00    +0.116 A 
ATOM     29  N   UNL     1      13.715   7.067   9.150  0.00  0.00    -0.223 NA
ATOM     30  H   UNL     1      12.758   6.377   6.905  0.00  0.00    +0.149 HD
ENDBRANCH  22  23
ENDBRANCH  21  22
ENDBRANCH   4  21
TORSDOF 7
