REMARK  Name = ZINC64085810
REMARK  7 active torsions:
REMARK  status: ('A' for Active; 'I' for Inactive)
REMARK    1  A    between atoms: C_1  and  C_2
REMARK    2  A    between atoms: C_4  and  C_12
REMARK    3  A    between atoms: C_18  and  C_20
REMARK    4  A    between atoms: C_20  and  C_21
REMARK    5  A    between atoms: C_21  and  C_22
REMARK    6  A    between atoms: C_22  and  C_23
REMARK    7  A    between atoms: C_26  and  C_29
REMARK                            x       y       z     vdW  Elec       q    Type
REMARK                         _______ _______ _______ _____ _____    ______ ____
ROOT
ATOM      1  C   UNL     1       0.379  -0.285  -2.575  0.00  0.00    +0.079 A 
ATOM      2  C   UNL     1       1.196  -0.730  -3.606  0.00  0.00    +0.076 A 
ATOM      3  S   UNL     1       0.358  -0.230  -4.976  0.00  0.00    -0.060 S 
ATOM      4  C   UNL     1      -1.030   0.543  -4.167  0.00  0.00    +0.165 A 
ATOM      5  N   UNL     1      -0.752   0.356  -2.895  0.00  0.00    -0.225 NA
ATOM      6  N   UNL     1      -2.126   1.176  -4.734  0.00  0.00    -0.265 N 
ATOM      7  C   UNL     1      -2.236   1.262  -6.075  0.00  0.00    +0.219 C 
ATOM      8  O   UNL     1      -1.375   0.787  -6.785  0.00  0.00    -0.275 OA
ATOM      9  H   UNL     1      -2.814   1.557  -4.166  0.00  0.00    +0.157 HD
ENDROOT
BRANCH   1  12
ATOM     10  C   UNL     1       1.782  -2.769  -1.166  0.00  0.00    +0.035 C 
ATOM     11  C   UNL     1       1.898  -1.315  -0.705  0.00  0.00    +0.109 C 
ATOM     12  C   UNL     1       0.728  -0.508  -1.226  0.00  0.00    +0.009 C 
ATOM     13  C   UNL     1       0.068  -0.033  -0.096  0.00  0.00    +0.005 A 
ATOM     14  C   UNL     1      -1.082   0.770   0.069  0.00  0.00    +0.010 A 
ATOM     15  C   UNL     1      -1.509   1.086   1.318  0.00  0.00    +0.001 A 
ATOM     16  C   UNL     1      -0.837   0.636   2.457  0.00  0.00    +0.002 A 
ATOM     17  C   UNL     1       0.273  -0.138   2.373  0.00  0.00    +0.026 A 
ATOM     18  C   UNL     1       0.779  -0.510   1.101  0.00  0.00    +0.043 A 
ATOM     19  N   UNL     1       1.824  -1.241   0.757  0.00  0.00    -0.377 N 
ATOM     20  H   UNL     1       2.443  -1.662   1.373  0.00  0.00    +0.160 HD
ENDBRANCH   1  12
BRANCH   7  21
ATOM     21  C   UNL     1      -3.426   1.950  -6.691  0.00  0.00    +0.096 C 
BRANCH  21  22
ATOM     22  C   UNL     1      -3.306   1.909  -8.216  0.00  0.00    +0.014 C 
BRANCH  22  23
ATOM     23  C   UNL     1      -4.515   2.607  -8.842  0.00  0.00    +0.057 C 
BRANCH  23  24
ATOM     24  C   UNL     1      -4.395   2.567 -10.367  0.00  0.00    +0.243 C 
ATOM     25  N   UNL     1      -5.502   3.307 -10.984  0.00  0.00    -0.347 N 
ATOM     26  C   UNL     1      -6.185   2.497 -11.716  0.00  0.00    +0.100 C 
ATOM     27  N   UNL     1      -5.673   1.233 -11.685  0.00  0.00    -0.252 N 
ATOM     28  O   UNL     1      -4.530   1.218 -10.841  0.00  0.00    -0.248 OA
ATOM     29  C   UNL     1      -7.402   2.897 -12.510  0.00  0.00    +0.085 C 
ATOM     30  H   UNL     1      -6.031   0.468 -12.162  0.00  0.00    +0.195 HD
ATOM     31  H   UNL     1      -5.688   4.251 -10.861  0.00  0.00    +0.163 HD
ENDBRANCH  23  24
ENDBRANCH  22  23
ENDBRANCH  21  22
ENDBRANCH   7  21
TORSDOF 5
