REMARK  Name = ZINC62578498
REMARK  5 active torsions:
REMARK  status: ('A' for Active; 'I' for Inactive)
REMARK    1  A    between atoms: C_1  and  C_2
REMARK    2  A    between atoms: C_5  and  C_28
REMARK    3  A    between atoms: C_6  and  S_8
REMARK    4  A    between atoms: S_8  and  N_11
REMARK    5  A    between atoms: C_18  and  C_27
REMARK                            x       y       z     vdW  Elec       q    Type
REMARK                         _______ _______ _______ _____ _____    ______ ____
ROOT
ATOM      1  N   UNL     1      -1.769  -3.345   3.084  0.00  0.00    -0.172 NA
ATOM      2  C   UNL     1      -2.976  -2.580   3.438  0.00  0.00    +0.114 C 
ATOM      3  C   UNL     1      -3.920  -2.610   2.236  0.00  0.00    +0.052 C 
ATOM      4  C   UNL     1      -4.064  -4.011   1.702  0.00  0.00    -0.041 A 
ATOM      5  C   UNL     1      -5.166  -4.277   0.925  0.00  0.00    +0.014 A 
ATOM      6  C   UNL     1      -5.361  -5.550   0.388  0.00  0.00    -0.001 A 
ATOM      7  C   UNL     1      -6.528  -5.857  -0.442  0.00  0.00    +0.018 A 
ATOM      8  C   UNL     1      -6.658  -7.113  -0.936  0.00  0.00    +0.014 A 
ATOM      9  C   UNL     1      -5.684  -8.094  -0.651  0.00  0.00    +0.252 A 
ATOM     10  O   UNL     1      -5.821  -9.216  -1.107  0.00  0.00    -0.268 OA
ATOM     11  N   UNL     1      -4.610  -7.822   0.109  0.00  0.00    -0.322 N 
ATOM     12  H   UNL     1      -3.959  -8.520   0.285  0.00  0.00    +0.169 HD
ATOM     13  C   UNL     1      -4.419  -6.565   0.643  0.00  0.00    +0.049 A 
ATOM     14  C   UNL     1      -3.315  -6.279   1.433  0.00  0.00    +0.031 A 
ATOM     15  C   UNL     1      -3.142  -5.011   1.962  0.00  0.00    -0.026 A 
ATOM     16  C   UNL     1      -1.932  -4.779   2.826  0.00  0.00    +0.144 C 
ATOM     17  C   UNL     1      -7.848  -7.463  -1.792  0.00  0.00    +0.049 C 
ENDROOT
BRANCH   1  18
ATOM     18  S   UNL     1      -0.287  -2.613   2.976  0.00  0.00    +0.061 S 
ATOM     19  O   UNL     1       0.682  -3.615   3.252  0.00  0.00    -0.153 OA
ATOM     20  O   UNL     1      -0.373  -1.409   3.725  0.00  0.00    -0.153 OA
BRANCH  18  26
ATOM     21  C   UNL     1      -1.592  -2.877  -2.079  0.00  0.00    +0.044 C 
ATOM     22  C   UNL     1      -0.699  -2.303  -1.009  0.00  0.00    -0.049 A 
ATOM     23  C   UNL     1       0.298  -1.408  -1.348  0.00  0.00    +0.004 A 
ATOM     24  C   UNL     1       1.117  -0.881  -0.367  0.00  0.00    +0.005 A 
ATOM     25  C   UNL     1       0.938  -1.249   0.954  0.00  0.00    -0.024 A 
ATOM     26  C   UNL     1      -0.060  -2.143   1.293  0.00  0.00    +0.109 A 
ATOM     27  C   UNL     1      -0.881  -2.667   0.312  0.00  0.00    +0.032 A 
ATOM     28  C   UNL     1       1.831  -0.675   2.023  0.00  0.00    +0.046 C 
ENDBRANCH  18  26
ENDBRANCH   1  18
TORSDOF 2
