REMARK  Name = ZINC36106015
REMARK  13 active torsions:
REMARK  status: ('A' for Active; 'I' for Inactive)
REMARK    1  A    between atoms: C_1  and  C_2
REMARK    2  A    between atoms: C_2  and  N_3
REMARK    3  A    between atoms: N_3  and  C_4
REMARK    4  A    between atoms: C_4  and  C_5
REMARK    5  A    between atoms: C_8  and  C_10
REMARK    6  A    between atoms: C_10  and  O_11
REMARK    7  A    between atoms: O_11  and  C_12
REMARK    8  A    between atoms: C_14  and  C_20
REMARK    9  A    between atoms: C_16  and  C_19
REMARK   10  A    between atoms: C_17  and  C_18
REMARK   11  A    between atoms: C_21  and  C_23
REMARK   12  A    between atoms: C_23  and  C_24
REMARK   13  A    between atoms: C_23  and  C_25
REMARK                            x       y       z     vdW  Elec       q    Type
REMARK                         _______ _______ _______ _____ _____    ______ ____
ROOT
ATOM      1  C   UNL     1      -3.443  -2.295  -0.747  0.00  0.00    +0.066 A 
ATOM      2  C   UNL     1      -4.236  -3.094   0.012  0.00  0.00    +0.072 A 
ATOM      3  S   UNL     1      -3.917  -4.683  -0.738  0.00  0.00    -0.077 S 
ATOM      4  C   UNL     1      -2.828  -4.168  -1.914  0.00  0.00    +0.116 A 
ATOM      5  N   UNL     1      -2.755  -2.877  -1.709  0.00  0.00    -0.244 NA
ENDROOT
BRANCH   1   6
ATOM      6  C   UNL     1      -3.357  -0.810  -0.503  0.00  0.00    +0.163 C 
BRANCH   6   7
ATOM      7  N   UNL     1      -2.206  -0.522   0.355  0.00  0.00    -0.296 N 
ATOM      8  C   UNL     1      -2.352  -0.505   1.695  0.00  0.00    +0.218 C 
ATOM      9  O   UNL     1      -3.433  -0.744   2.190  0.00  0.00    -0.275 OA
BRANCH   8  10
ATOM     10  C   UNL     1      -1.172  -0.188   2.577  0.00  0.00    +0.069 C 
ATOM     11  C   UNL     1      -0.792   1.285   2.412  0.00  0.00    +0.017 C 
ATOM     12  C   UNL     1      -1.540  -0.459   4.037  0.00  0.00    +0.017 C 
ENDBRANCH   8  10
BRANCH   7  14
ATOM     13  C   UNL     1      -0.830   1.212  -0.686  0.00  0.00    +0.024 C 
ATOM     14  C   UNL     1      -0.896  -0.251  -0.243  0.00  0.00    +0.105 C 
ENDBRANCH   7  14
ENDBRANCH   6   7
ENDBRANCH   1   6
BRANCH   4  15
ATOM     15  C   UNL     1      -2.115  -4.992  -2.955  0.00  0.00    +0.291 C 
BRANCH  15  16
ATOM     16  O   UNL     1      -0.870  -5.453  -2.426  0.00  0.00    -0.485 OA
BRANCH  16  17
ATOM     17  C   UNL     1      -0.097  -6.217  -3.243  0.00  0.00    +0.124 A 
ATOM     18  C   UNL     1      -0.527  -6.512  -4.529  0.00  0.00    +0.049 A 
ATOM     19  C   UNL     1       0.260  -7.287  -5.358  0.00  0.00    -0.047 A 
ATOM     20  C   UNL     1       1.475  -7.770  -4.907  0.00  0.00    +0.007 A 
ATOM     21  C   UNL     1       1.905  -7.478  -3.626  0.00  0.00    -0.044 A 
ATOM     22  C   UNL     1       1.124  -6.698  -2.795  0.00  0.00    -0.006 A 
ATOM     23  C   UNL     1       1.596  -6.374  -1.401  0.00  0.00    +0.048 C 
ATOM     24  C   UNL     1       3.229  -8.006  -3.137  0.00  0.00    +0.044 C 
ATOM     25  C   UNL     1      -0.205  -7.609  -6.755  0.00  0.00    +0.044 C 
ENDBRANCH  16  17
ENDBRANCH  15  16
ENDBRANCH   4  15
TORSDOF 7
