REMARK  Name = ZINC63258982
REMARK  10 active torsions:
REMARK  status: ('A' for Active; 'I' for Inactive)
REMARK    1  A    between atoms: C_7  and  C_10
REMARK    2  A    between atoms: C_10  and  C_11
REMARK    3  A    between atoms: C_11  and  C_12
REMARK    4  A    between atoms: C_12  and  C_13
REMARK    5  A    between atoms: C_13  and  O_15
REMARK    6  A    between atoms: O_15  and  C_16
REMARK    7  A    between atoms: C_16  and  C_17
REMARK    8  A    between atoms: N_19  and  C_20
REMARK    9  A    between atoms: C_22  and  S_27
REMARK   10  A    between atoms: S_27  and  N_30
REMARK                            x       y       z     vdW  Elec       q    Type
REMARK                         _______ _______ _______ _____ _____    ______ ____
ROOT
ATOM      1  C   UNL     1      -2.652  -7.910  -4.563  0.00  0.00    +0.255 C 
ATOM      2  O   UNL     1      -3.122  -8.380  -3.548  0.00  0.00    -0.272 OA
ATOM      3  N   UNL     1      -2.959  -8.449  -5.759  0.00  0.00    -0.281 N 
ATOM      4  H   UNL     1      -2.636  -8.035  -6.575  0.00  0.00    +0.155 HD
ENDROOT
BRANCH   3   5
ATOM      5  C   UNL     1      -3.742  -9.607  -5.825  0.00  0.00    +0.054 A 
ATOM      6  C   UNL     1      -4.757  -9.815  -4.900  0.00  0.00    +0.053 A 
ATOM      7  C   UNL     1      -5.529 -10.958  -4.967  0.00  0.00    +0.107 A 
ATOM      8  C   UNL     1      -5.292 -11.897  -5.955  0.00  0.00    +0.030 A 
ATOM      9  C   UNL     1      -4.283 -11.694  -6.878  0.00  0.00    +0.024 A 
ATOM     10  C   UNL     1      -3.510 -10.550  -6.819  0.00  0.00    +0.062 A 
ATOM     11 CL   UNL     1      -2.248 -10.293  -7.983  0.00  0.00    -0.082 Cl
BRANCH   7  12
ATOM     12  S   UNL     1      -6.816 -11.221  -3.793  0.00  0.00    +0.061 S 
ATOM     13  O   UNL     1      -7.036 -12.624  -3.740  0.00  0.00    -0.153 OA
ATOM     14  O   UNL     1      -6.479 -10.458  -2.643  0.00  0.00    -0.153 OA
BRANCH  12  15
ATOM     15  N   UNL     1      -8.194 -10.549  -4.419  0.00  0.00    -0.177 NA
ATOM     16  C   UNL     1      -8.531  -9.144  -4.151  0.00  0.00    +0.109 C 
ATOM     17  C   UNL     1      -8.768  -8.430  -5.485  0.00  0.00    +0.017 C 
ATOM     18  C   UNL     1      -9.830  -9.190  -6.283  0.00  0.00    +0.003 C 
ATOM     19  C   UNL     1      -9.334 -10.607  -6.576  0.00  0.00    +0.017 C 
ATOM     20  C   UNL     1      -9.100 -11.345  -5.259  0.00  0.00    +0.109 C 
ENDBRANCH  12  15
ENDBRANCH   7  12
ENDBRANCH   3   5
BRANCH   1  21
ATOM     21  C   UNL     1      -1.726  -6.723  -4.486  0.00  0.00    +0.328 C 
BRANCH  21  22
ATOM     22  O   UNL     1      -1.558  -6.338  -3.120  0.00  0.00    -0.455 OA
BRANCH  22  23
ATOM     23  C   UNL     1      -0.757  -5.289  -2.877  0.00  0.00    +0.308 C 
ATOM     24  O   UNL     1      -0.216  -4.717  -3.794  0.00  0.00    -0.251 OA
BRANCH  23  25
ATOM     25  C   UNL     1      -0.531  -4.825  -1.461  0.00  0.00    +0.121 C 
BRANCH  25  26
ATOM     26  C   UNL     1       0.415  -3.623  -1.463  0.00  0.00    +0.015 C 
BRANCH  26  27
ATOM     27  C   UNL     1       0.644  -3.152  -0.026  0.00  0.00    +0.034 C 
BRANCH  27  34
ATOM     28  C   UNL     1      -0.098   1.377   0.002  0.00  0.00    +0.001 A 
ATOM     29  C   UNL     1       1.078   2.139  -0.004  0.00  0.00    +0.002 A 
ATOM     30  C   UNL     1       2.308   1.582  -0.018  0.00  0.00    +0.026 A 
ATOM     31  C   UNL     1       2.457   0.168  -0.025  0.00  0.00    +0.043 A 
ATOM     32  N   UNL     1       3.521  -0.598  -0.039  0.00  0.00    -0.380 N 
ATOM     33  C   UNL     1       3.088  -2.000  -0.042  0.00  0.00    +0.144 C 
ATOM     34  C   UNL     1       1.576  -1.967  -0.028  0.00  0.00    -0.042 C 
ATOM     35  C   UNL     1       1.229  -0.660  -0.018  0.00  0.00    -0.001 A 
ATOM     36  C   UNL     1      -0.069   0.025  -0.004  0.00  0.00    +0.010 A 
ATOM     37  H   UNL     1       4.440  -0.289  -0.046  0.00  0.00    +0.160 HD
ENDBRANCH  27  34
ENDBRANCH  26  27
ENDBRANCH  25  26
ENDBRANCH  23  25
ENDBRANCH  22  23
ENDBRANCH  21  22
ENDBRANCH   1  21
TORSDOF 10
