REMARK  Name = ZINC06483998
REMARK  3 active torsions:
REMARK  status: ('A' for Active; 'I' for Inactive)
REMARK    1  A    between atoms: C_1  and  C_2
REMARK    2  A    between atoms: C_8  and  C_19
REMARK    3  A    between atoms: C_11  and  C_13
REMARK                            x       y       z     vdW  Elec       q    Type
REMARK                         _______ _______ _______ _____ _____    ______ ____
ROOT
ATOM      1  C   UNL     1       7.062  -0.578   0.150  0.00  0.00    +0.071 C 
ATOM      2  C   UNL     1       7.117   0.927   0.175  0.00  0.00    +0.106 A 
ATOM      3  C   UNL     1       6.006   1.828   0.119  0.00  0.00    +0.129 A 
ATOM      4  C   UNL     1       6.590   3.056   0.149  0.00  0.00    +0.163 A 
ATOM      5  O   UNL     1       7.914   2.844   0.249  0.00  0.00    -0.357 OA
ATOM      6  N   UNL     1       8.181   1.667   0.251  0.00  0.00    -0.081 NA
ATOM      7  C   UNL     1       5.926   4.394   0.061  0.00  0.00    +0.088 C 
ATOM      8  C   UNL     1       4.549   4.396   0.678  0.00  0.00    +0.032 C 
ATOM      9  C   UNL     1       3.535   3.630  -0.135  0.00  0.00    +0.064 C 
ATOM     10  C   UNL     1       3.654   2.157  -0.022  0.00  0.00    +0.050 C 
ATOM     11  N   UNL     1       4.710   1.461   0.063  0.00  0.00    -0.246 NA
ENDROOT
BRANCH  10  12
ATOM     12  C   UNL     1       2.386   1.406  -0.014  0.00  0.00    -0.004 A 
ATOM     13  C   UNL     1       1.180   2.063  -0.274  0.00  0.00    +0.010 A 
ATOM     14  C   UNL     1      -0.003   1.354  -0.264  0.00  0.00    +0.001 A 
ATOM     15  C   UNL     1       0.002  -0.004   0.002  0.00  0.00    +0.000 A 
ATOM     16  C   UNL     1       1.192  -0.661   0.261  0.00  0.00    +0.001 A 
ATOM     17  C   UNL     1       2.383   0.035   0.254  0.00  0.00    +0.010 A 
ENDBRANCH  10  12
BRANCH   8  18
ATOM     18  C   UNL     1       4.080   5.822   0.814  0.00  0.00    -0.044 A 
ATOM     19  C   UNL     1       3.961   6.619  -0.309  0.00  0.00    +0.004 A 
ATOM     20  C   UNL     1       3.528   7.926  -0.186  0.00  0.00    +0.000 A 
ATOM     21  C   UNL     1       3.222   8.438   1.061  0.00  0.00    +0.000 A 
ATOM     22  C   UNL     1       3.346   7.642   2.185  0.00  0.00    +0.000 A 
ATOM     23  C   UNL     1       3.776   6.334   2.061  0.00  0.00    +0.004 A 
ENDBRANCH   8  18
TORSDOF 2
