REMARK  Name = ZINC20028395
REMARK  5 active torsions:
REMARK  status: ('A' for Active; 'I' for Inactive)
REMARK    1  A    between atoms: C_13  and  N_14
REMARK    2  A    between atoms: N_17  and  C_20
REMARK    3  A    between atoms: C_20  and  C_21
REMARK    4  A    between atoms: C_21  and  C_22
REMARK    5  A    between atoms: C_22  and  N_23
REMARK                            x       y       z     vdW  Elec       q    Type
REMARK                         _______ _______ _______ _____ _____    ______ ____
ROOT
ATOM      1  N   UNL     1      -0.322   5.943   1.241  0.00  0.00    -0.295 NA
ATOM      2  C   UNL     1       0.187   5.279   2.449  0.00  0.00    +0.067 C 
ATOM      3  C   UNL     1      -0.345   6.002   3.689  0.00  0.00    -0.063 C 
ATOM      4  N   UNL     1      -1.814   5.993   3.666  0.00  0.00    +0.381 N 
ATOM      5  C   UNL     1      -2.323   6.657   2.458  0.00  0.00    -0.063 C 
ATOM      6  C   UNL     1      -1.792   5.934   1.218  0.00  0.00    +0.067 C 
ATOM      7  H   UNL     1      -2.147   4.944   3.642  0.00  0.00    -0.082 HD
ENDROOT
BRANCH   1  20
ATOM      8  C   UNL     1      -0.013   1.076   0.008  0.00  0.00    +0.001 A 
ATOM      9  C   UNL     1      -1.221   1.748   0.017  0.00  0.00    +0.000 A 
ATOM     10  C   UNL     1      -1.246   3.132   0.030  0.00  0.00    +0.006 A 
ATOM     11  C   UNL     1      -0.064   3.843   0.023  0.00  0.00    -0.018 A 
ATOM     12  C   UNL     1       1.157   3.175   0.008  0.00  0.00    -0.013 A 
ATOM     13  C   UNL     1       1.174   1.779   0.000  0.00  0.00    +0.009 A 
ATOM     14  C   UNL     1       2.262   4.166   0.002  0.00  0.00    -0.013 A 
ATOM     15  C   UNL     1       3.648   3.998  -0.013  0.00  0.00    +0.009 A 
ATOM     16  C   UNL     1       4.476   5.101  -0.015  0.00  0.00    +0.001 A 
ATOM     17  C   UNL     1       3.938   6.376  -0.003  0.00  0.00    +0.000 A 
ATOM     18  C   UNL     1       2.566   6.550   0.011  0.00  0.00    +0.006 A 
ATOM     19  C   UNL     1       1.731   5.452   0.014  0.00  0.00    -0.018 A 
ATOM     20  C   UNL     1       0.227   5.323   0.028  0.00  0.00    +0.118 C 
ENDBRANCH   1  20
BRANCH   4  21
ATOM     21  C   UNL     1      -2.364   6.612   4.879  0.00  0.00    -0.077 C 
BRANCH  21  22
ATOM     22  C   UNL     1      -2.017   5.750   6.094  0.00  0.00    +0.001 C 
BRANCH  22  23
ATOM     23  C   UNL     1      -2.589   6.396   7.358  0.00  0.00    +0.115 C 
BRANCH  23  24
ATOM     24  N   UNL     1      -2.256   5.570   8.521  0.00  0.00    -0.234 N 
ATOM     25  C   UNL     1      -3.114   4.602   8.895  0.00  0.00    +0.254 C 
ATOM     26  O   UNL     1      -4.142   4.428   8.268  0.00  0.00    -0.270 OA
ATOM     27  C   UNL     1      -2.813   3.749  10.055  0.00  0.00    +0.046 A 
ATOM     28  C   UNL     1      -3.666   2.738  10.473  0.00  0.00    +0.014 A 
ATOM     29  C   UNL     1      -3.339   1.962  11.579  0.00  0.00    +0.001 A 
ATOM     30  C   UNL     1      -2.186   2.166  12.281  0.00  0.00    +0.008 A 
ATOM     31  C   UNL     1      -1.295   3.180  11.890  0.00  0.00    -0.016 A 
ATOM     32  C   UNL     1      -1.615   3.975  10.770  0.00  0.00    +0.006 A 
ATOM     33  C   UNL     1      -0.739   5.004  10.353  0.00  0.00    +0.046 A 
ATOM     34  C   UNL     1       0.434   5.218  11.061  0.00  0.00    +0.014 A 
ATOM     35  C   UNL     1       0.738   4.427  12.163  0.00  0.00    +0.001 A 
ATOM     36  C   UNL     1      -0.095   3.430  12.580  0.00  0.00    +0.008 A 
ATOM     37  C   UNL     1      -1.107   5.811   9.180  0.00  0.00    +0.254 C 
ATOM     38  O   UNL     1      -0.369   6.701   8.803  0.00  0.00    -0.270 OA
ENDBRANCH  23  24
ENDBRANCH  22  23
ENDBRANCH  21  22
ENDBRANCH   4  21
TORSDOF 5
