REMARK  Name = ZINC32853420
REMARK  2 active torsions:
REMARK  status: ('A' for Active; 'I' for Inactive)
REMARK    1  A    between atoms: C_6  and  O_7
REMARK    2  A    between atoms: O_7  and  C_8
REMARK                            x       y       z     vdW  Elec       q    Type
REMARK                         _______ _______ _______ _____ _____    ______ ____
ROOT
ATOM      1  C   UNL     1      -4.981   3.572   2.542  0.00  0.00    +0.047 A 
ATOM      2  C   UNL     1      -4.181   3.095   1.544  0.00  0.00    +0.015 A 
ATOM      3  C   UNL     1      -2.931   2.548   1.856  0.00  0.00    +0.021 A 
ATOM      4  C   UNL     1      -2.503   2.490   3.196  0.00  0.00    +0.143 A 
ATOM      5  C   UNL     1      -3.328   2.979   4.197  0.00  0.00    +0.093 A 
ATOM      6  C   UNL     1      -4.562   3.518   3.869  0.00  0.00    +0.134 A 
ATOM      7  O   UNL     1      -1.296   1.961   3.490  0.00  0.00    -0.422 OA
ATOM      8  C   UNL     1      -0.486   1.486   2.533  0.00  0.00    +0.341 A 
ATOM      9  O   UNL     1       0.594   1.019   2.849  0.00  0.00    -0.245 OA
ATOM     10  C   UNL     1      -0.848   1.512   1.169  0.00  0.00    +0.041 A 
ATOM     11  C   UNL     1      -2.051   2.030   0.806  0.00  0.00    -0.027 A 
ATOM     12  C   UNL     1      -2.227   1.953  -0.693  0.00  0.00    +0.036 C 
ATOM     13  C   UNL     1      -0.807   1.719  -1.251  0.00  0.00    +0.010 C 
ATOM     14  C   UNL     1      -0.102   1.036  -0.059  0.00  0.00    +0.043 C 
ENDROOT
BRANCH   6  15
ATOM     15  O   UNL     1      -5.369   3.997   4.850  0.00  0.00    -0.437 OA
BRANCH  15  16
ATOM     16  C   UNL     1      -6.489   3.295   5.152  0.00  0.00    +0.238 A 
ATOM     17  C   UNL     1      -7.413   3.789   6.053  0.00  0.00    +0.099 A 
ATOM     18  C   UNL     1      -8.582   3.064   6.371  0.00  0.00    +0.085 A 
ATOM     19  C   UNL     1      -9.437   3.680   7.302  0.00  0.00    +0.036 A 
ATOM     20  C   UNL     1      -9.117   4.879   7.825  0.00  0.00    +0.048 A 
ATOM     21  S   UNL     1      -7.559   5.254   7.040  0.00  0.00    -0.090 S 
ATOM     22  N   UNL     1      -8.723   1.874   5.738  0.00  0.00    -0.235 NA
ATOM     23  C   UNL     1      -7.824   1.443   4.891  0.00  0.00    +0.225 A 
ATOM     24  N   UNL     1      -6.729   2.115   4.583  0.00  0.00    -0.200 NA
ENDBRANCH  15  16
ENDBRANCH   6  15
TORSDOF 2
