REMARK  Name = ZINC59849897
REMARK  9 active torsions:
REMARK  status: ('A' for Active; 'I' for Inactive)
REMARK    1  A    between atoms: C_1  and  N_2
REMARK    2  A    between atoms: N_2  and  S_3
REMARK    3  A    between atoms: S_3  and  C_6
REMARK    4  A    between atoms: C_8  and  C_14
REMARK    5  A    between atoms: C_11  and  O_12
REMARK    6  A    between atoms: O_12  and  C_13
REMARK    7  A    between atoms: C_15  and  C_16
REMARK    8  A    between atoms: N_18  and  C_19
REMARK    9  A    between atoms: C_24  and  N_25
REMARK                            x       y       z     vdW  Elec       q    Type
REMARK                         _______ _______ _______ _____ _____    ______ ____
ROOT
ATOM      1  C   UNL     1      -3.669  -3.146   7.024  0.00  0.00    +0.241 C 
ATOM      2  O   UNL     1      -3.626  -4.280   6.584  0.00  0.00    -0.270 OA
ATOM      3  N   UNL     1      -4.360  -2.887   8.152  0.00  0.00    -0.280 N 
ATOM      4  H   UNL     1      -4.329  -2.002   8.547  0.00  0.00    +0.155 HD
ENDROOT
BRANCH   3   5
ATOM      5  C   UNL     1      -5.123  -3.896   8.754  0.00  0.00    +0.055 A 
ATOM      6  C   UNL     1      -5.598  -4.954   7.994  0.00  0.00    +0.025 A 
ATOM      7  C   UNL     1      -6.351  -5.949   8.590  0.00  0.00    +0.002 A 
ATOM      8  C   UNL     1      -6.633  -5.893   9.943  0.00  0.00    +0.002 A 
ATOM      9  C   UNL     1      -6.163  -4.841  10.707  0.00  0.00    +0.025 A 
ATOM     10  C   UNL     1      -5.402  -3.842  10.119  0.00  0.00    +0.055 A 
BRANCH  10  11
ATOM     11  N   UNL     1      -4.921  -2.779  10.892  0.00  0.00    -0.298 N 
ATOM     12  C   UNL     1      -5.638  -1.524  11.132  0.00  0.00    +0.116 C 
ATOM     13  C   UNL     1      -4.706  -0.693  12.029  0.00  0.00    +0.056 C 
ATOM     14  C   UNL     1      -3.493  -1.573  12.235  0.00  0.00    -0.025 A 
ATOM     15  C   UNL     1      -3.692  -2.764  11.553  0.00  0.00    +0.037 A 
ATOM     16  C   UNL     1      -2.700  -3.745  11.601  0.00  0.00    +0.024 A 
ATOM     17  C   UNL     1      -1.544  -3.531  12.320  0.00  0.00    +0.002 A 
ATOM     18  C   UNL     1      -1.357  -2.341  12.999  0.00  0.00    +0.000 A 
ATOM     19  C   UNL     1      -2.331  -1.361  12.950  0.00  0.00    +0.005 A 
ENDBRANCH  10  11
ENDBRANCH   3   5
BRANCH   1  21
ATOM     20  C   UNL     1      -2.279  -2.325   5.200  0.00  0.00    +0.013 C 
ATOM     21  C   UNL     1      -2.971  -2.065   6.330  0.00  0.00    +0.068 C 
BRANCH  20  24
ATOM     22  C   UNL     1      -0.204  -0.484   2.680  0.00  0.00    +0.147 A 
ATOM     23  C   UNL     1      -0.859  -1.505   3.331  0.00  0.00    +0.040 A 
ATOM     24  C   UNL     1      -1.577  -1.238   4.502  0.00  0.00    -0.023 A 
ATOM     25  C   UNL     1      -1.625   0.067   5.006  0.00  0.00    +0.011 A 
ATOM     26  C   UNL     1      -0.967   1.081   4.348  0.00  0.00    +0.048 A 
ATOM     27  C   UNL     1      -0.250   0.809   3.188  0.00  0.00    +0.146 A 
BRANCH  22  28
ATOM     28  S   UNL     1       0.701  -0.818   1.206  0.00  0.00    +0.062 S 
ATOM     29  O   UNL     1       0.537  -2.203   0.933  0.00  0.00    -0.153 OA
ATOM     30  O   UNL     1       1.980  -0.220   1.370  0.00  0.00    -0.153 OA
BRANCH  28  32
ATOM     31  C   UNL     1      -0.079   1.463  -0.021  0.00  0.00    +0.127 C 
ATOM     32  N   UNL     1      -0.049  -0.001  -0.024  0.00  0.00    -0.193 NA
ATOM     33  H   UNL     1      -0.469  -0.493  -0.747  0.00  0.00    +0.148 HD
ENDBRANCH  28  32
ENDBRANCH  22  28
BRANCH  27  34
ATOM     34  O   UNL     1       0.402   1.812   2.546  0.00  0.00    -0.493 OA
ATOM     35  C   UNL     1       0.314   3.117   3.122  0.00  0.00    +0.277 C 
ENDBRANCH  27  34
ENDBRANCH  20  24
ENDBRANCH   1  21
TORSDOF 7
