REMARK  Name = ZINC01199877
REMARK  10 active torsions:
REMARK  status: ('A' for Active; 'I' for Inactive)
REMARK    1  A    between atoms: C_1  and  C_2
REMARK    2  A    between atoms: C_2  and  C_3
REMARK    3  A    between atoms: C_3  and  C_5
REMARK    4  A    between atoms: C_3  and  C_11
REMARK    5  A    between atoms: N_13  and  C_14
REMARK    6  A    between atoms: C_15  and  C_28
REMARK    7  A    between atoms: C_20  and  C_24
REMARK    8  A    between atoms: C_24  and  C_25
REMARK    9  A    between atoms: C_24  and  C_26
REMARK   10  A    between atoms: C_24  and  C_27
REMARK                            x       y       z     vdW  Elec       q    Type
REMARK                         _______ _______ _______ _____ _____    ______ ____
ROOT
ATOM      1  C   UNL     1       2.354   1.221  -0.014  0.00  0.00    +0.084 A 
ATOM      2  C   UNL     1       3.637   1.749  -0.029  0.00  0.00    +0.068 A 
ATOM      3  C   UNL     1       4.748   0.813  -0.039  0.00  0.00    -0.023 A 
ATOM      4  C   UNL     1       4.401  -0.492  -0.043  0.00  0.00    -0.004 A 
ATOM      5  S   UNL     1       2.630  -0.489  -0.026  0.00  0.00    -0.077 S 
ATOM      6  C   UNL     1       5.323  -1.672  -0.057  0.00  0.00    +0.046 C 
ATOM      7  C   UNL     1       6.733  -1.188   0.312  0.00  0.00    -0.000 C 
ATOM      8  C   UNL     1       7.062   0.054  -0.521  0.00  0.00    +0.009 C 
ATOM      9  C   UNL     1       6.212   1.236  -0.051  0.00  0.00    +0.037 C 
ENDROOT
BRANCH   2  10
ATOM     10  C   UNL     1       3.863   3.198  -0.030  0.00  0.00    +0.244 C 
ATOM     11  O   UNL     1       3.970   3.798   1.024  0.00  0.00    -0.270 OA
ATOM     12  N   UNL     1       3.952   3.865  -1.198  0.00  0.00    -0.325 N 
ATOM     13  H   UNL     1       3.867   3.387  -2.037  0.00  0.00    +0.145 HD
ATOM     14  H   UNL     1       4.102   4.824  -1.198  0.00  0.00    +0.145 HD
ENDBRANCH   2  10
BRANCH   1  17
ATOM     15  C   UNL     1      -0.014   1.209   0.009  0.00  0.00    +0.225 C 
ATOM     16  O   UNL     1       0.002  -0.004   0.002  0.00  0.00    -0.275 OA
ATOM     17  N   UNL     1       1.143   1.898   0.001  0.00  0.00    -0.279 N 
ATOM     18  H   UNL     1       1.130   2.868   0.007  0.00  0.00    +0.155 HD
BRANCH  15  19
ATOM     19  C   UNL     1      -1.330   1.944   0.019  0.00  0.00    +0.105 C 
BRANCH  19  20
ATOM     20  C   UNL     1      -2.462   0.950   0.019  0.00  0.00    -0.036 A 
ATOM     21  C   UNL     1      -2.594   0.053  -1.025  0.00  0.00    +0.004 A 
ATOM     22  C   UNL     1      -3.630  -0.863  -1.023  0.00  0.00    +0.000 A 
ATOM     23  C   UNL     1      -4.539  -0.875   0.018  0.00  0.00    +0.000 A 
ATOM     24  C   UNL     1      -4.410   0.025   1.060  0.00  0.00    +0.000 A 
ATOM     25  C   UNL     1      -3.371   0.937   1.060  0.00  0.00    +0.004 A 
ENDBRANCH  19  20
BRANCH  19  27
ATOM     26  C   UNL     1      -2.705   3.669  -1.153  0.00  0.00    +0.005 C 
ATOM     27  C   UNL     1      -1.429   2.829  -1.225  0.00  0.00    +0.014 C 
ENDBRANCH  19  27
ENDBRANCH  15  19
ENDBRANCH   1  17
BRANCH   7  28
ATOM     28  C   UNL     1       7.749  -2.292   0.010  0.00  0.00    -0.035 C 
ATOM     29  C   UNL     1       9.155  -1.801   0.362  0.00  0.00    +0.011 C 
ATOM     30  C   UNL     1       7.418  -3.531   0.844  0.00  0.00    +0.011 C 
ATOM     31  C   UNL     1       7.690  -2.647  -1.477  0.00  0.00    +0.011 C 
ENDBRANCH   7  28
TORSDOF 6
