REMARK  Name = ZINC32409581
REMARK  6 active torsions:
REMARK  status: ('A' for Active; 'I' for Inactive)
REMARK    1  A    between atoms: C_1  and  C_2
REMARK    2  A    between atoms: C_5  and  S_9
REMARK    3  A    between atoms: S_9  and  N_12
REMARK    4  A    between atoms: C_16  and  S_23
REMARK    5  A    between atoms: C_20  and  C_22
REMARK    6  A    between atoms: S_23  and  N_26
REMARK                            x       y       z     vdW  Elec       q    Type
REMARK                         _______ _______ _______ _____ _____    ______ ____
ROOT
ATOM      1  N   UNL     1       1.651  -5.001  -0.037  0.00  0.00    -0.200 N 
ATOM      2  C   UNL     1       2.413  -5.214  -1.187  0.00  0.00    +0.055 A 
ATOM      3  C   UNL     1       2.045  -5.091  -2.528  0.00  0.00    +0.027 A 
ATOM      4  C   UNL     1       2.960  -5.350  -3.526  0.00  0.00    +0.030 A 
ATOM      5  C   UNL     1       4.249  -5.735  -3.206  0.00  0.00    +0.105 A 
ATOM      6  C   UNL     1       4.621  -5.859  -1.881  0.00  0.00    +0.034 A 
ATOM      7  C   UNL     1       3.708  -5.600  -0.877  0.00  0.00    -0.021 A 
ATOM      8  C   UNL     1       3.846  -5.657   0.628  0.00  0.00    +0.061 C 
ATOM      9  C   UNL     1       2.462  -5.247   1.158  0.00  0.00    +0.099 C 
ATOM     10  C   UNL     1       2.568  -3.973   1.999  0.00  0.00    +0.030 C 
ENDROOT
BRANCH   1  11
ATOM     11  S   UNL     1       0.062  -4.532  -0.026  0.00  0.00    +0.075 S 
ATOM     12  O   UNL     1      -0.477  -4.954   1.220  0.00  0.00    -0.150 OA
ATOM     13  O   UNL     1      -0.490  -4.937  -1.271  0.00  0.00    -0.150 OA
BRANCH  11  18
ATOM     14  C   UNL     1      -0.018   1.503   0.010  0.00  0.00    +0.047 C 
ATOM     15  C   UNL     1       0.002  -0.004   0.002  0.00  0.00    -0.015 A 
ATOM     16  C   UNL     1       0.006  -0.689  -1.199  0.00  0.00    +0.008 A 
ATOM     17  C   UNL     1       0.025  -2.071  -1.206  0.00  0.00    +0.029 A 
ATOM     18  C   UNL     1       0.040  -2.770  -0.014  0.00  0.00    +0.111 A 
ATOM     19  C   UNL     1       0.036  -2.088   1.188  0.00  0.00    +0.067 A 
ATOM     20  C   UNL     1       0.023  -0.703   1.197  0.00  0.00    +0.128 A 
ATOM     21  F   UNL     1       0.025  -0.035   2.371  0.00  0.00    -0.205 F 
ENDBRANCH  11  18
ENDBRANCH   1  11
BRANCH   5  22
ATOM     22  S   UNL     1       5.415  -6.067  -4.485  0.00  0.00    +0.056 S 
ATOM     23  O   UNL     1       6.392  -6.936  -3.929  0.00  0.00    -0.153 OA
ATOM     24  O   UNL     1       4.663  -6.407  -5.642  0.00  0.00    -0.153 OA
BRANCH  22  25
ATOM     25  N   UNL     1       6.188  -4.642  -4.825  0.00  0.00    -0.204 NA
ATOM     26  H   UNL     1       5.954  -3.836  -4.340  0.00  0.00    +0.144 HD
ATOM     27  H   UNL     1       6.874  -4.614  -5.510  0.00  0.00    +0.144 HD
ENDBRANCH  22  25
ENDBRANCH   5  22
TORSDOF 4
