REMARK  Name = ZINC02619988
REMARK  8 active torsions:
REMARK  status: ('A' for Active; 'I' for Inactive)
REMARK    1  A    between atoms: C_1  and  C_2
REMARK    2  A    between atoms: C_2  and  C_3
REMARK    3  A    between atoms: C_3  and  C_25
REMARK    4  A    between atoms: N_6  and  C_10
REMARK    5  A    between atoms: C_10  and  C_11
REMARK    6  A    between atoms: N_13  and  C_14
REMARK    7  A    between atoms: C_15  and  C_22
REMARK    8  A    between atoms: C_25  and  C_26
REMARK                            x       y       z     vdW  Elec       q    Type
REMARK                         _______ _______ _______ _____ _____    ______ ____
ROOT
ATOM      1  C   UNL     1       0.403   2.967  -4.021  0.00  0.00    +0.236 C 
ATOM      2  O   UNL     1       0.243   3.305  -2.867  0.00  0.00    -0.274 OA
ATOM      3  N   UNL     1       0.169   3.843  -5.018  0.00  0.00    -0.278 N 
ATOM      4  H   UNL     1       0.296   3.573  -5.941  0.00  0.00    +0.155 HD
ENDROOT
BRANCH   3   5
ATOM      5  C   UNL     1      -0.256   5.130  -4.725  0.00  0.00    +0.084 A 
ATOM      6  C   UNL     1      -0.548   6.152  -5.609  0.00  0.00    +0.068 A 
ATOM      7  C   UNL     1      -0.980   7.428  -5.041  0.00  0.00    -0.023 A 
ATOM      8  C   UNL     1      -1.036   7.438  -3.697  0.00  0.00    -0.004 A 
ATOM      9  S   UNL     1      -0.539   5.804  -3.215  0.00  0.00    -0.077 S 
ATOM     10  C   UNL     1      -1.482   8.773  -3.165  0.00  0.00    +0.043 C 
ATOM     11  C   UNL     1      -1.291   9.748  -4.348  0.00  0.00    +0.010 C 
ATOM     12  C   UNL     1      -1.404   8.800  -5.559  0.00  0.00    +0.037 C 
BRANCH   6  13
ATOM     13  C   UNL     1      -0.428   5.963  -7.059  0.00  0.00    +0.244 C 
ATOM     14  O   UNL     1      -1.381   5.564  -7.701  0.00  0.00    -0.270 OA
ATOM     15  N   UNL     1       0.737   6.233  -7.679  0.00  0.00    -0.325 N 
ATOM     16  H   UNL     1       1.497   6.552  -7.168  0.00  0.00    +0.145 HD
ATOM     17  H   UNL     1       0.816   6.108  -8.638  0.00  0.00    +0.145 HD
ENDBRANCH   6  13
ENDBRANCH   3   5
BRANCH   1  18
ATOM     18  C   UNL     1       0.864   1.569  -4.340  0.00  0.00    +0.214 C 
BRANCH  18  22
ATOM     19  C   UNL     1       0.718  -0.497  -1.257  0.00  0.00    +0.112 C 
ATOM     20  C   UNL     1       0.081   0.093  -2.499  0.00  0.00    +0.247 C 
ATOM     21  O   UNL     1      -1.061  -0.057  -2.878  0.00  0.00    -0.273 OA
ATOM     22  N   UNL     1       1.047   0.819  -3.095  0.00  0.00    -0.215 N 
ATOM     23  C   UNL     1       2.195   0.770  -2.408  0.00  0.00    +0.310 C 
ATOM     24  O   UNL     1       3.210   1.345  -2.748  0.00  0.00    -0.252 OA
ATOM     25  N   UNL     1       2.099   0.013  -1.301  0.00  0.00    -0.285 N 
ATOM     26  H   UNL     1       2.803  -0.163  -0.657  0.00  0.00    +0.151 HD
BRANCH  19  28
ATOM     27  C   UNL     1      -0.019   1.526   0.010  0.00  0.00    +0.006 C 
ATOM     28  C   UNL     1       0.002  -0.004   0.002  0.00  0.00    +0.032 C 
ENDBRANCH  19  28
BRANCH  19  29
ATOM     29  C   UNL     1       0.707  -2.026  -1.316  0.00  0.00    +0.032 C 
ATOM     30  C   UNL     1       1.534  -2.496  -2.515  0.00  0.00    +0.006 C 
ENDBRANCH  19  29
ENDBRANCH  18  22
ENDBRANCH   1  18
TORSDOF 6
