REMARK  Name = ZINC02278809
REMARK  5 active torsions:
REMARK  status: ('A' for Active; 'I' for Inactive)
REMARK    1  A    between atoms: C_1  and  C_2
REMARK    2  A    between atoms: C_5  and  N_14
REMARK    3  A    between atoms: N_14  and  C_15
REMARK    4  A    between atoms: C_21  and  C_23
REMARK    5  A    between atoms: C_23  and  N_24
REMARK                            x       y       z     vdW  Elec       q    Type
REMARK                         _______ _______ _______ _____ _____    ______ ____
ROOT
ATOM      1  N   UNL     1       1.446   4.065   1.388  0.00  0.00    -0.263 N 
ATOM      2  C   UNL     1       0.534   3.929   2.371  0.00  0.00    +0.238 C 
ATOM      3  O   UNL     1       0.706   4.479   3.438  0.00  0.00    -0.273 OA
ENDROOT
BRANCH   1   7
ATOM      4  C   UNL     1       4.580   1.787  -0.547  0.00  0.00    +0.028 C 
ATOM      5  C   UNL     1       3.574   2.924  -0.356  0.00  0.00    +0.069 C 
ATOM      6  C   UNL     1       2.162   2.347  -0.193  0.00  0.00    +0.049 C 
ATOM      7  C   UNL     1       1.186   3.495   0.064  0.00  0.00    +0.115 C 
ATOM      8  C   UNL     1       1.348   4.568  -0.981  0.00  0.00    -0.006 A 
ATOM      9  C   UNL     1       0.309   5.460  -1.192  0.00  0.00    +0.007 A 
ATOM     10  C   UNL     1       0.431   6.462  -2.135  0.00  0.00    +0.000 A 
ATOM     11  C   UNL     1       1.593   6.580  -2.877  0.00  0.00    +0.002 A 
ATOM     12  C   UNL     1       2.631   5.693  -2.675  0.00  0.00    +0.023 A 
ATOM     13  C   UNL     1       2.510   4.684  -1.726  0.00  0.00    +0.032 A 
ATOM     14  N   UNL     1       3.571   3.790  -1.544  0.00  0.00    -0.341 N 
ATOM     15  H   UNL     1       4.293   3.743  -2.190  0.00  0.00    +0.146 HD
ENDBRANCH   1   7
BRANCH   1  16
ATOM     16  C   UNL     1       2.641   4.751   1.632  0.00  0.00    +0.037 A 
ATOM     17  C   UNL     1       3.602   4.198   2.468  0.00  0.00    +0.023 A 
ATOM     18  C   UNL     1       4.783   4.875   2.702  0.00  0.00    +0.002 A 
ATOM     19  C   UNL     1       5.003   6.107   2.115  0.00  0.00    +0.000 A 
ATOM     20  C   UNL     1       4.046   6.663   1.287  0.00  0.00    +0.002 A 
ATOM     21  C   UNL     1       2.865   5.989   1.044  0.00  0.00    +0.023 A 
ENDBRANCH   1  16
BRANCH   2  22
ATOM     22  C   UNL     1      -0.699   3.092   2.144  0.00  0.00    +0.213 C 
BRANCH  22  23
ATOM     23  N   UNL     1      -1.465   3.005   3.390  0.00  0.00    -0.225 N 
ATOM     24  C   UNL     1      -1.302   2.045   4.318  0.00  0.00    +0.254 C 
ATOM     25  O   UNL     1      -0.507   1.129   4.258  0.00  0.00    -0.270 OA
ATOM     26  C   UNL     1      -2.249   2.295   5.426  0.00  0.00    +0.049 A 
ATOM     27  C   UNL     1      -2.527   1.656   6.624  0.00  0.00    +0.014 A 
ATOM     28  C   UNL     1      -3.510   2.162   7.459  0.00  0.00    +0.001 A 
ATOM     29  C   UNL     1      -4.215   3.297   7.106  0.00  0.00    +0.001 A 
ATOM     30  C   UNL     1      -3.948   3.946   5.911  0.00  0.00    +0.014 A 
ATOM     31  C   UNL     1      -2.967   3.453   5.065  0.00  0.00    +0.049 A 
ATOM     32  C   UNL     1      -2.429   3.870   3.753  0.00  0.00    +0.254 C 
ATOM     33  O   UNL     1      -2.796   4.833   3.111  0.00  0.00    -0.270 OA
ENDBRANCH  22  23
ENDBRANCH   2  22
TORSDOF 4
