REMARK  Name = ZINC21320698
REMARK  10 active torsions:
REMARK  status: ('A' for Active; 'I' for Inactive)
REMARK    1  A    between atoms: C_1  and  C_2
REMARK    2  A    between atoms: C_2  and  N_3
REMARK    3  A    between atoms: N_3  and  C_4
REMARK    4  A    between atoms: N_3  and  C_6
REMARK    5  A    between atoms: C_4  and  C_5
REMARK    6  A    between atoms: C_9  and  S_26
REMARK    7  A    between atoms: C_11  and  N_12
REMARK    8  A    between atoms: C_13  and  C_15
REMARK    9  A    between atoms: C_19  and  C_25
REMARK   10  A    between atoms: S_26  and  N_29
REMARK                            x       y       z     vdW  Elec       q    Type
REMARK                         _______ _______ _______ _____ _____    ______ ____
ROOT
ATOM      1  C   UNL     1       2.100  -0.701   1.127  0.00  0.00    +0.051 A 
ATOM      2  C   UNL     1       2.979   0.323   1.448  0.00  0.00    +0.027 A 
ATOM      3  C   UNL     1       4.343   0.107   1.391  0.00  0.00    +0.030 A 
ATOM      4  C   UNL     1       4.836  -1.129   1.015  0.00  0.00    +0.107 A 
ATOM      5  C   UNL     1       3.968  -2.155   0.693  0.00  0.00    +0.053 A 
ATOM      6  C   UNL     1       2.598  -1.949   0.752  0.00  0.00    +0.057 A 
ENDROOT
BRANCH   6   7
ATOM      7  N   UNL     1       1.716  -2.990   0.432  0.00  0.00    -0.282 N 
ATOM      8  C   UNL     1       2.113  -4.272   0.554  0.00  0.00    +0.239 C 
ATOM      9  O   UNL     1       3.197  -4.527   1.035  0.00  0.00    -0.273 OA
ATOM     10  H   UNL     1       0.819  -2.787   0.122  0.00  0.00    +0.155 HD
BRANCH   8  11
ATOM     11  C   UNL     1       1.211  -5.387   0.092  0.00  0.00    +0.173 C 
ATOM     12  C   UNL     1       0.903  -5.176  -1.409  0.00  0.00    +0.103 C 
ATOM     13  S   UNL     1       1.949  -6.510  -2.151  0.00  0.00    -0.133 S 
ATOM     14  C   UNL     1       1.858  -7.643  -0.703  0.00  0.00    +0.082 C 
ATOM     15  N   UNL     1       1.855  -6.665   0.414  0.00  0.00    -0.275 N 
ATOM     16  C   UNL     1       2.514  -7.236   1.458  0.00  0.00    +0.217 C 
ATOM     17  O   UNL     1       2.471  -6.838   2.603  0.00  0.00    -0.276 OA
ATOM     18  C   UNL     1       3.307  -8.435   0.992  0.00  0.00    +0.099 C 
ATOM     19  C   UNL     1       3.183  -8.404  -0.541  0.00  0.00    +0.046 C 
ATOM     20  C   UNL     1       0.637  -8.565  -0.735  0.00  0.00    +0.044 C 
ENDBRANCH   8  11
ENDBRANCH   6   7
BRANCH   4  21
ATOM     21  S   UNL     1       6.576  -1.397   0.945  0.00  0.00    +0.061 S 
ATOM     22  O   UNL     1       6.786  -2.472   0.040  0.00  0.00    -0.153 OA
ATOM     23  O   UNL     1       7.176  -0.121   0.765  0.00  0.00    -0.153 OA
BRANCH  21  24
ATOM     24  N   UNL     1       7.049  -1.935   2.438  0.00  0.00    -0.177 NA
ATOM     25  C   UNL     1       7.455  -0.986   3.483  0.00  0.00    +0.109 C 
ATOM     26  C   UNL     1       6.631  -1.259   4.745  0.00  0.00    +0.017 C 
ATOM     27  C   UNL     1       6.783  -2.730   5.140  0.00  0.00    +0.003 C 
ATOM     28  C   UNL     1       6.251  -3.619   4.013  0.00  0.00    +0.017 C 
ATOM     29  C   UNL     1       7.065  -3.372   2.745  0.00  0.00    +0.109 C 
ENDBRANCH  21  24
ENDBRANCH   4  21
BRANCH   1  30
ATOM     30  N   UNL     1       0.720  -0.484   1.183  0.00  0.00    -0.329 N 
BRANCH  30  32
ATOM     31  C   UNL     1      -0.014   1.526  -0.000  0.00  0.00    +0.024 C 
ATOM     32  C   UNL     1       0.004  -0.003  -0.001  0.00  0.00    +0.102 C 
ENDBRANCH  30  32
BRANCH  30  33
ATOM     33  C   UNL     1      -0.011  -0.738   2.427  0.00  0.00    +0.102 C 
ATOM     34  C   UNL     1      -0.496  -2.189   2.447  0.00  0.00    +0.024 C 
ENDBRANCH  30  33
ENDBRANCH   1  30
TORSDOF 7
