REMARK  Name = ZINC65329864
REMARK  9 active torsions:
REMARK  status: ('A' for Active; 'I' for Inactive)
REMARK    1  A    between atoms: C_1  and  C_2
REMARK    2  A    between atoms: C_6  and  C_8
REMARK    3  A    between atoms: C_8  and  N_10
REMARK    4  A    between atoms: N_12  and  C_13
REMARK    5  A    between atoms: C_15  and  C_20
REMARK    6  A    between atoms: C_17  and  C_19
REMARK    7  A    between atoms: N_21  and  C_22
REMARK    8  A    between atoms: C_22  and  C_23
REMARK    9  A    between atoms: C_23  and  C_24
REMARK                            x       y       z     vdW  Elec       q    Type
REMARK                         _______ _______ _______ _____ _____    ______ ____
ROOT
ATOM      1  N   UNL     1       1.038  -4.219   2.807  0.00  0.00    -0.143 NA
ATOM      2  C   UNL     1       0.032  -4.662   3.545  0.00  0.00    +0.194 C 
ATOM      3  N   UNL     1      -0.403  -3.932   4.614  0.00  0.00    -0.328 N 
ATOM      4  N   UNL     1      -0.570  -5.846   3.237  0.00  0.00    -0.357 N 
ATOM      5  H   UNL     1      -0.725  -4.383   5.410  0.00  0.00    +0.169 HD
ATOM      6  H   UNL     1      -0.216  -6.399   2.522  0.00  0.00    +0.162 HD
ENDROOT
BRANCH   3   7
ATOM      7  C   UNL     1      -0.385  -2.535   4.561  0.00  0.00    +0.042 A 
ATOM      8  C   UNL     1      -0.320  -1.885   3.335  0.00  0.00    +0.029 A 
ATOM      9  C   UNL     1      -0.302  -0.505   3.287  0.00  0.00    -0.048 A 
ATOM     10  C   UNL     1      -0.350   0.230   4.457  0.00  0.00    +0.006 A 
ATOM     11  C   UNL     1      -0.414  -0.413   5.679  0.00  0.00    -0.048 A 
ATOM     12  C   UNL     1      -0.438  -1.793   5.734  0.00  0.00    +0.029 A 
ATOM     13  C   UNL     1      -0.465   0.392   6.952  0.00  0.00    +0.044 C 
ATOM     14  C   UNL     1      -0.231   0.200   1.957  0.00  0.00    +0.044 C 
ENDBRANCH   3   7
BRANCH   1  15
ATOM     15  C   UNL     1       1.904  -3.333   3.317  0.00  0.00    +0.270 C 
ATOM     16  O   UNL     1       1.845  -3.034   4.496  0.00  0.00    -0.268 OA
BRANCH  15  22
ATOM     17  C   UNL     1       5.622  -0.066   2.671  0.00  0.00    +0.044 C 
ATOM     18  C   UNL     1       4.722  -1.147   2.132  0.00  0.00    -0.050 A 
ATOM     19  C   UNL     1       4.856  -1.567   0.821  0.00  0.00    +0.003 A 
ATOM     20  C   UNL     1       4.033  -2.560   0.319  0.00  0.00    +0.001 A 
ATOM     21  C   UNL     1       3.073  -3.137   1.124  0.00  0.00    +0.013 A 
ATOM     22  C   UNL     1       2.933  -2.718   2.447  0.00  0.00    +0.039 A 
ATOM     23  C   UNL     1       3.769  -1.720   2.949  0.00  0.00    +0.016 A 
ENDBRANCH  15  22
ENDBRANCH   1  15
BRANCH   4  24
ATOM     24  C   UNL     1      -1.750  -6.285   3.987  0.00  0.00    +0.120 C 
BRANCH  24  25
ATOM     25  C   UNL     1      -2.158  -7.684   3.522  0.00  0.00    +0.054 C 
BRANCH  25  26
ATOM     26  C   UNL     1      -3.439  -8.087   4.206  0.00  0.00    -0.040 C 
ATOM     27  C   UNL     1      -4.695  -7.958   3.720  0.00  0.00    -0.001 A 
ATOM     28  C   UNL     1      -5.224  -7.424   2.460  0.00  0.00    +0.010 A 
ATOM     29  C   UNL     1      -6.561  -7.427   2.255  0.00  0.00    +0.001 A 
ATOM     30  C   UNL     1      -7.452  -7.927   3.215  0.00  0.00    +0.002 A 
ATOM     31  C   UNL     1      -7.042  -8.434   4.397  0.00  0.00    +0.026 A 
ATOM     32  C   UNL     1      -5.657  -8.480   4.717  0.00  0.00    +0.043 A 
ATOM     33  N   UNL     1      -5.020  -8.915   5.778  0.00  0.00    -0.380 N 
ATOM     34  C   UNL     1      -3.581  -8.723   5.571  0.00  0.00    +0.144 C 
ATOM     35  H   UNL     1      -5.432  -9.302   6.566  0.00  0.00    +0.160 HD
ENDBRANCH  25  26
ENDBRANCH  24  25
ENDBRANCH   4  24
TORSDOF 6
