REMARK  Name = ZINC19942282
REMARK  6 active torsions:
REMARK  status: ('A' for Active; 'I' for Inactive)
REMARK    1  A    between atoms: C_4  and  C_7
REMARK    2  A    between atoms: C_7  and  N_8
REMARK    3  A    between atoms: C_14  and  N_18
REMARK    4  A    between atoms: C_15  and  C_16
REMARK    5  A    between atoms: C_19  and  C_21
REMARK    6  A    between atoms: C_23  and  C_31
REMARK                            x       y       z     vdW  Elec       q    Type
REMARK                         _______ _______ _______ _____ _____    ______ ____
ROOT
ATOM      1  N   UNL     1       2.617   6.141  -7.417  0.00  0.00    -0.275 N 
ATOM      2  C   UNL     1       1.433   6.224  -8.055  0.00  0.00    +0.249 C 
ATOM      3  O   UNL     1       0.402   5.989  -7.456  0.00  0.00    -0.270 OA
ATOM      4  H   UNL     1       3.550   6.354  -7.958  0.00  0.00    +0.156 HD
ENDROOT
BRANCH   2   5
ATOM      5  C   UNL     1       1.389   6.599  -9.484  0.00  0.00    +0.048 A 
ATOM      6  C   UNL     1       2.534   6.986 -10.164  0.00  0.00    +0.042 A 
ATOM      7  C   UNL     1       2.446   7.330 -11.524  0.00  0.00    +0.079 A 
ATOM      8  N   UNL     1       1.303   7.309 -12.182  0.00  0.00    -0.246 NA
ATOM      9  C   UNL     1       0.154   6.955 -11.604  0.00  0.00    +0.072 A 
ATOM     10  C   UNL     1       0.133   6.584 -10.236  0.00  0.00    +0.013 A 
ATOM     11  C   UNL     1      -1.074   6.213  -9.635  0.00  0.00    +0.011 A 
ATOM     12  C   UNL     1      -2.222   6.212 -10.372  0.00  0.00    +0.001 A 
ATOM     13  C   UNL     1      -2.207   6.576 -11.716  0.00  0.00    +0.002 A 
ATOM     14  C   UNL     1      -1.050   6.942 -12.332  0.00  0.00    +0.028 A 
BRANCH   7  15
ATOM     15  C   UNL     1       3.673   7.735 -12.237  0.00  0.00    +0.038 A 
ATOM     16  C   UNL     1       3.827   8.107 -13.548  0.00  0.00    +0.017 A 
ATOM     17  C   UNL     1       5.082   8.450 -13.995  0.00  0.00    +0.008 A 
ATOM     18  C   UNL     1       6.130   8.399 -13.130  0.00  0.00    +0.046 A 
ATOM     19  S   UNL     1       5.344   7.858 -11.621  0.00  0.00    -0.095 S 
ENDBRANCH   7  15
ENDBRANCH   2   5
BRANCH   1  26
ATOM     20  N   UNL     1       2.855   4.180  -1.392  0.00  0.00    -0.293 NA
ATOM     21  C   UNL     1       3.989   5.114  -1.448  0.00  0.00    +0.090 C 
ATOM     22  C   UNL     1       4.635   5.075  -2.835  0.00  0.00    +0.052 C 
ATOM     23  C   UNL     1       3.538   5.269  -3.876  0.00  0.00    -0.015 A 
ATOM     24  C   UNL     1       2.241   5.084  -3.537  0.00  0.00    +0.010 A 
ATOM     25  S   UNL     1       1.337   5.412  -5.021  0.00  0.00    -0.076 S 
ATOM     26  C   UNL     1       2.659   5.789  -6.076  0.00  0.00    +0.090 A 
ATOM     27  C   UNL     1       3.770   5.652  -5.255  0.00  0.00    +0.084 A 
ATOM     28  C   UNL     1       1.723   4.686  -2.191  0.00  0.00    +0.127 C 
BRANCH  27  29
ATOM     29  C   UNL     1       5.093   5.881  -5.751  0.00  0.00    +0.102 C 
ATOM     30  N   UNL     1       6.144   6.062  -6.144  0.00  0.00    -0.191 NA
ENDBRANCH  27  29
BRANCH  20  31
ATOM     31  C   UNL     1       2.449   3.928  -0.003  0.00  0.00    +0.120 C 
BRANCH  31  35
ATOM     32  C   UNL     1      -1.246   1.784   0.027  0.00  0.00    +0.000 A 
ATOM     33  C   UNL     1      -0.048   1.096   0.014  0.00  0.00    +0.000 A 
ATOM     34  C   UNL     1       1.148   1.789   0.003  0.00  0.00    +0.005 A 
ATOM     35  C   UNL     1       1.145   3.172   0.010  0.00  0.00    -0.033 A 
ATOM     36  C   UNL     1      -0.053   3.860   0.028  0.00  0.00    +0.005 A 
ATOM     37  C   UNL     1      -1.249   3.167   0.039  0.00  0.00    +0.000 A 
ENDBRANCH  31  35
ENDBRANCH  20  31
ENDBRANCH   1  26
TORSDOF 6
