REMARK  Name = ZINC08045711
REMARK  11 active torsions:
REMARK  status: ('A' for Active; 'I' for Inactive)
REMARK    1  A    between atoms: C_1  and  C_2
REMARK    2  A    between atoms: C_3  and  C_30
REMARK    3  A    between atoms: C_11  and  C_13
REMARK    4  A    between atoms: C_13  and  C_14
REMARK    5  A    between atoms: N_16  and  N_17
REMARK    6  A    between atoms: C_18  and  C_19
REMARK    7  A    between atoms: C_22  and  N_25
REMARK    8  A    between atoms: N_25  and  C_26
REMARK    9  A    between atoms: N_25  and  C_27
REMARK   10  A    between atoms: C_27  and  C_28
REMARK   11  A    between atoms: C_28  and  O_29
REMARK                            x       y       z     vdW  Elec       q    Type
REMARK                         _______ _______ _______ _____ _____    ______ ____
ROOT
ATOM      1  C   UNL     1      -1.156  -0.694   0.009  0.00  0.00    +0.239 C 
ATOM      2  O   UNL     1      -2.215  -0.102   0.023  0.00  0.00    -0.274 OA
ATOM      3  N   UNL     1       0.002  -0.004   0.002  0.00  0.00    -0.207 N 
ATOM      4  H   UNL     1       0.849  -0.478  -0.009  0.00  0.00    +0.177 HD
ENDROOT
BRANCH   3   5
ATOM      5  N   UNL     1      -0.017   1.397   0.010  0.00  0.00    -0.188 NA
ATOM      6  C   UNL     1       1.098   2.061   0.003  0.00  0.00    +0.138 C 
BRANCH   6   7
ATOM      7  C   UNL     1       1.078   3.535   0.011  0.00  0.00    -0.005 A 
ATOM      8  C   UNL     1      -0.141   4.219   0.020  0.00  0.00    +0.011 A 
ATOM      9  C   UNL     1      -0.155   5.596   0.033  0.00  0.00    +0.024 A 
ATOM     10  C   UNL     1       1.041   6.306   0.025  0.00  0.00    +0.030 A 
ATOM     11  C   UNL     1       2.256   5.629   0.010  0.00  0.00    +0.024 A 
ATOM     12  C   UNL     1       2.278   4.252   0.003  0.00  0.00    +0.011 A 
BRANCH  10  13
ATOM     13  N   UNL     1       1.022   7.701   0.032  0.00  0.00    -0.331 N 
ATOM     14  C   UNL     1       2.280   8.450   0.023  0.00  0.00    +0.129 C 
BRANCH  13  15
ATOM     15  C   UNL     1      -0.257   8.416   0.047  0.00  0.00    +0.132 C 
BRANCH  15  16
ATOM     16  C   UNL     1      -0.688   8.658   1.495  0.00  0.00    +0.174 C 
BRANCH  16  17
ATOM     17  O   UNL     1       0.244   9.536   2.129  0.00  0.00    -0.393 OA
ATOM     18  H   UNL     1       0.033   9.734   3.052  0.00  0.00    +0.209 HD
ENDBRANCH  16  17
ENDBRANCH  15  16
ENDBRANCH  13  15
ENDBRANCH  10  13
ENDBRANCH   6   7
ENDBRANCH   3   5
BRANCH   1  19
ATOM     19  C   UNL     1      -1.135  -2.201   0.001  0.00  0.00    +0.171 C 
BRANCH  19  30
ATOM     20  C   UNL     1      -7.030  -5.395   0.040  0.00  0.00    +0.045 C 
ATOM     21  C   UNL     1      -6.548  -3.967   0.043  0.00  0.00    -0.026 A 
ATOM     22  C   UNL     1      -7.428  -2.953   0.057  0.00  0.00    -0.008 A 
ATOM     23  S   UNL     1      -6.389  -1.504   0.055  0.00  0.00    -0.073 S 
ATOM     24  C   UNL     1      -4.805  -2.303   0.036  0.00  0.00    +0.116 A 
ATOM     25  C   UNL     1      -5.128  -3.671   0.031  0.00  0.00    +0.075 A 
ATOM     26  C   UNL     1      -4.012  -4.571   0.016  0.00  0.00    +0.260 A 
ATOM     27  O   UNL     1      -4.189  -5.777   0.011  0.00  0.00    -0.267 OA
ATOM     28  N   UNL     1      -2.766  -4.063   0.001  0.00  0.00    -0.310 N 
ATOM     29  H   UNL     1      -1.983  -4.685  -0.018  0.00  0.00    +0.170 HD
ATOM     30  C   UNL     1      -2.549  -2.722   0.012  0.00  0.00    +0.120 A 
ATOM     31  N   UNL     1      -3.545  -1.877   0.026  0.00  0.00    -0.226 NA
ATOM     32  C   UNL     1      -8.934  -3.023   0.071  0.00  0.00    +0.052 C 
ENDBRANCH  19  30
ENDBRANCH   1  19
TORSDOF 8
