REMARK  Name = ZINC02809373
REMARK  8 active torsions:
REMARK  status: ('A' for Active; 'I' for Inactive)
REMARK    1  A    between atoms: C_1  and  C_2
REMARK    2  A    between atoms: C_4  and  C_31
REMARK    3  A    between atoms: N_5  and  C_7
REMARK    4  A    between atoms: C_7  and  C_8
REMARK    5  A    between atoms: C_8  and  C_10
REMARK    6  A    between atoms: C_8  and  C_11
REMARK    7  A    between atoms: N_20  and  C_22
REMARK    8  A    between atoms: C_22  and  C_23
REMARK                            x       y       z     vdW  Elec       q    Type
REMARK                         _______ _______ _______ _____ _____    ______ ____
ROOT
ATOM      1  C   UNL     1       0.000   1.080   2.488  0.00  0.00    +0.108 A 
ATOM      2  N   UNL     1       0.252  -0.153   2.878  0.00  0.00    -0.144 NA
ATOM      3  N   UNL     1       0.883  -0.406   3.941  0.00  0.00    -0.126 NA
ATOM      4  C   UNL     1       1.333   0.558   4.733  0.00  0.00    +0.187 A 
ATOM      5  S   UNL     1       0.778   1.993   3.817  0.00  0.00    -0.035 S 
ATOM      6  N   UNL     1       2.039   0.478   5.925  0.00  0.00    -0.276 N 
ATOM      7  C   UNL     1       2.374  -0.773   6.457  0.00  0.00    +0.146 A 
ATOM      8  C   UNL     1       2.062  -2.020   5.892  0.00  0.00    +0.065 A 
ATOM      9  C   UNL     1       2.559  -2.980   6.705  0.00  0.00    +0.110 A 
ATOM     10  N   UNL     1       3.163  -2.369   7.746  0.00  0.00    -0.265 N 
ATOM     11  N   UNL     1       3.041  -0.985   7.567  0.00  0.00    -0.156 NA
ATOM     12  H   UNL     1       2.334   1.397   6.452  0.00  0.00    +0.156 HD
ENDROOT
BRANCH   1  13
ATOM     13  C   UNL     1      -0.729   1.579   1.267  0.00  0.00    +0.065 C 
ATOM     14  C   UNL     1      -0.013   1.086   0.008  0.00  0.00    +0.016 C 
BRANCH  13  15
ATOM     15  C   UNL     1      -2.164   1.050   1.278  0.00  0.00    +0.153 C 
BRANCH  15  20
ATOM     16  C   UNL     1      -4.123   1.687  -3.300  0.00  0.00    +0.069 C 
ATOM     17  C   UNL     1      -3.754   1.889  -1.853  0.00  0.00    +0.078 A 
ATOM     18  C   UNL     1      -4.147   2.964  -1.048  0.00  0.00    +0.084 A 
ATOM     19  C   UNL     1      -3.618   2.778   0.184  0.00  0.00    +0.055 A 
ATOM     20  N   UNL     1      -2.907   1.630   0.156  0.00  0.00    -0.266 N 
ATOM     21  N   UNL     1      -3.011   1.089  -1.132  0.00  0.00    -0.175 NA
ATOM     22  C   UNL     1      -3.789   3.689   1.371  0.00  0.00    +0.067 C 
ATOM     23 CL   UNL     1      -5.143   4.298  -1.541  0.00  0.00    -0.080 Cl
ENDBRANCH  15  20
ENDBRANCH  13  15
ENDBRANCH   1  13
BRANCH  10  24
ATOM     24  C   UNL     1       3.835  -3.036   8.864  0.00  0.00    +0.183 C 
BRANCH  24  25
ATOM     25  C   UNL     1       5.247  -2.522   8.980  0.00  0.00    +0.027 A 
ATOM     26  C   UNL     1       5.520  -1.422   9.776  0.00  0.00    +0.130 A 
ATOM     27  C   UNL     1       6.818  -0.952   9.882  0.00  0.00    +0.039 A 
ATOM     28  C   UNL     1       7.840  -1.580   9.195  0.00  0.00    +0.004 A 
ATOM     29  C   UNL     1       7.567  -2.678   8.402  0.00  0.00    +0.020 A 
ATOM     30  C   UNL     1       6.271  -3.153   8.298  0.00  0.00    +0.049 A 
ATOM     31 CL   UNL     1       5.931  -4.537   7.306  0.00  0.00    -0.083 Cl
ATOM     32  F   UNL     1       4.521  -0.809  10.447  0.00  0.00    -0.205 F 
ENDBRANCH  24  25
ENDBRANCH  10  24
TORSDOF 5
