REMARK  Name = ZINC00933341
REMARK  9 active torsions:
REMARK  status: ('A' for Active; 'I' for Inactive)
REMARK    1  A    between atoms: C_3  and  C_6
REMARK    2  A    between atoms: C_6  and  N_7
REMARK    3  A    between atoms: N_7  and  C_8
REMARK    4  A    between atoms: N_7  and  S_18
REMARK    5  A    between atoms: C_8  and  C_9
REMARK    6  A    between atoms: S_18  and  C_21
REMARK    7  A    between atoms: C_24  and  S_27
REMARK    8  A    between atoms: S_27  and  N_30
REMARK    9  A    between atoms: N_30  and  C_31
REMARK                            x       y       z     vdW  Elec       q    Type
REMARK                         _______ _______ _______ _____ _____    ______ ____
ROOT
ATOM      1  S   UNL     1       6.841   0.239   0.554  0.00  0.00    +0.061 S 
ATOM      2  O   UNL     1       7.051   0.179  -0.850  0.00  0.00    -0.153 OA
ATOM      3  O   UNL     1       6.067   1.261   1.165  0.00  0.00    -0.153 OA
ENDROOT
BRANCH   1   4
ATOM      4  C   UNL     1       8.436   0.301   1.300  0.00  0.00    +0.106 A 
ATOM      5  C   UNL     1       8.610   0.952   2.507  0.00  0.00    +0.030 A 
ATOM      6  C   UNL     1       9.860   0.997   3.094  0.00  0.00    +0.030 A 
ATOM      7  C   UNL     1      10.939   0.399   2.470  0.00  0.00    +0.105 A 
ATOM      8  C   UNL     1      10.766  -0.247   1.260  0.00  0.00    +0.030 A 
ATOM      9  C   UNL     1       9.515  -0.296   0.675  0.00  0.00    +0.030 A 
BRANCH   7  10
ATOM     10  S   UNL     1      12.534   0.460   3.216  0.00  0.00    +0.059 S 
ATOM     11  O   UNL     1      12.324   0.651   4.609  0.00  0.00    -0.153 OA
ATOM     12  O   UNL     1      13.266  -0.643   2.701  0.00  0.00    -0.153 OA
BRANCH  10  13
ATOM     13  N   UNL     1      13.283   1.828   2.659  0.00  0.00    -0.187 NA
ATOM     14  H   UNL     1      14.077   1.755   2.107  0.00  0.00    +0.148 HD
BRANCH  13  15
ATOM     15  C   UNL     1      12.746   3.148   2.999  0.00  0.00    +0.077 C 
ATOM     16  C   UNL     1      11.829   3.631   1.874  0.00  0.00    +0.020 C 
ATOM     17  C   UNL     1      11.269   5.010   2.229  0.00  0.00    +0.002 C 
ATOM     18  C   UNL     1      12.422   5.999   2.409  0.00  0.00    +0.000 C 
ATOM     19  C   UNL     1      13.339   5.515   3.534  0.00  0.00    +0.002 C 
ATOM     20  C   UNL     1      13.899   4.137   3.178  0.00  0.00    +0.020 C 
ENDBRANCH  13  15
ENDBRANCH  10  13
ENDBRANCH   7  10
ENDBRANCH   1   4
BRANCH   1  21
ATOM     21  N   UNL     1       6.152  -1.202   0.991  0.00  0.00    -0.167 NA
BRANCH  21  22
ATOM     22  C   UNL     1       6.416  -2.409   0.203  0.00  0.00    +0.152 C 
BRANCH  22  25
ATOM     23  C   UNL     1       4.125  -2.522  -2.838  0.00  0.00    +0.008 A 
ATOM     24  C   UNL     1       5.256  -2.227  -2.099  0.00  0.00    +0.012 A 
ATOM     25  C   UNL     1       5.309  -2.607  -0.799  0.00  0.00    +0.005 A 
ATOM     26  S   UNL     1       3.722  -3.397  -0.580  0.00  0.00    -0.100 S 
ATOM     27  C   UNL     1       3.099  -3.174  -2.238  0.00  0.00    +0.045 A 
ENDBRANCH  22  25
ENDBRANCH  21  22
BRANCH  21  28
ATOM     28  C   UNL     1       5.278  -1.270   2.164  0.00  0.00    +0.145 C 
BRANCH  28  29
ATOM     29  C   UNL     1       6.078  -1.714   3.362  0.00  0.00    -0.028 A 
ATOM     30  C   UNL     1       6.636  -0.773   4.206  0.00  0.00    +0.009 A 
ATOM     31  C   UNL     1       7.372  -1.175   5.306  0.00  0.00    +0.050 A 
ATOM     32  C   UNL     1       7.551  -2.525   5.563  0.00  0.00    +0.166 A 
ATOM     33  C   UNL     1       6.989  -3.473   4.712  0.00  0.00    +0.167 A 
ATOM     34  C   UNL     1       6.254  -3.062   3.612  0.00  0.00    +0.054 A 
ATOM     35  O   UNL     1       7.305  -4.717   5.176  0.00  0.00    -0.453 OA
ATOM     36  C   UNL     1       7.720  -4.525   6.542  0.00  0.00    +0.466 C 
ATOM     37  O   UNL     1       8.220  -3.175   6.560  0.00  0.00    -0.453 OA
ENDBRANCH  28  29
ENDBRANCH  21  28
ENDBRANCH   1  21
TORSDOF 9
