REMARK  Name = ZINC32536686
REMARK  10 active torsions:
REMARK  status: ('A' for Active; 'I' for Inactive)
REMARK    1  A    between atoms: C_1  and  C_2
REMARK    2  A    between atoms: C_5  and  C_8
REMARK    3  A    between atoms: C_8  and  N_9
REMARK    4  A    between atoms: N_9  and  C_10
REMARK    5  A    between atoms: C_17  and  S_19
REMARK    6  A    between atoms: S_19  and  C_22
REMARK    7  A    between atoms: C_24  and  C_31
REMARK    8  A    between atoms: C_25  and  O_29
REMARK    9  A    between atoms: C_27  and  C_28
REMARK   10  A    between atoms: O_29  and  C_30
REMARK                            x       y       z     vdW  Elec       q    Type
REMARK                         _______ _______ _______ _____ _____    ______ ____
ROOT
ATOM      1  C   UNL     1      -0.651   1.654   2.671  0.00  0.00    -0.024 C 
ATOM      2  C   UNL     1      -1.671   1.278   3.764  0.00  0.00    +0.152 C 
ATOM      3  S   UNL     1      -3.242   1.081   2.825  0.00  0.00    -0.031 S 
ATOM      4  O   UNL     1      -3.855  -0.147   3.192  0.00  0.00    -0.174 OA
ATOM      5  O   UNL     1      -3.986   2.290   2.901  0.00  0.00    -0.174 OA
ATOM      6  C   UNL     1      -2.519   0.917   1.134  0.00  0.00    +0.190 C 
ATOM      7  C   UNL     1      -1.279   1.841   1.291  0.00  0.00    +0.144 C 
ENDROOT
BRANCH   1   8
ATOM      8  N   UNL     1       0.016   2.904   3.059  0.00  0.00    +0.386 N 
ATOM      9  H   UNL     1      -0.729   3.575   3.510  0.00  0.00    -0.085 HD
ATOM     10  H   UNL     1       0.435   3.374   2.157  0.00  0.00    -0.085 HD
BRANCH   8  11
ATOM     11  C   UNL     1       1.093   2.648   4.024  0.00  0.00    -0.046 C 
BRANCH  11  16
ATOM     12  C   UNL     1       3.621   7.644   5.456  0.00  0.00    +0.044 C 
ATOM     13  C   UNL     1       2.962   6.340   5.083  0.00  0.00    -0.050 A 
ATOM     14  C   UNL     1       1.884   5.877   5.813  0.00  0.00    +0.003 A 
ATOM     15  C   UNL     1       1.279   4.682   5.470  0.00  0.00    +0.002 A 
ATOM     16  C   UNL     1       1.753   3.951   4.397  0.00  0.00    -0.064 A 
ATOM     17  C   UNL     1       2.834   4.412   3.670  0.00  0.00    +0.002 A 
ATOM     18  C   UNL     1       3.436   5.609   4.010  0.00  0.00    +0.003 A 
ENDBRANCH  11  16
ENDBRANCH   8  11
ENDBRANCH   1   8
BRANCH   7  19
ATOM     19  S   UNL     1      -0.058   1.430   0.014  0.00  0.00    +0.000 S 
ATOM     20  O   UNL     1       0.225   0.037   0.039  0.00  0.00    -0.169 OA
ATOM     21  O   UNL     1       0.995   2.384   0.018  0.00  0.00    -0.169 OA
BRANCH  19  22
ATOM     22  C   UNL     1      -0.895   1.691  -1.514  0.00  0.00    +0.092 A 
ATOM     23  C   UNL     1      -1.206   0.613  -2.324  0.00  0.00    +0.034 A 
ATOM     24  C   UNL     1      -1.867   0.815  -3.520  0.00  0.00    -0.007 A 
ATOM     25  C   UNL     1      -2.209   2.100  -3.914  0.00  0.00    +0.123 A 
ATOM     26  C   UNL     1      -1.891   3.180  -3.103  0.00  0.00    +0.051 A 
ATOM     27  C   UNL     1      -1.235   2.972  -1.905  0.00  0.00    -0.022 A 
ATOM     28  C   UNL     1      -0.889   4.145  -1.023  0.00  0.00    +0.046 C 
ATOM     29  C   UNL     1      -2.210  -0.360  -4.399  0.00  0.00    +0.047 C 
BRANCH  25  30
ATOM     30  O   UNL     1      -2.855   2.302  -5.093  0.00  0.00    -0.495 OA
ATOM     31  C   UNL     1      -3.177   3.651  -5.434  0.00  0.00    +0.277 C 
ENDBRANCH  25  30
ENDBRANCH  19  22
ENDBRANCH   7  19
TORSDOF 6
