REMARK  Name = ZINC02268105
REMARK  5 active torsions:
REMARK  status: ('A' for Active; 'I' for Inactive)
REMARK    1  A    between atoms: C_1  and  C_2
REMARK    2  A    between atoms: C_5  and  N_29
REMARK    3  A    between atoms: C_14  and  C_16
REMARK    4  A    between atoms: C_21  and  N_25
REMARK    5  A    between atoms: N_29  and  C_30
REMARK                            x       y       z     vdW  Elec       q    Type
REMARK                         _______ _______ _______ _____ _____    ______ ____
ROOT
ATOM      1  C   UNL     1      -3.326  -2.426  -0.550  0.00  0.00    +0.028 C 
ATOM      2  C   UNL     1      -2.049  -3.194  -0.201  0.00  0.00    +0.081 C 
ATOM      3  C   UNL     1      -1.941  -4.453  -1.079  0.00  0.00    +0.049 C 
ATOM      4  C   UNL     1      -0.698  -5.237  -0.659  0.00  0.00    +0.104 C 
ATOM      5  C   UNL     1       0.510  -4.339  -0.637  0.00  0.00    -0.006 A 
ATOM      6  C   UNL     1       1.771  -4.910  -0.707  0.00  0.00    +0.007 A 
ATOM      7  C   UNL     1       2.899  -4.113  -0.684  0.00  0.00    +0.000 A 
ATOM      8  C   UNL     1       2.776  -2.738  -0.592  0.00  0.00    +0.002 A 
ATOM      9  C   UNL     1       1.524  -2.162  -0.524  0.00  0.00    +0.024 A 
ATOM     10  C   UNL     1       0.387  -2.962  -0.547  0.00  0.00    +0.042 A 
ATOM     11  N   UNL     1      -0.874  -2.357  -0.479  0.00  0.00    -0.264 N 
ATOM     12  C   UNL     1      -1.007  -1.028  -0.660  0.00  0.00    +0.259 C 
ATOM     13  O   UNL     1      -2.074  -0.487  -0.435  0.00  0.00    -0.269 OA
ENDROOT
BRANCH  12  14
ATOM     14  C   UNL     1       0.135  -0.233  -1.128  0.00  0.00    +0.094 A 
ATOM     15  C   UNL     1       0.633   0.922  -0.609  0.00  0.00    +0.068 A 
ATOM     16  C   UNL     1       1.748   1.537  -1.210  0.00  0.00    +0.008 A 
ATOM     17  C   UNL     1       2.408   2.732  -0.822  0.00  0.00    +0.013 A 
ATOM     18  C   UNL     1       3.479   3.191  -1.518  0.00  0.00    +0.033 A 
ATOM     19  C   UNL     1       3.970   2.516  -2.629  0.00  0.00    +0.127 A 
ATOM     20  C   UNL     1       3.359   1.349  -3.041  0.00  0.00    +0.048 A 
ATOM     21  C   UNL     1       2.270   0.871  -2.344  0.00  0.00    +0.024 A 
ATOM     22  S   UNL     1       1.211  -0.543  -2.517  0.00  0.00    -0.082 S 
ATOM     23 CL   UNL     1      -0.108   1.640   0.787  0.00  0.00    -0.082 Cl
BRANCH  19  24
ATOM     24  N   UNL     1       5.141   3.044  -3.365  0.00  0.00    +0.056 N 
ATOM     25  O   UNL     1       5.568   2.449  -4.338  0.00  0.00    -0.126 OA
ATOM     26  O   UNL     1       5.677   4.074  -2.998  0.00  0.00    -0.126 OA
ENDBRANCH  19  24
ENDBRANCH  12  14
BRANCH   4  27
ATOM     27  N   UNL     1      -0.472  -6.330  -1.609  0.00  0.00    -0.337 N 
ATOM     28  H   UNL     1      -0.796  -6.256  -2.520  0.00  0.00    +0.147 HD
BRANCH  27  29
ATOM     29  C   UNL     1       0.211  -7.479  -1.202  0.00  0.00    +0.028 A 
ATOM     30  C   UNL     1       0.681  -7.584   0.101  0.00  0.00    +0.023 A 
ATOM     31  C   UNL     1       1.352  -8.723   0.501  0.00  0.00    +0.002 A 
ATOM     32  C   UNL     1       1.564  -9.754  -0.396  0.00  0.00    +0.000 A 
ATOM     33  C   UNL     1       1.102  -9.650  -1.695  0.00  0.00    +0.002 A 
ATOM     34  C   UNL     1       0.426  -8.516  -2.101  0.00  0.00    +0.023 A 
ENDBRANCH  27  29
ENDBRANCH   4  27
TORSDOF 4
