REMARK  Name = ZINC03438492
REMARK  7 active torsions:
REMARK  status: ('A' for Active; 'I' for Inactive)
REMARK    1  A    between atoms: C_6  and  C_7
REMARK    2  A    between atoms: C_8  and  C_9
REMARK    3  A    between atoms: C_8  and  C_16
REMARK    4  A    between atoms: C_16  and  O_18
REMARK    5  A    between atoms: O_18  and  C_19
REMARK    6  A    between atoms: C_19  and  C_20
REMARK    7  A    between atoms: N_22  and  C_23
REMARK                            x       y       z     vdW  Elec       q    Type
REMARK                         _______ _______ _______ _____ _____    ______ ____
ROOT
ATOM      1  C   UNL     1      -3.760   0.840   0.026  0.00  0.00    +0.340 C 
ATOM      2  O   UNL     1      -3.500   1.960  -0.369  0.00  0.00    -0.245 OA
ENDROOT
BRANCH   1   4
ATOM      3  C   UNL     1      -6.158   1.352   0.064  0.00  0.00    +0.023 C 
ATOM      4  C   UNL     1      -5.157   0.455   0.276  0.00  0.00    +0.067 C 
BRANCH   3  10
ATOM      5  C   UNL     1      -7.935  -0.349  -0.298  0.00  0.00    +0.009 A 
ATOM      6  C   UNL     1      -9.252  -0.747  -0.208  0.00  0.00    +0.020 A 
ATOM      7  C   UNL     1     -10.204   0.112   0.317  0.00  0.00    +0.041 A 
ATOM      8  C   UNL     1      -9.841   1.374   0.759  0.00  0.00    +0.020 A 
ATOM      9  C   UNL     1      -8.528   1.784   0.680  0.00  0.00    +0.009 A 
ATOM     10  C   UNL     1      -7.560   0.922   0.152  0.00  0.00    -0.024 A 
ATOM     11 CL   UNL     1     -11.861  -0.396   0.420  0.00  0.00    -0.084 Cl
ENDBRANCH   3  10
BRANCH   4  12
ATOM     12  C   UNL     1      -5.474  -0.909   0.758  0.00  0.00    -0.011 A 
ATOM     13  C   UNL     1      -6.001  -1.094   2.036  0.00  0.00    +0.011 A 
ATOM     14  C   UNL     1      -6.300  -2.366   2.479  0.00  0.00    +0.039 A 
ATOM     15  C   UNL     1      -6.066  -3.459   1.661  0.00  0.00    +0.123 A 
ATOM     16  C   UNL     1      -5.538  -3.281   0.392  0.00  0.00    +0.039 A 
ATOM     17  C   UNL     1      -5.241  -2.013  -0.062  0.00  0.00    +0.011 A 
ATOM     18  F   UNL     1      -6.355  -4.703   2.101  0.00  0.00    -0.205 F 
ENDBRANCH   4  12
ENDBRANCH   1   4
BRANCH   1  19
ATOM     19  O   UNL     1      -2.768  -0.048   0.237  0.00  0.00    -0.452 OA
BRANCH  19  20
ATOM     20  C   UNL     1      -1.413   0.401  -0.030  0.00  0.00    +0.328 C 
BRANCH  20  21
ATOM     21  C   UNL     1      -0.447  -0.718   0.259  0.00  0.00    +0.255 C 
ATOM     22  O   UNL     1      -0.859  -1.789   0.652  0.00  0.00    -0.272 OA
ATOM     23  N   UNL     1       0.875  -0.531   0.076  0.00  0.00    -0.283 N 
ATOM     24  H   UNL     1       1.199   0.299  -0.306  0.00  0.00    +0.155 HD
BRANCH  23  25
ATOM     25  C   UNL     1       1.782  -1.536   0.439  0.00  0.00    +0.036 A 
ATOM     26  C   UNL     1       3.028  -1.194   0.953  0.00  0.00    +0.025 A 
ATOM     27  C   UNL     1       3.923  -2.179   1.318  0.00  0.00    +0.029 A 
ATOM     28  C   UNL     1       3.584  -3.514   1.160  0.00  0.00    +0.067 A 
ATOM     29  C   UNL     1       2.336  -3.861   0.639  0.00  0.00    +0.069 A 
ATOM     30  C   UNL     1       1.437  -2.869   0.280  0.00  0.00    +0.051 A 
ATOM     31  N   UNL     1       2.287  -5.253   0.602  0.00  0.00    -0.306 N 
ATOM     32  H   UNL     1       1.541  -5.786   0.287  0.00  0.00    +0.170 HD
ATOM     33  C   UNL     1       3.452  -5.731   1.079  0.00  0.00    +0.325 A 
ATOM     34  O   UNL     1       3.735  -6.910   1.182  0.00  0.00    -0.247 OA
ATOM     35  N   UNL     1       4.256  -4.708   1.424  0.00  0.00    -0.306 N 
ATOM     36  H   UNL     1       5.149  -4.787   1.793  0.00  0.00    +0.170 HD
ENDBRANCH  23  25
ENDBRANCH  20  21
ENDBRANCH  19  20
ENDBRANCH   1  19
TORSDOF 7
