REMARK  Name = ZINC36554405
REMARK  8 active torsions:
REMARK  status: ('A' for Active; 'I' for Inactive)
REMARK    1  A    between atoms: C_3  and  C_8
REMARK    2  A    between atoms: C_5  and  O_7
REMARK    3  A    between atoms: C_8  and  C_10
REMARK    4  A    between atoms: C_8  and  N_19
REMARK    5  A    between atoms: N_12  and  C_13
REMARK    6  A    between atoms: N_19  and  C_20
REMARK    7  A    between atoms: C_27  and  C_29
REMARK    8  A    between atoms: C_32  and  N_35
REMARK                            x       y       z     vdW  Elec       q    Type
REMARK                         _______ _______ _______ _____ _____    ______ ____
ROOT
ATOM      1  C   UNL     1       3.456   2.997   0.443  0.00  0.00    +0.198 C 
ENDROOT
BRANCH   1   4
ATOM      2  C   UNL     1       0.130   4.410   1.538  0.00  0.00    +0.004 A 
ATOM      3  C   UNL     1       1.448   4.323   1.132  0.00  0.00    +0.006 A 
ATOM      4  C   UNL     1       2.019   3.088   0.886  0.00  0.00    -0.014 A 
ATOM      5  C   UNL     1       1.272   1.937   1.046  0.00  0.00    +0.051 A 
ATOM      6  C   UNL     1      -0.051   2.021   1.454  0.00  0.00    +0.117 A 
ATOM      7  C   UNL     1      -0.621   3.262   1.700  0.00  0.00    +0.045 A 
BRANCH   6   8
ATOM      8  O   UNL     1      -0.788   0.890   1.612  0.00  0.00    -0.507 OA
ATOM      9  H   UNL     1      -0.745   0.513   2.501  0.00  0.00    +0.292 HD
ENDBRANCH   6   8
ENDBRANCH   1   4
BRANCH   1  10
ATOM     10  C   UNL     1       4.329   3.755   1.410  0.00  0.00    +0.239 C 
ATOM     11  O   UNL     1       4.998   4.688   1.020  0.00  0.00    -0.273 OA
ATOM     12  N   UNL     1       4.365   3.396   2.709  0.00  0.00    -0.311 N 
ATOM     13  H   UNL     1       3.829   2.650   3.021  0.00  0.00    +0.149 HD
BRANCH  12  14
ATOM     14  C   UNL     1       5.213   4.133   3.649  0.00  0.00    +0.073 C 
ATOM     15  C   UNL     1       6.634   3.567   3.605  0.00  0.00    +0.022 C 
ATOM     16  C   UNL     1       7.520   4.337   4.587  0.00  0.00    +0.002 C 
ATOM     17  C   UNL     1       6.957   4.192   6.002  0.00  0.00    +0.000 C 
ATOM     18  C   UNL     1       5.536   4.758   6.046  0.00  0.00    +0.002 C 
ATOM     19  C   UNL     1       4.651   3.988   5.064  0.00  0.00    +0.022 C 
ENDBRANCH  12  14
ENDBRANCH   1  10
BRANCH   1  20
ATOM     20  N   UNL     1       3.592   3.577  -0.895  0.00  0.00    -0.251 N 
ATOM     21  C   UNL     1       4.809   3.669  -1.469  0.00  0.00    +0.252 C 
ATOM     22  O   UNL     1       4.907   4.004  -2.634  0.00  0.00    -0.270 OA
BRANCH  20  23
ATOM     23  C   UNL     1       2.461   4.035  -1.577  0.00  0.00    +0.039 A 
ATOM     24  C   UNL     1       2.258   5.398  -1.752  0.00  0.00    +0.023 A 
ATOM     25  C   UNL     1       1.140   5.848  -2.426  0.00  0.00    +0.003 A 
ATOM     26  C   UNL     1       0.222   4.943  -2.928  0.00  0.00    +0.020 A 
ATOM     27  C   UNL     1       0.421   3.584  -2.755  0.00  0.00    +0.043 A 
ATOM     28  C   UNL     1       1.541   3.128  -2.086  0.00  0.00    +0.043 A 
ATOM     29 CL   UNL     1      -0.734   2.452  -3.386  0.00  0.00    -0.083 Cl
ENDBRANCH  20  23
BRANCH  21  30
ATOM     30  C   UNL     1       6.022   3.363  -0.683  0.00  0.00    +0.037 A 
ATOM     31  C   UNL     1       5.933   2.574   0.465  0.00  0.00    +0.015 A 
ATOM     32  C   UNL     1       7.069   2.292   1.195  0.00  0.00    +0.033 A 
ATOM     33  C   UNL     1       8.296   2.790   0.791  0.00  0.00    +0.126 A 
ATOM     34  C   UNL     1       8.391   3.573  -0.346  0.00  0.00    +0.033 A 
ATOM     35  C   UNL     1       7.263   3.857  -1.088  0.00  0.00    +0.015 A 
BRANCH  33  36
ATOM     36  N   UNL     1       9.511   2.483   1.578  0.00  0.00    +0.056 N 
ATOM     37  O   UNL     1       9.431   1.800   2.572  0.00  0.00    -0.126 OA
ATOM     38  O   UNL     1      10.584   2.917   1.228  0.00  0.00    -0.126 OA
ENDBRANCH  33  36
ENDBRANCH  21  30
ENDBRANCH   1  20
TORSDOF 8
