REMARK  Name = ZINC65362873
REMARK  10 active torsions:
REMARK  status: ('A' for Active; 'I' for Inactive)
REMARK    1  A    between atoms: C_1  and  C_2
REMARK    2  A    between atoms: C_2  and  C_3
REMARK    3  A    between atoms: C_3  and  N_4
REMARK    4  A    between atoms: C_24  and  C_26
REMARK    5  A    between atoms: C_28  and  O_36
REMARK    6  A    between atoms: C_29  and  O_34
REMARK    7  A    between atoms: C_30  and  O_32
REMARK    8  A    between atoms: O_32  and  C_33
REMARK    9  A    between atoms: O_34  and  C_35
REMARK   10  A    between atoms: O_36  and  C_37
REMARK                            x       y       z     vdW  Elec       q    Type
REMARK                         _______ _______ _______ _____ _____    ______ ____
ROOT
ATOM      1  N   UNL     1       0.762  -1.976   1.234  0.00  0.00    -0.291 N 
ATOM      2  C   UNL     1      -0.311  -2.768   1.862  0.00  0.00    +0.203 C 
ATOM      3  C   UNL     1      -0.715  -3.872   0.908  0.00  0.00    +0.234 C 
ATOM      4  O   UNL     1      -1.880  -4.142   0.706  0.00  0.00    -0.274 OA
ATOM      5  N   UNL     1       0.299  -4.554   0.281  0.00  0.00    -0.279 N 
ATOM      6  C   UNL     1       1.640  -4.177   0.679  0.00  0.00    +0.167 C 
ATOM      7  C   UNL     1       1.773  -2.676   0.639  0.00  0.00    +0.237 C 
ATOM      8  O   UNL     1       2.719  -2.125   0.115  0.00  0.00    -0.274 OA
ATOM      9  C   UNL     1       2.803  -4.873   0.021  0.00  0.00    +0.065 C 
ATOM     10  C   UNL     1       2.315  -5.707  -1.131  0.00  0.00    -0.034 C 
ATOM     11  C   UNL     1       2.800  -5.915  -2.347  0.00  0.00    -0.001 A 
ATOM     12  C   UNL     1       4.027  -5.439  -3.008  0.00  0.00    +0.010 A 
ATOM     13  C   UNL     1       4.213  -5.846  -4.292  0.00  0.00    +0.001 A 
ATOM     14  C   UNL     1       3.314  -6.669  -4.976  0.00  0.00    +0.002 A 
ATOM     15  C   UNL     1       2.164  -7.157  -4.446  0.00  0.00    +0.026 A 
ATOM     16  C   UNL     1       1.860  -6.801  -3.099  0.00  0.00    +0.043 A 
ATOM     17  N   UNL     1       0.850  -7.130  -2.352  0.00  0.00    -0.375 N 
ATOM     18  C   UNL     1       1.027  -6.522  -1.027  0.00  0.00    +0.131 C 
ATOM     19  C   UNL     1      -0.085  -5.526  -0.732  0.00  0.00    +0.134 C 
ATOM     20  H   UNL     1       0.102  -7.684  -2.624  0.00  0.00    +0.160 HD
ENDROOT
BRANCH  19  21
ATOM     21  C   UNL     1      -0.395  -4.801  -2.016  0.00  0.00    -0.018 A 
ATOM     22  C   UNL     1       0.395  -3.739  -2.415  0.00  0.00    +0.055 A 
ATOM     23  C   UNL     1       0.113  -3.069  -3.596  0.00  0.00    +0.165 A 
ATOM     24  C   UNL     1      -0.965  -3.467  -4.378  0.00  0.00    +0.204 A 
ATOM     25  C   UNL     1      -1.756  -4.535  -3.973  0.00  0.00    +0.165 A 
ATOM     26  C   UNL     1      -1.464  -5.203  -2.794  0.00  0.00    +0.055 A 
BRANCH  25  27
ATOM     27  O   UNL     1      -2.812  -4.928  -4.735  0.00  0.00    -0.491 OA
ATOM     28  C   UNL     1      -3.581  -6.034  -4.257  0.00  0.00    +0.277 C 
ENDBRANCH  25  27
BRANCH  24  29
ATOM     29  O   UNL     1      -1.246  -2.811  -5.538  0.00  0.00    -0.488 OA
ATOM     30  C   UNL     1      -0.622  -3.300  -6.727  0.00  0.00    +0.277 C 
ENDBRANCH  24  29
BRANCH  23  31
ATOM     31  O   UNL     1       0.889  -2.024  -3.988  0.00  0.00    -0.491 OA
ATOM     32  C   UNL     1       1.980  -1.670  -3.135  0.00  0.00    +0.277 C 
ENDBRANCH  23  31
ENDBRANCH  19  21
BRANCH   1  33
ATOM     33  C   UNL     1       0.742  -0.511   1.242  0.00  0.00    +0.108 C 
BRANCH  33  35
ATOM     34  C   UNL     1      -0.019   1.526   0.010  0.00  0.00    +0.005 C 
ATOM     35  C   UNL     1       0.002  -0.004   0.002  0.00  0.00    +0.016 C 
ENDBRANCH  33  35
ENDBRANCH   1  33
TORSDOF 6
