REMARK  Name = ZINC44019378
REMARK  3 active torsions:
REMARK  status: ('A' for Active; 'I' for Inactive)
REMARK    1  A    between atoms: C_1  and  C_2
REMARK    2  A    between atoms: C_25  and  C_26
REMARK    3  A    between atoms: C_26  and  O_27
REMARK                            x       y       z     vdW  Elec       q    Type
REMARK                         _______ _______ _______ _____ _____    ______ ____
ROOT
ATOM      1  C   UNL     1      -0.225   1.360  -0.634  0.00  0.00    +0.017 C 
ATOM      2  C   UNL     1      -0.122  -0.146  -0.376  0.00  0.00    +0.025 C 
ATOM      3  C   UNL     1       0.477  -0.891  -1.567  0.00  0.00    +0.012 C 
ATOM      4  C   UNL     1       1.975  -0.693  -1.704  0.00  0.00    +0.005 C 
ATOM      5  C   UNL     1       2.727  -1.038  -0.429  0.00  0.00    +0.005 C 
ATOM      6  C   UNL     1       2.139  -0.327   0.764  0.00  0.00    -0.003 C 
ATOM      7  C   UNL     1       0.655  -0.457   0.919  0.00  0.00    +0.004 C 
ATOM      8  C   UNL     1       0.158  -1.853   1.326  0.00  0.00    +0.010 C 
ATOM      9  C   UNL     1      -1.360  -1.792   1.010  0.00  0.00    +0.066 C 
ATOM     10  C   UNL     1      -1.513  -0.771  -0.122  0.00  0.00    +0.176 C 
ATOM     11  O   UNL     1      -2.456   0.250   0.236  0.00  0.00    -0.346 OA
ATOM     12  C   UNL     1      -3.736  -0.362  -0.069  0.00  0.00    +0.191 C 
ATOM     13  C   UNL     1      -3.430  -1.210  -1.322  0.00  0.00    +0.191 C 
ATOM     14  O   UNL     1      -2.002  -1.395  -1.312  0.00  0.00    -0.346 OA
ATOM     15  C   UNL     1       2.925  -0.648   2.030  0.00  0.00    +0.008 C 
ATOM     16  C   UNL     1       2.846  -2.129   2.362  0.00  0.00    +0.031 C 
ATOM     17  C   UNL     1       3.006  -3.001   1.150  0.00  0.00    -0.060 C 
ATOM     18  C   UNL     1       3.169  -4.296   1.374  0.00  0.00    +0.037 C 
ATOM     19  C   UNL     1       3.307  -5.265   0.232  0.00  0.00    +0.190 C 
ATOM     20  C   UNL     1       2.443  -4.889  -0.958  0.00  0.00    +0.070 C 
ATOM     21  C   UNL     1       2.214  -3.403  -1.168  0.00  0.00    +0.019 C 
ATOM     22  C   UNL     1       3.017  -2.504  -0.254  0.00  0.00    +0.018 C 
ATOM     23  O   UNL     1       4.684  -5.376  -0.161  0.00  0.00    -0.343 OA
ATOM     24  C   UNL     1       5.219  -6.458   0.638  0.00  0.00    +0.191 C 
ATOM     25  C   UNL     1       4.019  -7.438   0.667  0.00  0.00    +0.191 C 
ATOM     26  O   UNL     1       2.879  -6.562   0.705  0.00  0.00    -0.343 OA
ENDROOT
BRANCH  22  27
ATOM     27  C   UNL     1       4.476  -2.620  -0.729  0.00  0.00    +0.167 C 
BRANCH  27  28
ATOM     28  O   UNL     1       4.593  -2.076  -2.045  0.00  0.00    -0.394 OA
ATOM     29  H   UNL     1       5.471  -2.180  -2.436  0.00  0.00    +0.209 HD
ENDBRANCH  27  28
ENDBRANCH  22  27
TORSDOF 2
