REMARK  Name = ZINC15859052
REMARK  4 active torsions:
REMARK  status: ('A' for Active; 'I' for Inactive)
REMARK    1  A    between atoms: C_1  and  C_2
REMARK    2  A    between atoms: C_15  and  C_17
REMARK    3  A    between atoms: C_17  and  O_18
REMARK    4  A    between atoms: O_18  and  C_19
REMARK                            x       y       z     vdW  Elec       q    Type
REMARK                         _______ _______ _______ _____ _____    ______ ____
ROOT
ATOM      1  C   UNL     1       1.881   6.294  -2.924  0.00  0.00    +0.019 C 
ATOM      2  C   UNL     1       1.452   5.265  -1.876  0.00  0.00    +0.090 C 
ATOM      3  C   UNL     1       2.695   4.586  -1.298  0.00  0.00    +0.126 C 
ATOM      4  N   UNL     1       2.352   3.898  -0.053  0.00  0.00    -0.266 N 
ATOM      5  C   UNL     1       1.157   3.166   0.007  0.00  0.00    +0.058 A 
ATOM      6  C   UNL     1       1.177   1.781   0.000  0.00  0.00    +0.025 A 
ATOM      7  C   UNL     1      -0.013   1.076   0.008  0.00  0.00    +0.002 A 
ATOM      8  C   UNL     1      -1.221   1.748   0.017  0.00  0.00    +0.002 A 
ATOM      9  C   UNL     1      -1.249   3.131   0.040  0.00  0.00    +0.025 A 
ATOM     10  C   UNL     1      -0.062   3.844   0.041  0.00  0.00    +0.055 A 
ATOM     11  N   UNL     1      -0.065   5.243   0.086  0.00  0.00    -0.284 N 
ATOM     12  C   UNL     1       0.684   5.957  -0.781  0.00  0.00    +0.222 C 
ATOM     13  O   UNL     1       0.739   7.165  -0.678  0.00  0.00    -0.275 OA
ATOM     14  C   UNL     1       3.169   3.967   1.017  0.00  0.00    +0.257 C 
ATOM     15  O   UNL     1       4.199   4.603   0.953  0.00  0.00    -0.272 OA
ATOM     16  H   UNL     1      -0.609   5.702   0.745  0.00  0.00    +0.155 HD
ENDROOT
BRANCH  14  17
ATOM     17  C   UNL     1       2.802   3.253   2.292  0.00  0.00    +0.325 C 
BRANCH  17  18
ATOM     18  O   UNL     1       3.819   3.476   3.272  0.00  0.00    -0.482 OA
BRANCH  18  19
ATOM     19  C   UNL     1       3.641   2.897   4.488  0.00  0.00    +0.129 A 
ATOM     20  C   UNL     1       2.526   2.147   4.736  0.00  0.00    +0.046 A 
ATOM     21  C   UNL     1       2.332   1.543   5.975  0.00  0.00    +0.004 A 
ATOM     22  C   UNL     1       3.239   1.692   6.979  0.00  0.00    +0.009 A 
ATOM     23  C   UNL     1       4.396   2.461   6.766  0.00  0.00    -0.014 A 
ATOM     24  C   UNL     1       4.601   3.072   5.504  0.00  0.00    +0.024 A 
ATOM     25  C   UNL     1       5.758   3.840   5.291  0.00  0.00    +0.012 A 
ATOM     26  C   UNL     1       6.664   3.987   6.296  0.00  0.00    +0.001 A 
ATOM     27  C   UNL     1       6.462   3.386   7.537  0.00  0.00    +0.001 A 
ATOM     28  C   UNL     1       5.354   2.635   7.780  0.00  0.00    +0.008 A 
ENDBRANCH  18  19
ENDBRANCH  17  18
ENDBRANCH  14  17
TORSDOF 3
