REMARK  Name = ZINC39760402
REMARK  9 active torsions:
REMARK  status: ('A' for Active; 'I' for Inactive)
REMARK    1  A    between atoms: C_1  and  C_2
REMARK    2  A    between atoms: C_2  and  C_3
REMARK    3  A    between atoms: C_2  and  C_4
REMARK    4  A    between atoms: C_2  and  N_5
REMARK    5  A    between atoms: C_6  and  C_8
REMARK    6  A    between atoms: C_8  and  S_9
REMARK    7  A    between atoms: S_9  and  C_10
REMARK    8  A    between atoms: C_14  and  C_19
REMARK    9  A    between atoms: N_15  and  C_16
REMARK                            x       y       z     vdW  Elec       q    Type
REMARK                         _______ _______ _______ _____ _____    ______ ____
ROOT
ATOM      1  C   UNL     1       5.128  -0.640  -4.268  0.00  0.00    +0.237 C 
ATOM      2  N   UNL     1       5.169  -2.107  -4.385  0.00  0.00    -0.237 N 
ATOM      3  N   UNL     1       4.236  -2.454  -5.368  0.00  0.00    -0.169 NA
ATOM      4  C   UNL     1       3.644  -1.396  -5.855  0.00  0.00    +0.147 C 
ATOM      5  N   UNL     1       4.116  -0.224  -5.253  0.00  0.00    -0.282 N 
ATOM      6  H   UNL     1       5.732  -2.714  -3.879  0.00  0.00    +0.171 HD
ENDROOT
BRANCH   4   7
ATOM      7  C   UNL     1       2.661  -1.430  -6.857  0.00  0.00    +0.022 C 
ATOM      8  C   UNL     1       2.077  -2.561  -7.428  0.00  0.00    +0.006 A 
ATOM      9  C   UNL     1       2.262  -3.943  -7.209  0.00  0.00    +0.010 A 
ATOM     10  C   UNL     1       1.539  -4.841  -7.926  0.00  0.00    +0.001 A 
ATOM     11  C   UNL     1       0.608  -4.433  -8.883  0.00  0.00    +0.002 A 
ATOM     12  C   UNL     1       0.380  -3.122  -9.146  0.00  0.00    +0.026 A 
ATOM     13  C   UNL     1       1.097  -2.125  -8.436  0.00  0.00    +0.043 A 
ATOM     14  N   UNL     1       1.059  -0.809  -8.503  0.00  0.00    -0.380 N 
ATOM     15  C   UNL     1       2.009  -0.247  -7.538  0.00  0.00    +0.152 C 
ATOM     16  H   UNL     1       0.489  -0.293  -9.095  0.00  0.00    +0.160 HD
ENDBRANCH   4   7
BRANCH   5  17
ATOM     17  C   UNL     1       3.688   1.147  -5.542  0.00  0.00    +0.078 C 
ATOM     18  C   UNL     1       4.416   2.282  -4.819  0.00  0.00    +0.024 C 
ATOM     19  C   UNL     1       2.983   1.918  -4.425  0.00  0.00    +0.024 C 
ENDBRANCH   5  17
BRANCH   1  20
ATOM     20  S   UNL     1       4.626  -0.150  -2.596  0.00  0.00    -0.109 S 
BRANCH  20  21
ATOM     21  C   UNL     1       3.023  -0.965  -2.362  0.00  0.00    +0.168 C 
BRANCH  21  23
ATOM     22  N   UNL     1       1.299  -1.136  -0.596  0.00  0.00    -0.310 N 
ATOM     23  C   UNL     1       2.487  -0.636  -0.993  0.00  0.00    +0.223 C 
ATOM     24  O   UNL     1       3.123   0.078  -0.247  0.00  0.00    -0.275 OA
ATOM     25  H   UNL     1       0.790  -1.707  -1.191  0.00  0.00    +0.149 HD
BRANCH  22  27
ATOM     26  C   UNL     1       0.604   0.699   0.864  0.00  0.00    +0.031 C 
ATOM     27  C   UNL     1       0.778  -0.816   0.736  0.00  0.00    +0.026 C 
ATOM     28  C   UNL     1       1.761  -1.308   1.800  0.00  0.00    +0.031 C 
ATOM     29  C   UNL     1      -0.574  -1.504   0.933  0.00  0.00    +0.031 C 
ENDBRANCH  22  27
ENDBRANCH  21  23
ENDBRANCH  20  21
ENDBRANCH   1  20
TORSDOF 6
