REMARK  Name = ZINC43746351
REMARK  7 active torsions:
REMARK  status: ('A' for Active; 'I' for Inactive)
REMARK    1  A    between atoms: C_1  and  C_2
REMARK    2  A    between atoms: C_18  and  C_20
REMARK    3  A    between atoms: C_20  and  N_21
REMARK    4  A    between atoms: C_25  and  C_27
REMARK    5  A    between atoms: C_27  and  C_28
REMARK    6  A    between atoms: C_27  and  C_34
REMARK    7  A    between atoms: C_27  and  O_40
REMARK                            x       y       z     vdW  Elec       q    Type
REMARK                         _______ _______ _______ _____ _____    ______ ____
ROOT
ATOM      1  N   UNL     1      -2.007  -4.462   3.989  0.00  0.00    +0.384 N 
ATOM      2  C   UNL     1      -0.883  -5.388   3.734  0.00  0.00    -0.078 C 
ATOM      3  C   UNL     1       0.073  -5.191   4.937  0.00  0.00    -0.020 C 
ATOM      4  C   UNL     1      -0.930  -4.986   6.103  0.00  0.00    -0.014 C 
ATOM      5  C   UNL     1      -2.080  -4.201   5.439  0.00  0.00    -0.027 C 
ATOM      6  H   UNL     1      -2.869  -4.883   3.676  0.00  0.00    -0.081 HD
ENDROOT
BRANCH   1   7
ATOM      7  C   UNL     1      -1.782  -3.201   3.270  0.00  0.00    -0.063 C 
BRANCH   7  22
ATOM      8  C   UNL     1      -0.556  -1.683  -2.250  0.00  0.00    +0.011 C 
ATOM      9  C   UNL     1      -0.718  -3.094  -1.681  0.00  0.00    -0.023 C 
ATOM     10  C   UNL     1      -0.369  -4.124  -2.754  0.00  0.00    +0.007 C 
ATOM     11  C   UNL     1       1.053  -3.883  -3.262  0.00  0.00    +0.003 C 
ATOM     12  C   UNL     1       2.046  -4.086  -2.114  0.00  0.00    +0.037 C 
ATOM     13  C   UNL     1       1.666  -3.159  -0.957  0.00  0.00    +0.096 C 
ATOM     14  C   UNL     1       0.218  -3.275  -0.477  0.00  0.00    +0.030 C 
ATOM     15  C   UNL     1      -0.073  -2.150   0.516  0.00  0.00    +0.014 C 
ATOM     16  C   UNL     1      -1.508  -2.174   0.979  0.00  0.00    +0.042 C 
ATOM     17  C   UNL     1      -2.534  -2.240  -0.170  0.00  0.00    +0.181 C 
ATOM     18  C   UNL     1      -2.153  -3.291  -1.199  0.00  0.00    +0.052 C 
ATOM     19  O   UNL     1      -3.706  -2.748   0.528  0.00  0.00    -0.461 OA
ATOM     20  C   UNL     1      -3.292  -3.730   1.357  0.00  0.00    +0.309 C 
ATOM     21  O   UNL     1      -3.952  -4.680   1.708  0.00  0.00    -0.251 OA
ATOM     22  C   UNL     1      -1.863  -3.451   1.763  0.00  0.00    +0.088 C 
ATOM     23  C   UNL     1       2.740  -2.827   0.077  0.00  0.00    +0.196 C 
ATOM     24  O   UNL     1       2.291  -1.878  -0.894  0.00  0.00    -0.368 OA
ENDBRANCH   7  22
ENDBRANCH   1   7
BRANCH   5  25
ATOM     25  C   UNL     1      -3.424  -4.683   5.987  0.00  0.00    +0.104 C 
BRANCH  25  26
ATOM     26  C   UNL     1      -3.481  -4.430   7.471  0.00  0.00    -0.013 A 
ATOM     27  C   UNL     1      -2.795  -3.361   8.017  0.00  0.00    +0.007 A 
ATOM     28  C   UNL     1      -2.847  -3.129   9.379  0.00  0.00    +0.000 A 
ATOM     29  C   UNL     1      -3.586  -3.965  10.195  0.00  0.00    +0.000 A 
ATOM     30  C   UNL     1      -4.273  -5.033   9.649  0.00  0.00    +0.000 A 
ATOM     31  C   UNL     1      -4.224  -5.263   8.287  0.00  0.00    +0.007 A 
ENDBRANCH  25  26
BRANCH  25  32
ATOM     32  C   UNL     1      -4.542  -3.935   5.307  0.00  0.00    -0.013 A 
ATOM     33  C   UNL     1      -4.442  -2.570   5.113  0.00  0.00    +0.007 A 
ATOM     34  C   UNL     1      -5.467  -1.884   4.489  0.00  0.00    +0.000 A 
ATOM     35  C   UNL     1      -6.592  -2.563   4.058  0.00  0.00    +0.000 A 
ATOM     36  C   UNL     1      -6.691  -3.928   4.252  0.00  0.00    +0.000 A 
ATOM     37  C   UNL     1      -5.664  -4.615   4.872  0.00  0.00    +0.007 A 
ENDBRANCH  25  32
BRANCH  25  38
ATOM     38  O   UNL     1      -3.567  -6.083   5.737  0.00  0.00    -0.381 OA
ATOM     39  H   UNL     1      -2.845  -6.621   6.091  0.00  0.00    +0.211 HD
ENDBRANCH  25  38
ENDBRANCH   5  25
TORSDOF 6
