REMARK  Name = ZINC35037063
REMARK  13 active torsions:
REMARK  status: ('A' for Active; 'I' for Inactive)
REMARK    1  A    between atoms: C_1  and  C_2
REMARK    2  A    between atoms: C_2  and  C_3
REMARK    3  A    between atoms: C_3  and  N_4
REMARK    4  A    between atoms: C_14  and  C_15
REMARK    5  A    between atoms: C_15  and  C_17
REMARK    6  A    between atoms: C_15  and  N_19
REMARK    7  A    between atoms: C_17  and  C_18
REMARK    8  A    between atoms: N_19  and  C_20
REMARK    9  A    between atoms: C_20  and  C_21
REMARK   10  A    between atoms: C_21  and  N_22
REMARK   11  A    between atoms: N_22  and  C_23
REMARK   12  A    between atoms: N_22  and  C_24
REMARK   13  A    between atoms: N_27  and  C_28
REMARK                            x       y       z     vdW  Elec       q    Type
REMARK                         _______ _______ _______ _____ _____    ______ ____
ROOT
ATOM      1  N   UNL     1      -1.265  -2.939   3.780  0.00  0.00    -0.277 N 
ATOM      2  C   UNL     1      -0.144  -2.993   4.526  0.00  0.00    +0.307 C 
ATOM      3  O   UNL     1       0.780  -2.238   4.289  0.00  0.00    -0.252 OA
ATOM      4  N   UNL     1      -0.046  -3.883   5.533  0.00  0.00    -0.268 N 
ATOM      5  H   UNL     1      -0.755  -4.528   5.681  0.00  0.00    +0.156 HD
ENDROOT
BRANCH   4   6
ATOM      6  C   UNL     1       1.079  -3.876   6.366  0.00  0.00    +0.049 A 
ATOM      7  C   UNL     1       2.300  -3.421   5.883  0.00  0.00    +0.024 A 
ATOM      8  C   UNL     1       3.408  -3.415   6.707  0.00  0.00    +0.002 A 
ATOM      9  C   UNL     1       3.304  -3.862   8.012  0.00  0.00    +0.001 A 
ATOM     10  C   UNL     1       2.091  -4.316   8.496  0.00  0.00    +0.017 A 
ATOM     11  C   UNL     1       0.977  -4.320   7.678  0.00  0.00    +0.039 A 
ATOM     12 BR   UNL     1      -0.683  -4.934   8.343  0.00  0.00    -0.048 Br
ENDBRANCH   4   6
BRANCH   1  13
ATOM     13  C   UNL     1      -1.372  -1.972   2.685  0.00  0.00    +0.143 C 
BRANCH  13  24
ATOM     14  N   UNL     1      -0.828  -2.719   0.404  0.00  0.00    -0.295 N 
ATOM     15  C   UNL     1      -1.105  -3.358  -0.757  0.00  0.00    +0.262 A 
ATOM     16  O   UNL     1      -0.298  -3.394  -1.667  0.00  0.00    -0.267 OA
ATOM     17  C   UNL     1      -2.420  -4.006  -0.875  0.00  0.00    +0.065 A 
ATOM     18  C   UNL     1      -2.804  -4.689  -2.027  0.00  0.00    +0.015 A 
ATOM     19  C   UNL     1      -4.047  -5.279  -2.084  0.00  0.00    +0.001 A 
ATOM     20  C   UNL     1      -4.918  -5.196  -1.006  0.00  0.00    +0.002 A 
ATOM     21  C   UNL     1      -4.559  -4.525   0.141  0.00  0.00    +0.028 A 
ATOM     22  C   UNL     1      -3.303  -3.920   0.224  0.00  0.00    +0.078 A 
ATOM     23  N   UNL     1      -2.907  -3.250   1.335  0.00  0.00    -0.232 NA
ATOM     24  C   UNL     1      -1.737  -2.692   1.413  0.00  0.00    +0.134 A 
BRANCH  14  25
ATOM     25  C   UNL     1       0.467  -2.056   0.576  0.00  0.00    +0.126 C 
BRANCH  25  27
ATOM     26  C   UNL     1       2.798  -2.325   1.435  0.00  0.00    +0.005 C 
ATOM     27  C   UNL     1       1.446  -3.017   1.255  0.00  0.00    +0.018 C 
ENDBRANCH  25  27
ENDBRANCH  14  25
ENDBRANCH  13  24
BRANCH  13  28
ATOM     28  C   UNL     1      -2.454  -0.943   3.017  0.00  0.00    +0.027 C 
ATOM     29  C   UNL     1      -2.021  -0.123   4.234  0.00  0.00    +0.006 C 
ENDBRANCH  13  28
ENDBRANCH   1  13
BRANCH   1  30
ATOM     30  C   UNL     1      -2.378  -3.849   4.065  0.00  0.00    +0.091 C 
BRANCH  30  31
ATOM     31  C   UNL     1      -2.128  -5.192   3.376  0.00  0.00    -0.060 C 
BRANCH  31  32
ATOM     32  N   UNL     1      -3.301  -6.059   3.553  0.00  0.00    +0.377 N 
ATOM     33  C   UNL     1      -3.111  -7.301   2.793  0.00  0.00    -0.097 C 
ATOM     34  C   UNL     1      -3.463  -6.377   4.978  0.00  0.00    -0.097 C 
ATOM     35  H   UNL     1      -4.125  -5.582   3.219  0.00  0.00    -0.083 HD
ENDBRANCH  31  32
ENDBRANCH  30  31
ENDBRANCH   1  30
TORSDOF 9
