REMARK  Name = ZINC39541435
REMARK  8 active torsions:
REMARK  status: ('A' for Active; 'I' for Inactive)
REMARK    1  A    between atoms: C_1  and  C_2
REMARK    2  A    between atoms: C_2  and  C_3
REMARK    3  A    between atoms: C_2  and  C_4
REMARK    4  A    between atoms: C_4  and  N_5
REMARK    5  A    between atoms: C_18  and  C_29
REMARK    6  A    between atoms: C_19  and  O_27
REMARK    7  A    between atoms: O_27  and  C_28
REMARK    8  A    between atoms: C_34  and  O_35
REMARK                            x       y       z     vdW  Elec       q    Type
REMARK                         _______ _______ _______ _____ _____    ______ ____
ROOT
ATOM      1  N   UNL     1      -0.008  -0.140   2.444  0.00  0.00    -0.337 N 
ATOM      2  C   UNL     1       0.140   1.021   3.152  0.00  0.00    +0.050 A 
ATOM      3  C   UNL     1       0.979   2.117   2.963  0.00  0.00    +0.026 A 
ATOM      4  C   UNL     1       0.879   3.151   3.877  0.00  0.00    +0.002 A 
ATOM      5  C   UNL     1      -0.012   3.113   4.938  0.00  0.00    +0.001 A 
ATOM      6  C   UNL     1      -0.851   2.050   5.151  0.00  0.00    +0.010 A 
ATOM      7  C   UNL     1      -0.775   0.983   4.242  0.00  0.00    +0.004 A 
ATOM      8  C   UNL     1      -1.458  -0.225   4.150  0.00  0.00    -0.010 A 
ATOM      9  C   UNL     1      -0.981  -0.895   3.045  0.00  0.00    +0.089 A 
ATOM     10  C   UNL     1      -1.526  -2.218   2.690  0.00  0.00    +0.161 A 
ATOM     11  N   UNL     1      -0.868  -3.009   1.881  0.00  0.00    -0.227 NA
ATOM     12  C   UNL     1      -1.319  -4.238   1.563  0.00  0.00    +0.079 A 
ATOM     13  C   UNL     1      -0.614  -5.065   0.686  0.00  0.00    +0.040 A 
ATOM     14  C   UNL     1      -1.105  -6.329   0.389  0.00  0.00    +0.029 A 
ATOM     15  C   UNL     1      -2.303  -6.781   0.966  0.00  0.00    +0.129 A 
ATOM     16  C   UNL     1      -3.011  -5.971   1.830  0.00  0.00    +0.061 A 
ATOM     17  C   UNL     1      -2.530  -4.697   2.132  0.00  0.00    +0.068 A 
ATOM     18  C   UNL     1      -3.258  -3.794   3.034  0.00  0.00    +0.262 A 
ATOM     19  O   UNL     1      -4.295  -4.142   3.570  0.00  0.00    -0.267 OA
ATOM     20  N   UNL     1      -2.740  -2.564   3.250  0.00  0.00    -0.291 N 
ATOM     21  C   UNL     1      -3.493  -1.595   4.054  0.00  0.00    +0.131 C 
ATOM     22  C   UNL     1      -2.544  -0.836   5.004  0.00  0.00    +0.059 C 
ENDROOT
BRANCH  14  23
ATOM     23  C   UNL     1      -0.360  -7.207  -0.543  0.00  0.00    +0.027 A 
ATOM     24  C   UNL     1       0.905  -7.680  -0.199  0.00  0.00    +0.012 A 
ATOM     25  C   UNL     1       1.595  -8.498  -1.071  0.00  0.00    +0.001 A 
ATOM     26  C   UNL     1       1.035  -8.850  -2.287  0.00  0.00    +0.004 A 
ATOM     27  C   UNL     1      -0.218  -8.387  -2.638  0.00  0.00    +0.046 A 
ATOM     28  C   UNL     1      -0.925  -7.570  -1.770  0.00  0.00    +0.125 A 
BRANCH  28  29
ATOM     29  O   UNL     1      -2.160  -7.119  -2.111  0.00  0.00    -0.506 OA
ATOM     30  H   UNL     1      -2.153  -6.278  -2.588  0.00  0.00    +0.292 HD
ENDBRANCH  28  29
ENDBRANCH  14  23
BRANCH  15  31
ATOM     31  O   UNL     1      -2.768  -8.024   0.672  0.00  0.00    -0.494 OA
ATOM     32  C   UNL     1      -3.992  -8.422   1.292  0.00  0.00    +0.277 C 
ENDBRANCH  15  31
BRANCH   1  33
ATOM     33  C   UNL     1       0.742  -0.511   1.242  0.00  0.00    +0.125 C 
BRANCH  33  35
ATOM     34  C   UNL     1      -0.019   1.526   0.010  0.00  0.00    +0.009 C 
ATOM     35  C   UNL     1       0.002  -0.004   0.002  0.00  0.00    +0.003 C 
ATOM     36  C   UNL     1       0.718  -0.497  -1.257  0.00  0.00    +0.009 C 
ENDBRANCH  33  35
ENDBRANCH   1  33
TORSDOF 5
