REMARK  Name = ZINC01774696
REMARK  6 active torsions:
REMARK  status: ('A' for Active; 'I' for Inactive)
REMARK    1  A    between atoms: C_1  and  C_2
REMARK    2  A    between atoms: C_2  and  C_3
REMARK    3  A    between atoms: C_5  and  C_19
REMARK    4  A    between atoms: C_5  and  O_23
REMARK    5  A    between atoms: C_8  and  C_10
REMARK    6  A    between atoms: C_13  and  N_16
REMARK                            x       y       z     vdW  Elec       q    Type
REMARK                         _______ _______ _______ _____ _____    ______ ____
ROOT
ATOM      1  C   UNL     1      -1.414  -0.519   0.013  0.00  0.00    +0.023 C 
ATOM      2  C   UNL     1      -2.086  -0.846  -1.070  0.00  0.00    +0.058 C 
ATOM      3  C   UNL     1      -3.456  -1.312  -0.631  0.00  0.00    +0.270 C 
ATOM      4  N   UNL     1      -3.435  -1.193   0.837  0.00  0.00    -0.175 N 
ATOM      5  N   UNL     1      -2.159  -0.710   1.160  0.00  0.00    -0.263 N 
ATOM      6  C   UNL     1      -4.433  -1.492   1.692  0.00  0.00    +0.266 C 
ATOM      7  O   UNL     1      -5.517  -1.839   1.264  0.00  0.00    -0.268 OA
ATOM      8  H   UNL     1      -1.846  -0.533   2.061  0.00  0.00    +0.170 HD
ENDROOT
BRANCH   6   9
ATOM      9  C   UNL     1      -4.210  -1.399   3.150  0.00  0.00    +0.039 A 
ATOM     10  C   UNL     1      -3.379  -0.405   3.670  0.00  0.00    +0.015 A 
ATOM     11  C   UNL     1      -3.175  -0.323   5.032  0.00  0.00    +0.033 A 
ATOM     12  C   UNL     1      -3.792  -1.223   5.882  0.00  0.00    +0.126 A 
ATOM     13  C   UNL     1      -4.617  -2.211   5.374  0.00  0.00    +0.033 A 
ATOM     14  C   UNL     1      -4.833  -2.300   4.014  0.00  0.00    +0.015 A 
BRANCH  12  15
ATOM     15  N   UNL     1      -3.568  -1.130   7.342  0.00  0.00    +0.056 N 
ATOM     16  O   UNL     1      -2.848  -0.268   7.789  0.00  0.00    -0.126 OA
ATOM     17  O   UNL     1      -4.106  -1.915   8.088  0.00  0.00    -0.126 OA
ENDBRANCH  12  15
ENDBRANCH   6   9
BRANCH   3  18
ATOM     18  C   UNL     1      -3.683  -2.768  -1.046  0.00  0.00    +0.441 C 
ATOM     19  F   UNL     1      -2.693  -3.575  -0.474  0.00  0.00    -0.166 F 
ATOM     20  F   UNL     1      -4.941  -3.188  -0.602  0.00  0.00    -0.166 F 
ATOM     21  F   UNL     1      -3.622  -2.871  -2.439  0.00  0.00    -0.166 F 
ENDBRANCH   3  18
BRANCH   1  23
ATOM     22  C   UNL     1      -0.011   1.526   0.031  0.00  0.00    +0.010 C 
ATOM     23  C   UNL     1       0.003  -0.004   0.004  0.00  0.00    +0.048 C 
ENDBRANCH   1  23
BRANCH   3  24
ATOM     24  O   UNL     1      -4.470  -0.471  -1.185  0.00  0.00    -0.360 OA
ATOM     25  H   UNL     1      -4.495  -0.469  -2.152  0.00  0.00    +0.213 HD
ENDBRANCH   3  24
TORSDOF 5
