REMARK  Name = ZINC12570753
REMARK  7 active torsions:
REMARK  status: ('A' for Active; 'I' for Inactive)
REMARK    1  A    between atoms: C_6  and  O_11
REMARK    2  A    between atoms: O_11  and  C_12
REMARK    3  A    between atoms: C_12  and  C_13
REMARK    4  A    between atoms: N_15  and  N_16
REMARK    5  A    between atoms: N_16  and  C_17
REMARK    6  A    between atoms: C_17  and  N_19
REMARK    7  A    between atoms: C_20  and  C_22
REMARK                            x       y       z     vdW  Elec       q    Type
REMARK                         _______ _______ _______ _____ _____    ______ ____
ROOT
ATOM      1  C   UNL     1       2.098   9.457   0.029  0.00  0.00    +0.267 C 
ATOM      2  O   UNL     1       0.972   9.906   0.042  0.00  0.00    -0.271 OA
ATOM      3  N   UNL     1       3.156  10.292   0.023  0.00  0.00    -0.232 N 
ATOM      4  H   UNL     1       4.057   9.933   0.012  0.00  0.00    +0.173 HD
ENDROOT
BRANCH   3   5
ATOM      5  N   UNL     1       2.955  11.678   0.032  0.00  0.00    -0.245 N 
ATOM      6  H   UNL     1       2.054  12.037   0.042  0.00  0.00    +0.172 HD
BRANCH   5   7
ATOM      7  C   UNL     1       4.013  12.513   0.026  0.00  0.00    +0.153 C 
ATOM      8  S   UNL     1       3.767  14.207   0.036  0.00  0.00    -0.017 S 
BRANCH   7   9
ATOM      9  N   UNL     1       5.265  12.014   0.011  0.00  0.00    -0.260 N 
ATOM     10  C   UNL     1       6.323  12.849   0.005  0.00  0.00    +0.285 C 
ATOM     11  O   UNL     1       6.149  14.053   0.013  0.00  0.00    -0.266 OA
ATOM     12  H   UNL     1       5.404  11.054   0.005  0.00  0.00    +0.157 HD
BRANCH  10  13
ATOM     13  C   UNL     1       7.684  12.306  -0.011  0.00  0.00    +0.191 A 
ATOM     14  C   UNL     1       8.839  13.036  -0.019  0.00  0.00    +0.056 A 
ATOM     15  C   UNL     1       9.897  12.116  -0.034  0.00  0.00    +0.058 A 
ATOM     16  C   UNL     1       9.350  10.879  -0.035  0.00  0.00    +0.171 A 
ATOM     17  O   UNL     1       8.016  10.998  -0.015  0.00  0.00    -0.444 OA
ATOM     18 BR   UNL     1      10.310   9.249  -0.053  0.00  0.00    -0.008 Br
ENDBRANCH  10  13
ENDBRANCH   7   9
ENDBRANCH   5   7
ENDBRANCH   3   5
BRANCH   1  19
ATOM     19  C   UNL     1       2.315   7.966   0.019  0.00  0.00    +0.326 C 
BRANCH  19  20
ATOM     20  O   UNL     1       1.050   7.301   0.028  0.00  0.00    -0.483 OA
BRANCH  20  26
ATOM     21  C   UNL     1      -0.013   1.076   0.008  0.00  0.00    +0.001 A 
ATOM     22  C   UNL     1      -1.235   1.746   0.017  0.00  0.00    +0.001 A 
ATOM     23  C   UNL     1      -1.288   3.105   0.030  0.00  0.00    +0.008 A 
ATOM     24  C   UNL     1      -0.095   3.849   0.023  0.00  0.00    -0.014 A 
ATOM     25  C   UNL     1      -0.112   5.253   0.029  0.00  0.00    +0.054 A 
ATOM     26  C   UNL     1       1.067   5.942   0.021  0.00  0.00    +0.122 A 
ATOM     27  C   UNL     1       2.292   5.268   0.006  0.00  0.00    +0.046 A 
ATOM     28  C   UNL     1       2.342   3.909  -0.000  0.00  0.00    +0.012 A 
ATOM     29  C   UNL     1       1.148   3.167   0.008  0.00  0.00    -0.018 A 
ATOM     30  C   UNL     1       1.163   1.762   0.000  0.00  0.00    +0.008 A 
ENDBRANCH  20  26
ENDBRANCH  19  20
ENDBRANCH   1  19
TORSDOF 7
