REMARK  Name = ZINC03355038
REMARK  11 active torsions:
REMARK  status: ('A' for Active; 'I' for Inactive)
REMARK    1  A    between atoms: C_1  and  C_2
REMARK    2  A    between atoms: C_3  and  C_7
REMARK    3  A    between atoms: C_10  and  S_18
REMARK    4  A    between atoms: N_11  and  C_12
REMARK    5  A    between atoms: S_18  and  C_19
REMARK    6  A    between atoms: C_19  and  C_20
REMARK    7  A    between atoms: N_22  and  C_23
REMARK    8  A    between atoms: C_26  and  S_29
REMARK    9  A    between atoms: S_29  and  N_32
REMARK   10  A    between atoms: N_32  and  C_33
REMARK   11  A    between atoms: N_32  and  C_34
REMARK                            x       y       z     vdW  Elec       q    Type
REMARK                         _______ _______ _______ _____ _____    ______ ____
ROOT
ATOM      1  S   UNL     1       0.103  -2.445   2.515  0.00  0.00    -0.076 S 
ENDROOT
BRANCH   1   5
ATOM      2  C   UNL     1       1.681  -2.904  -1.034  0.00  0.00    +0.173 A 
ATOM      3  N   UNL     1       1.509  -4.141  -0.629  0.00  0.00    -0.128 NA
ATOM      4  N   UNL     1       0.984  -4.152   0.543  0.00  0.00    -0.122 NA
ATOM      5  C   UNL     1       0.792  -2.923   0.965  0.00  0.00    +0.197 A 
ATOM      6  N   UNL     1       1.224  -2.083  -0.027  0.00  0.00    -0.270 N 
BRANCH   2   9
ATOM      7  C   UNL     1       2.733  -4.778  -3.316  0.00  0.00    +0.087 C 
ATOM      8  C   UNL     1       2.718  -3.271  -3.326  0.00  0.00    +0.112 A 
ATOM      9  C   UNL     1       2.257  -2.473  -2.326  0.00  0.00    +0.060 A 
ATOM     10  C   UNL     1       2.456  -1.095  -2.792  0.00  0.00    +0.053 A 
ATOM     11  C   UNL     1       3.004  -1.193  -4.015  0.00  0.00    +0.196 A 
ATOM     12  O   UNL     1       3.153  -2.490  -4.325  0.00  0.00    -0.467 OA
ENDBRANCH   2   9
BRANCH   6  13
ATOM     13  C   UNL     1       1.208  -0.681  -0.016  0.00  0.00    +0.051 A 
ATOM     14  C   UNL     1      -0.000   0.001   0.006  0.00  0.00    +0.026 A 
ATOM     15  C   UNL     1      -0.012   1.382   0.017  0.00  0.00    +0.002 A 
ATOM     16  C   UNL     1       1.178   2.085   0.005  0.00  0.00    +0.000 A 
ATOM     17  C   UNL     1       2.384   1.409  -0.018  0.00  0.00    +0.002 A 
ATOM     18  C   UNL     1       2.402   0.028  -0.029  0.00  0.00    +0.026 A 
ENDBRANCH   6  13
ENDBRANCH   1   5
BRANCH   1  19
ATOM     19  C   UNL     1      -0.204  -4.076   3.239  0.00  0.00    +0.173 C 
BRANCH  19  20
ATOM     20  C   UNL     1      -0.810  -3.911   4.608  0.00  0.00    +0.227 C 
ATOM     21  O   UNL     1      -1.014  -2.801   5.052  0.00  0.00    -0.275 OA
ATOM     22  N   UNL     1      -1.125  -4.997   5.341  0.00  0.00    -0.285 N 
ATOM     23  H   UNL     1      -1.025  -5.884   4.961  0.00  0.00    +0.155 HD
BRANCH  22  24
ATOM     24  C   UNL     1      -1.598  -4.846   6.649  0.00  0.00    +0.034 A 
ATOM     25  C   UNL     1      -1.263  -5.779   7.622  0.00  0.00    +0.025 A 
ATOM     26  C   UNL     1      -1.726  -5.623   8.914  0.00  0.00    +0.030 A 
ATOM     27  C   UNL     1      -2.532  -4.547   9.236  0.00  0.00    +0.106 A 
ATOM     28  C   UNL     1      -2.872  -3.620   8.269  0.00  0.00    +0.030 A 
ATOM     29  C   UNL     1      -2.407  -3.766   6.976  0.00  0.00    +0.025 A 
BRANCH  27  30
ATOM     30  S   UNL     1      -3.126  -4.356  10.884  0.00  0.00    +0.060 S 
ATOM     31  O   UNL     1      -2.221  -5.057  11.726  0.00  0.00    -0.153 OA
ATOM     32  O   UNL     1      -3.412  -2.975  11.056  0.00  0.00    -0.153 OA
BRANCH  30  33
ATOM     33  N   UNL     1      -4.574  -5.154  10.978  0.00  0.00    -0.183 NA
ATOM     34  C   UNL     1      -4.608  -6.568  11.361  0.00  0.00    +0.131 C 
ATOM     35  C   UNL     1      -5.821  -4.446  10.678  0.00  0.00    +0.131 C 
ENDBRANCH  30  33
ENDBRANCH  27  30
ENDBRANCH  22  24
ENDBRANCH  19  20
ENDBRANCH   1  19
TORSDOF 8
