REMARK  Name = ZINC13584662
REMARK  12 active torsions:
REMARK  status: ('A' for Active; 'I' for Inactive)
REMARK    1  A    between atoms: C_1  and  C_2
REMARK    2  A    between atoms: C_2  and  C_3
REMARK    3  A    between atoms: C_9  and  C_10
REMARK    4  A    between atoms: C_13  and  O_18
REMARK    5  A    between atoms: C_14  and  O_16
REMARK    6  A    between atoms: O_16  and  C_17
REMARK    7  A    between atoms: O_18  and  C_19
REMARK    8  A    between atoms: C_19  and  C_20
REMARK    9  A    between atoms: C_20  and  O_21
REMARK   10  A    between atoms: O_21  and  C_22
REMARK   11  A    between atoms: C_23  and  C_29
REMARK   12  A    between atoms: C_27  and  C_28
REMARK                            x       y       z     vdW  Elec       q    Type
REMARK                         _______ _______ _______ _____ _____    ______ ____
ROOT
ATOM      1  C   UNL     1      -8.349  -0.966   1.559  0.00  0.00    -0.021 A 
ATOM      2  C   UNL     1      -8.306  -2.364   1.452  0.00  0.00    +0.012 A 
ATOM      3  C   UNL     1      -9.376  -3.118   1.876  0.00  0.00    +0.050 A 
ATOM      4  C   UNL     1     -10.500  -2.500   2.409  0.00  0.00    +0.162 A 
ATOM      5  C   UNL     1     -10.552  -1.110   2.518  0.00  0.00    +0.162 A 
ATOM      6  C   UNL     1      -9.482  -0.344   2.102  0.00  0.00    +0.057 A 
ENDROOT
BRANCH   1  13
ATOM      7  C   UNL     1      -2.173  -1.337  -1.754  0.00  0.00    +0.100 C 
ATOM      8  N   UNL     1      -2.939  -0.525  -1.084  0.00  0.00    -0.169 NA
ATOM      9  N   UNL     1      -4.302  -0.722  -1.014  0.00  0.00    -0.152 N 
ATOM     10  C   UNL     1      -5.230   0.142  -0.393  0.00  0.00    +0.152 C 
ATOM     11  N   UNL     1      -4.997   1.410  -0.178  0.00  0.00    -0.283 NA
ATOM     12  C   UNL     1      -6.501  -0.534  -0.008  0.00  0.00    +0.081 C 
ATOM     13  C   UNL     1      -7.212  -0.159   1.109  0.00  0.00    +0.024 C 
ATOM     14  C   UNL     1      -6.958  -1.634  -0.894  0.00  0.00    +0.273 C 
ATOM     15  O   UNL     1      -8.138  -1.939  -0.958  0.00  0.00    -0.268 OA
ATOM     16  N   UNL     1      -6.033  -2.285  -1.625  0.00  0.00    -0.152 NA
ATOM     17  C   UNL     1      -4.798  -1.850  -1.630  0.00  0.00    +0.181 C 
ATOM     18  S   UNL     1      -3.345  -2.527  -2.389  0.00  0.00    -0.038 S 
ATOM     19  H   UNL     1      -4.152   1.801  -0.449  0.00  0.00    +0.188 HD
BRANCH   7  21
ATOM     20  C   UNL     1      -0.111  -0.071  -1.207  0.00  0.00    +0.011 C 
ATOM     21  C   UNL     1      -0.679  -1.282  -1.949  0.00  0.00    +0.061 C 
ENDBRANCH   7  21
ENDBRANCH   1  13
BRANCH   5  22
ATOM     22  O   UNL     1     -11.655  -0.510   3.040  0.00  0.00    -0.491 OA
ATOM     23  C   UNL     1     -11.640   0.917   3.122  0.00  0.00    +0.277 C 
ENDBRANCH   5  22
BRANCH   4  24
ATOM     24  O   UNL     1     -11.553  -3.251   2.824  0.00  0.00    -0.485 OA
BRANCH  24  25
ATOM     25  C   UNL     1     -11.434  -4.668   2.683  0.00  0.00    +0.270 C 
BRANCH  25  26
ATOM     26  C   UNL     1     -12.708  -5.340   3.200  0.00  0.00    +0.270 C 
BRANCH  26  27
ATOM     27  O   UNL     1     -13.812  -4.968   2.372  0.00  0.00    -0.488 OA
BRANCH  27  28
ATOM     28  C   UNL     1     -15.027  -5.484   2.697  0.00  0.00    +0.126 A 
ATOM     29  C   UNL     1     -15.433  -6.696   2.159  0.00  0.00    -0.009 A 
ATOM     30  C   UNL     1     -16.669  -7.218   2.491  0.00  0.00    +0.007 A 
ATOM     31  C   UNL     1     -17.500  -6.533   3.358  0.00  0.00    +0.001 A 
ATOM     32  C   UNL     1     -17.097  -5.324   3.894  0.00  0.00    +0.007 A 
ATOM     33  C   UNL     1     -15.860  -4.801   3.570  0.00  0.00    -0.009 A 
ATOM     34  C   UNL     1     -15.419  -3.486   4.160  0.00  0.00    +0.047 C 
ATOM     35  C   UNL     1     -14.528  -7.444   1.214  0.00  0.00    +0.047 C 
ENDBRANCH  27  28
ENDBRANCH  26  27
ENDBRANCH  25  26
ENDBRANCH  24  25
ENDBRANCH   4  24
TORSDOF 8
