REMARK  Name = ZINC00354907
REMARK  5 active torsions:
REMARK  status: ('A' for Active; 'I' for Inactive)
REMARK    1  A    between atoms: C_1  and  C_2
REMARK    2  A    between atoms: C_2  and  C_23
REMARK    3  A    between atoms: C_6  and  C_15
REMARK    4  A    between atoms: C_8  and  N_12
REMARK    5  A    between atoms: C_9  and  N_11
REMARK                            x       y       z     vdW  Elec       q    Type
REMARK                         _______ _______ _______ _____ _____    ______ ____
ROOT
ATOM      1  C   UNL     1      -0.096   1.504  -0.206  0.00  0.00    +0.012 C 
ATOM      2  C   UNL     1      -0.039  -0.023  -0.126  0.00  0.00    -0.021 C 
ATOM      3  C   UNL     1       0.764  -0.570  -1.308  0.00  0.00    +0.081 C 
ATOM      4  C   UNL     1       2.176  -0.041  -1.250  0.00  0.00    +0.115 C 
ATOM      5  C   UNL     1       2.762   0.235  -0.069  0.00  0.00    +0.047 C 
ATOM      6  C   UNL     1       4.177   0.758  -0.022  0.00  0.00    +0.121 C 
ATOM      7  C   UNL     1       4.575   1.298  -1.367  0.00  0.00    +0.173 C 
ATOM      8  C   UNL     1       3.901   0.973  -2.457  0.00  0.00    +0.211 C 
ATOM      9  O   UNL     1       2.836   0.147  -2.408  0.00  0.00    -0.444 OA
ATOM     10  C   UNL     1       2.078   0.051   1.147  0.00  0.00    +0.164 C 
ATOM     11  O   UNL     1       2.644   0.295   2.193  0.00  0.00    -0.292 OA
ATOM     12  C   UNL     1       0.657  -0.444   1.173  0.00  0.00    +0.086 C 
ATOM     13  C   UNL     1      -1.459  -0.593  -0.156  0.00  0.00    +0.012 C 
ENDROOT
BRANCH   6  14
ATOM     14  C   UNL     1       5.111  -0.362   0.359  0.00  0.00    +0.004 A 
ATOM     15  C   UNL     1       5.937  -0.457   1.429  0.00  0.00    +0.012 A 
ATOM     16  C   UNL     1       6.712  -1.592   1.578  0.00  0.00    +0.008 A 
ATOM     17  C   UNL     1       6.622  -2.576   0.650  0.00  0.00    +0.045 A 
ATOM     18  S   UNL     1       5.409  -1.910  -0.478  0.00  0.00    -0.101 S 
ENDBRANCH   6  14
BRANCH   8  19
ATOM     19  N   UNL     1       4.299   1.494  -3.682  0.00  0.00    -0.328 N 
ATOM     20  H   UNL     1       5.115   2.015  -3.745  0.00  0.00    +0.145 HD
ATOM     21  H   UNL     1       3.761   1.338  -4.474  0.00  0.00    +0.145 HD
ENDBRANCH   8  19
BRANCH   7  22
ATOM     22  N   UNL     1       5.738   2.209  -1.472  0.00  0.00    +0.058 N 
ATOM     23  O   UNL     1       5.578   3.405  -1.398  0.00  0.00    -0.126 OA
ATOM     24  O   UNL     1       6.847   1.756  -1.633  0.00  0.00    -0.126 OA
ENDBRANCH   7  22
TORSDOF 3
