REMARK  Name = ZINC39491615
REMARK  15 active torsions:
REMARK  status: ('A' for Active; 'I' for Inactive)
REMARK    1  A    between atoms: C_1  and  C_2
REMARK    2  A    between atoms: C_2  and  C_3
REMARK    3  A    between atoms: C_2  and  C_4
REMARK    4  A    between atoms: C_4  and  C_5
REMARK    5  A    between atoms: C_5  and  C_7
REMARK    6  A    between atoms: C_5  and  C_30
REMARK    7  A    between atoms: C_7  and  N_8
REMARK    8  A    between atoms: C_10  and  C_21
REMARK    9  A    between atoms: C_15  and  C_17
REMARK   10  A    between atoms: C_17  and  O_19
REMARK   11  A    between atoms: O_19  and  C_20
REMARK   12  A    between atoms: C_21  and  N_22
REMARK   13  A    between atoms: N_22  and  C_23
REMARK   14  A    between atoms: C_23  and  C_24
REMARK   15  A    between atoms: C_35  and  O_36
REMARK                            x       y       z     vdW  Elec       q    Type
REMARK                         _______ _______ _______ _____ _____    ______ ____
ROOT
ATOM      1  N   UNL     1      -3.268  -2.220  -1.578  0.00  0.00    -0.346 N 
ATOM      2  C   UNL     1      -4.016  -1.110  -1.866  0.00  0.00    +0.088 A 
ATOM      3  C   UNL     1      -4.253  -1.047  -3.185  0.00  0.00    -0.039 A 
ATOM      4  C   UNL     1      -3.603  -2.212  -3.792  0.00  0.00    +0.002 A 
ATOM      5  C   UNL     1      -2.993  -2.913  -2.732  0.00  0.00    +0.049 A 
ATOM      6  C   UNL     1      -2.282  -4.081  -2.998  0.00  0.00    +0.027 A 
ATOM      7  C   UNL     1      -2.173  -4.543  -4.276  0.00  0.00    +0.017 A 
ATOM      8  C   UNL     1      -2.773  -3.854  -5.339  0.00  0.00    +0.060 A 
ATOM      9  C   UNL     1      -3.495  -2.688  -5.095  0.00  0.00    +0.025 A 
ENDROOT
BRANCH   8  10
ATOM     10  C   UNL     1      -2.645  -4.367  -6.716  0.00  0.00    +0.339 C 
ATOM     11  O   UNL     1      -3.164  -3.770  -7.638  0.00  0.00    -0.245 OA
BRANCH  10  12
ATOM     12  O   UNL     1      -1.952  -5.499  -6.952  0.00  0.00    -0.464 OA
ATOM     13  C   UNL     1      -1.869  -5.938  -8.309  0.00  0.00    +0.280 C 
ENDBRANCH  10  12
ENDBRANCH   8  10
BRANCH   1  14
ATOM     14  C   UNL     1      -2.821  -2.608  -0.238  0.00  0.00    +0.130 C 
BRANCH  14  15
ATOM     15  C   UNL     1      -1.408  -2.073   0.003  0.00  0.00    +0.043 C 
BRANCH  15  16
ATOM     16  C   UNL     1      -0.901  -2.575   1.331  0.00  0.00    -0.001 A 
ATOM     17  C   UNL     1      -1.523  -2.184   2.501  0.00  0.00    +0.007 A 
ATOM     18  C   UNL     1      -1.058  -2.644   3.719  0.00  0.00    +0.001 A 
ATOM     19  C   UNL     1       0.030  -3.496   3.769  0.00  0.00    +0.004 A 
ATOM     20  C   UNL     1       0.655  -3.890   2.602  0.00  0.00    +0.046 A 
ATOM     21  C   UNL     1       0.187  -3.434   1.378  0.00  0.00    +0.120 A 
BRANCH  21  22
ATOM     22  O   UNL     1       0.796  -3.825   0.228  0.00  0.00    -0.506 OA
ATOM     23  H   UNL     1       1.518  -3.245  -0.051  0.00  0.00    +0.292 HD
ENDBRANCH  21  22
ENDBRANCH  15  16
BRANCH  15  24
ATOM     24  C   UNL     1      -1.436  -0.544   0.013  0.00  0.00    +0.013 C 
BRANCH  24  26
ATOM     25  C   UNL     1       0.768  -0.369  -1.149  0.00  0.00    +0.007 C 
ATOM     26  C   UNL     1      -0.007  -0.008   0.119  0.00  0.00    -0.017 C 
ATOM     27  C   UNL     1      -0.044   1.514   0.279  0.00  0.00    +0.007 C 
ENDBRANCH  24  26
ENDBRANCH  15  24
ENDBRANCH  14  15
ENDBRANCH   1  14
BRANCH   3  28
ATOM     28  C   UNL     1      -5.039   0.019  -3.905  0.00  0.00    -0.044 C 
BRANCH  28  29
ATOM     29  N   UNL     1      -6.396  -0.473  -4.177  0.00  0.00    +0.384 N 
ATOM     30  H   UNL     1      -6.345  -1.300  -4.753  0.00  0.00    -0.085 HD
ATOM     31  H   UNL     1      -6.853  -0.697  -3.306  0.00  0.00    -0.085 HD
BRANCH  29  32
ATOM     32  C   UNL     1      -7.162   0.566  -4.879  0.00  0.00    -0.046 C 
BRANCH  32  33
ATOM     33  C   UNL     1      -8.554   0.061  -5.158  0.00  0.00    -0.064 A 
ATOM     34  C   UNL     1      -8.822  -0.613  -6.335  0.00  0.00    +0.002 A 
ATOM     35  C   UNL     1     -10.099  -1.076  -6.591  0.00  0.00    +0.000 A 
ATOM     36  C   UNL     1     -11.108  -0.865  -5.670  0.00  0.00    +0.000 A 
ATOM     37  C   UNL     1     -10.840  -0.191  -4.493  0.00  0.00    +0.000 A 
ATOM     38  C   UNL     1      -9.562   0.268  -4.235  0.00  0.00    +0.002 A 
ENDBRANCH  32  33
ENDBRANCH  29  32
ENDBRANCH  28  29
ENDBRANCH   3  28
TORSDOF 12
