REMARK  Name = ZINC45839772
REMARK  10 active torsions:
REMARK  status: ('A' for Active; 'I' for Inactive)
REMARK    1  A    between atoms: C_1  and  C_2
REMARK    2  A    between atoms: C_7  and  N_8
REMARK    3  A    between atoms: C_9  and  C_11
REMARK    4  A    between atoms: C_11  and  C_13
REMARK    5  A    between atoms: C_11  and  S_14
REMARK    6  A    between atoms: S_14  and  C_15
REMARK    7  A    between atoms: C_18  and  C_21
REMARK    8  A    between atoms: N_19  and  N_20
REMARK    9  A    between atoms: C_24  and  O_27
REMARK   10  A    between atoms: O_27  and  C_28
REMARK                            x       y       z     vdW  Elec       q    Type
REMARK                         _______ _______ _______ _____ _____    ______ ____
ROOT
ATOM      1  C   UNL     1      -1.047  -0.004   7.559  0.00  0.00    +0.209 A 
ATOM      2  N   UNL     1      -0.772   1.279   7.623  0.00  0.00    -0.121 NA
ATOM      3  N   UNL     1      -1.042   1.731   8.795  0.00  0.00    -0.127 NA
ATOM      4  C   UNL     1      -1.507   0.764   9.552  0.00  0.00    +0.182 A 
ATOM      5  N   UNL     1      -1.530  -0.376   8.782  0.00  0.00    -0.224 N 
ENDROOT
BRANCH   4   6
ATOM      6  C   UNL     1      -1.931   0.880  10.963  0.00  0.00    +0.021 A 
ATOM      7  C   UNL     1      -2.101  -0.268  11.739  0.00  0.00    +0.015 A 
ATOM      8  C   UNL     1      -2.496  -0.156  13.056  0.00  0.00    +0.046 A 
ATOM      9  C   UNL     1      -2.725   1.097  13.609  0.00  0.00    +0.127 A 
ATOM     10  C   UNL     1      -2.557   2.241  12.841  0.00  0.00    +0.046 A 
ATOM     11  C   UNL     1      -2.157   2.138  11.526  0.00  0.00    +0.015 A 
BRANCH   9  12
ATOM     12  O   UNL     1      -3.115   1.203  14.906  0.00  0.00    -0.434 OA
BRANCH  12  13
ATOM     13  C   UNL     1      -3.333   2.522  15.412  0.00  0.00    +0.541 C 
ATOM     14  F   UNL     1      -2.149   3.260  15.314  0.00  0.00    -0.166 F 
ATOM     15  F   UNL     1      -4.337   3.147  14.665  0.00  0.00    -0.166 F 
ENDBRANCH  12  13
ENDBRANCH   9  12
ENDBRANCH   4   6
BRANCH   5  16
ATOM     16  N   UNL     1      -1.945  -1.621   9.162  0.00  0.00    -0.295 N 
ATOM     17  H   UNL     1      -1.181  -2.156   9.546  0.00  0.00    +0.163 HD
ATOM     18  H   UNL     1      -2.710  -1.562   9.818  0.00  0.00    +0.163 HD
ENDBRANCH   5  16
BRANCH   1  19
ATOM     19  S   UNL     1      -0.840  -1.050   6.156  0.00  0.00    -0.072 S 
BRANCH  19  20
ATOM     20  C   UNL     1      -0.169   0.054   4.882  0.00  0.00    +0.137 C 
ATOM     21  C   UNL     1       1.216   0.543   5.310  0.00  0.00    +0.029 C 
BRANCH  20  23
ATOM     22  N   UNL     1       0.025  -0.014   2.417  0.00  0.00    -0.284 N 
ATOM     23  C   UNL     1      -0.057  -0.693   3.578  0.00  0.00    +0.230 C 
ATOM     24  O   UNL     1      -0.040  -1.906   3.574  0.00  0.00    -0.274 OA
ATOM     25  H   UNL     1       0.077   0.955   2.425  0.00  0.00    +0.155 HD
BRANCH  22  32
ATOM     26  C   UNL     1      -1.265   1.183   0.181  0.00  0.00    +0.046 C 
ATOM     27  C   UNL     1      -0.584  -0.158   0.084  0.00  0.00    -0.028 A 
ATOM     28  C   UNL     1      -0.569  -0.841  -1.116  0.00  0.00    +0.025 A 
ATOM     29  C   UNL     1       0.056  -2.072  -1.206  0.00  0.00    +0.041 A 
ATOM     30  C   UNL     1       0.668  -2.623  -0.093  0.00  0.00    +0.022 A 
ATOM     31  C   UNL     1       0.656  -1.944   1.109  0.00  0.00    +0.025 A 
ATOM     32  C   UNL     1       0.034  -0.706   1.201  0.00  0.00    +0.036 A 
ATOM     33 CL   UNL     1       0.072  -2.928  -2.716  0.00  0.00    -0.084 Cl
ENDBRANCH  22  32
ENDBRANCH  20  23
ENDBRANCH  19  20
ENDBRANCH   1  19
TORSDOF 8
