REMARK  Name = ZINC01047365
REMARK  6 active torsions:
REMARK  status: ('A' for Active; 'I' for Inactive)
REMARK    1  A    between atoms: C_1  and  C_2
REMARK    2  A    between atoms: C_4  and  S_10
REMARK    3  A    between atoms: C_5  and  C_9
REMARK    4  A    between atoms: S_10  and  C_13
REMARK    5  A    between atoms: C_13  and  C_14
REMARK    6  A    between atoms: C_17  and  N_21
REMARK                            x       y       z     vdW  Elec       q    Type
REMARK                         _______ _______ _______ _____ _____    ______ ____
ROOT
ATOM      1  S   UNL     1      -0.890   1.687  -1.462  0.00  0.00    +0.001 S 
ATOM      2  O   UNL     1      -2.163   1.063  -1.561  0.00  0.00    -0.169 OA
ATOM      3  O   UNL     1      -0.765   3.099  -1.563  0.00  0.00    -0.169 OA
ENDROOT
BRANCH   1   7
ATOM      4  C   UNL     1      -0.461  -1.366  -5.683  0.00  0.00    +0.045 C 
ATOM      5  C   UNL     1       0.169  -0.362  -4.752  0.00  0.00    -0.030 A 
ATOM      6  C   UNL     1      -0.550   0.134  -3.681  0.00  0.00    +0.032 A 
ATOM      7  C   UNL     1       0.028   1.055  -2.827  0.00  0.00    +0.092 A 
ATOM      8  C   UNL     1       1.323   1.484  -3.046  0.00  0.00    -0.024 A 
ATOM      9  C   UNL     1       2.045   0.985  -4.114  0.00  0.00    +0.025 A 
ATOM     10  C   UNL     1       1.467   0.063  -4.969  0.00  0.00    +0.044 A 
ATOM     11 CL   UNL     1       2.371  -0.559  -6.314  0.00  0.00    -0.083 Cl
ATOM     12  C   UNL     1       1.950   2.492  -2.118  0.00  0.00    +0.046 C 
ENDBRANCH   1   7
BRANCH   1  13
ATOM     13  C   UNL     1      -0.013   1.086   0.008  0.00  0.00    +0.208 C 
BRANCH  13  14
ATOM     14  C   UNL     1      -0.718   1.572   1.248  0.00  0.00    -0.008 A 
ATOM     15  C   UNL     1      -1.720   0.808   1.818  0.00  0.00    +0.009 A 
ATOM     16  C   UNL     1      -2.366   1.253   2.955  0.00  0.00    +0.033 A 
ATOM     17  C   UNL     1      -2.012   2.463   3.524  0.00  0.00    +0.128 A 
ATOM     18  C   UNL     1      -1.011   3.227   2.955  0.00  0.00    +0.053 A 
ATOM     19  C   UNL     1      -0.360   2.780   1.819  0.00  0.00    +0.048 A 
ATOM     20 CL   UNL     1       0.903   3.736   1.108  0.00  0.00    -0.083 Cl
BRANCH  17  21
ATOM     21  N   UNL     1      -2.705   2.939   4.742  0.00  0.00    +0.056 N 
ATOM     22  O   UNL     1      -3.587   2.266   5.243  0.00  0.00    -0.126 OA
ATOM     23  O   UNL     1      -2.393   4.005   5.243  0.00  0.00    -0.126 OA
ENDBRANCH  17  21
ENDBRANCH  13  14
ENDBRANCH   1  13
TORSDOF 4
