REMARK  Name = ZINC38478881
REMARK  9 active torsions:
REMARK  status: ('A' for Active; 'I' for Inactive)
REMARK    1  A    between atoms: C_1  and  C_2
REMARK    2  A    between atoms: C_2  and  C_4
REMARK    3  A    between atoms: C_2  and  S_15
REMARK    4  A    between atoms: C_4  and  C_6
REMARK    5  A    between atoms: S_15  and  C_16
REMARK    6  A    between atoms: C_21  and  S_26
REMARK    7  A    between atoms: S_26  and  N_29
REMARK    8  A    between atoms: N_29  and  C_30
REMARK    9  A    between atoms: N_29  and  C_31
REMARK                            x       y       z     vdW  Elec       q    Type
REMARK                         _______ _______ _______ _____ _____    ______ ____
ROOT
ATOM      1  C   UNL     1      -0.166  -0.072   2.855  0.00  0.00    +0.323 C 
ATOM      2  N   UNL     1      -1.511  -0.647   2.724  0.00  0.00    -0.298 N 
ATOM      3  C   UNL     1      -2.393   0.438   2.623  0.00  0.00    +0.075 A 
ATOM      4  C   UNL     1      -3.774   0.480   2.483  0.00  0.00    +0.055 A 
ATOM      5  C   UNL     1      -4.425   1.697   2.405  0.00  0.00    +0.107 A 
ATOM      6  C   UNL     1      -3.702   2.873   2.467  0.00  0.00    +0.032 A 
ATOM      7  C   UNL     1      -2.328   2.838   2.607  0.00  0.00    +0.049 A 
ATOM      8  C   UNL     1      -1.664   1.621   2.686  0.00  0.00    +0.145 A 
ATOM      9  O   UNL     1      -0.337   1.348   2.824  0.00  0.00    -0.460 OA
ATOM     10  H   UNL     1      -1.742  -1.589   2.710  0.00  0.00    +0.150 HD
ENDROOT
BRANCH   5  11
ATOM     11  S   UNL     1      -6.177   1.748   2.226  0.00  0.00    +0.060 S 
ATOM     12  O   UNL     1      -6.488   2.999   1.629  0.00  0.00    -0.153 OA
ATOM     13  O   UNL     1      -6.563   0.510   1.646  0.00  0.00    -0.153 OA
BRANCH  11  14
ATOM     14  N   UNL     1      -6.824   1.778   3.751  0.00  0.00    -0.183 NA
ATOM     15  C   UNL     1      -7.071   3.060   4.416  0.00  0.00    +0.131 C 
ATOM     16  C   UNL     1      -7.148   0.523   4.434  0.00  0.00    +0.131 C 
ENDBRANCH  11  14
ENDBRANCH   5  11
BRANCH   1  17
ATOM     17  S   UNL     1       0.879  -0.605   1.472  0.00  0.00    -0.087 S 
BRANCH  17  19
ATOM     18  C   UNL     1      -0.019   1.526   0.010  0.00  0.00    +0.027 C 
ATOM     19  C   UNL     1       0.002  -0.004   0.002  0.00  0.00    +0.119 C 
BRANCH  19  20
ATOM     20  C   UNL     1       0.707  -0.490  -1.238  0.00  0.00    +0.174 C 
ATOM     21  O   UNL     1       1.890  -0.763  -1.196  0.00  0.00    -0.291 OA
BRANCH  20  22
ATOM     22  C   UNL     1      -0.006  -0.628  -2.447  0.00  0.00    +0.024 C 
ATOM     23  C   UNL     1       0.486  -1.063  -3.664  0.00  0.00    +0.006 A 
ATOM     24  C   UNL     1       1.769  -1.486  -4.088  0.00  0.00    +0.010 A 
ATOM     25  C   UNL     1       1.972  -1.866  -5.369  0.00  0.00    +0.001 A 
ATOM     26  C   UNL     1       0.946  -1.863  -6.328  0.00  0.00    +0.002 A 
ATOM     27  C   UNL     1      -0.313  -1.478  -6.027  0.00  0.00    +0.026 A 
ATOM     28  C   UNL     1      -0.620  -1.048  -4.653  0.00  0.00    +0.043 A 
ATOM     29  N   UNL     1      -1.723  -0.635  -4.097  0.00  0.00    -0.380 N 
ATOM     30  C   UNL     1      -1.472  -0.337  -2.683  0.00  0.00    +0.152 C 
ATOM     31  H   UNL     1      -2.577  -0.542  -4.546  0.00  0.00    +0.160 HD
ENDBRANCH  20  22
ENDBRANCH  19  20
ENDBRANCH  17  19
ENDBRANCH   1  17
TORSDOF 6
