REMARK  Name = ZINC39545418
REMARK  8 active torsions:
REMARK  status: ('A' for Active; 'I' for Inactive)
REMARK    1  A    between atoms: C_1  and  C_2
REMARK    2  A    between atoms: C_2  and  O_3
REMARK    3  A    between atoms: O_3  and  C_4
REMARK    4  A    between atoms: C_6  and  C_18
REMARK    5  A    between atoms: N_20  and  C_21
REMARK    6  A    between atoms: N_20  and  C_28
REMARK    7  A    between atoms: C_26  and  O_27
REMARK    8  A    between atoms: C_33  and  O_34
REMARK                            x       y       z     vdW  Elec       q    Type
REMARK                         _______ _______ _______ _____ _____    ______ ____
ROOT
ATOM      1  C   UNL     1       2.932  -4.564  -1.833  0.00  0.00    +0.244 C 
ATOM      2  O   UNL     1       3.230  -5.040  -0.758  0.00  0.00    -0.273 OA
ATOM      3  N   UNL     1       3.831  -4.554  -2.838  0.00  0.00    -0.232 N 
ENDROOT
BRANCH   1   6
ATOM      4  C   UNL     1       0.870  -1.806  -1.286  0.00  0.00    +0.134 C 
ATOM      5  C   UNL     1       1.652  -2.485  -2.388  0.00  0.00    +0.107 C 
ATOM      6  C   UNL     1       1.558  -3.984  -2.047  0.00  0.00    +0.152 C 
ATOM      7  N   UNL     1       0.781  -4.020  -0.797  0.00  0.00    -0.367 NA
ATOM      8  C   UNL     1       0.417  -2.711  -0.452  0.00  0.00    +0.113 C 
ATOM      9  N   UNL     1      -0.387  -2.468   0.688  0.00  0.00    -0.301 N 
ATOM     10  C   UNL     1      -1.358  -3.450   0.945  0.00  0.00    +0.037 A 
ATOM     11  C   UNL     1      -2.272  -3.264   1.972  0.00  0.00    +0.023 A 
ATOM     12  C   UNL     1      -3.221  -4.234   2.230  0.00  0.00    +0.002 A 
ATOM     13  C   UNL     1      -3.255  -5.385   1.464  0.00  0.00    +0.000 A 
ATOM     14  C   UNL     1      -2.346  -5.569   0.440  0.00  0.00    +0.007 A 
ATOM     15  C   UNL     1      -1.393  -4.600   0.169  0.00  0.00    -0.010 A 
ATOM     16  C   UNL     1      -0.436  -4.820  -0.978  0.00  0.00    +0.124 C 
ATOM     17  H   UNL     1      -0.275  -1.685   1.249  0.00  0.00    +0.153 HD
ATOM     18  H   UNL     1       1.342  -4.417  -0.059  0.00  0.00    +0.129 HD
BRANCH   4  19
ATOM     19  O   UNL     1       0.671  -0.465  -1.174  0.00  0.00    -0.493 OA
BRANCH  19  21
ATOM     20  C   UNL     1      -0.182   1.513  -0.077  0.00  0.00    +0.048 C 
ATOM     21  C   UNL     1       0.004  -0.004   0.003  0.00  0.00    +0.225 C 
ENDBRANCH  19  21
ENDBRANCH   4  19
ENDBRANCH   1   6
BRANCH   3  22
ATOM     22  C   UNL     1       5.110  -5.094  -2.639  0.00  0.00    +0.083 A 
ATOM     23  C   UNL     1       5.349  -6.433  -2.911  0.00  0.00    +0.027 A 
ATOM     24  C   UNL     1       6.611  -6.963  -2.716  0.00  0.00    +0.002 A 
ATOM     25  C   UNL     1       7.636  -6.161  -2.248  0.00  0.00    +0.004 A 
ATOM     26  C   UNL     1       7.405  -4.825  -1.975  0.00  0.00    +0.047 A 
ATOM     27  C   UNL     1       6.144  -4.285  -2.175  0.00  0.00    +0.138 A 
BRANCH  27  28
ATOM     28  O   UNL     1       5.917  -2.971  -1.911  0.00  0.00    -0.505 OA
ATOM     29  H   UNL     1       5.636  -2.795  -1.003  0.00  0.00    +0.292 HD
ENDBRANCH  27  28
ENDBRANCH   3  22
BRANCH   3  30
ATOM     30  C   UNL     1       3.487  -4.005  -4.081  0.00  0.00    +0.083 A 
ATOM     31  C   UNL     1       3.718  -2.661  -4.335  0.00  0.00    +0.027 A 
ATOM     32  C   UNL     1       3.378  -2.121  -5.561  0.00  0.00    +0.002 A 
ATOM     33  C   UNL     1       2.808  -2.918  -6.537  0.00  0.00    +0.004 A 
ATOM     34  C   UNL     1       2.575  -4.258  -6.291  0.00  0.00    +0.047 A 
ATOM     35  C   UNL     1       2.918  -4.808  -5.066  0.00  0.00    +0.138 A 
BRANCH  35  36
ATOM     36  O   UNL     1       2.694  -6.128  -4.825  0.00  0.00    -0.505 OA
ATOM     37  H   UNL     1       1.824  -6.316  -4.447  0.00  0.00    +0.292 HD
ENDBRANCH  35  36
ENDBRANCH   3  30
TORSDOF 7
