REMARK  Name = ZINC01254332
REMARK  8 active torsions:
REMARK  status: ('A' for Active; 'I' for Inactive)
REMARK    1  A    between atoms: C_1  and  C_2
REMARK    2  A    between atoms: C_2  and  N_3
REMARK    3  A    between atoms: N_3  and  C_4
REMARK    4  A    between atoms: N_3  and  C_6
REMARK    5  A    between atoms: C_4  and  C_5
REMARK    6  A    between atoms: C_9  and  C_12
REMARK    7  A    between atoms: C_17  and  C_22
REMARK    8  A    between atoms: C_35  and  C_37
REMARK                            x       y       z     vdW  Elec       q    Type
REMARK                         _______ _______ _______ _____ _____    ______ ____
ROOT
ATOM      1  C   UNL     1      -0.018   1.505   0.010  0.00  0.00    +0.147 C 
ATOM      2  C   UNL     1      -0.175   0.009  -0.109  0.00  0.00    +0.037 C 
ATOM      3  C   UNL     1       0.794  -0.903   0.081  0.00  0.00    +0.017 C 
ATOM      4  C   UNL     1       0.501  -2.385  -0.079  0.00  0.00    +0.063 C 
ATOM      5  C   UNL     1      -0.943  -2.679   0.321  0.00  0.00    +0.068 C 
ATOM      6  C   UNL     1      -1.857  -1.851  -0.591  0.00  0.00    +0.091 C 
ATOM      7  C   UNL     1      -1.485  -0.405  -0.450  0.00  0.00    +0.163 C 
ATOM      8  O   UNL     1      -2.337   0.441  -0.635  0.00  0.00    -0.292 OA
ATOM      9  N   UNL     1       2.079  -0.609   0.405  0.00  0.00    -0.316 N 
ATOM     10  C   UNL     1       2.465   0.288   1.392  0.00  0.00    +0.053 A 
ATOM     11  C   UNL     1       3.142  -0.110   2.532  0.00  0.00    +0.025 A 
ATOM     12  C   UNL     1       3.538   0.844   3.454  0.00  0.00    +0.002 A 
ATOM     13  C   UNL     1       3.262   2.182   3.236  0.00  0.00    +0.002 A 
ATOM     14  C   UNL     1       2.568   2.579   2.106  0.00  0.00    +0.025 A 
ATOM     15  C   UNL     1       2.152   1.624   1.193  0.00  0.00    +0.059 A 
ATOM     16  N   UNL     1       1.352   1.962   0.100  0.00  0.00    -0.251 N 
ATOM     17  C   UNL     1       1.864   2.725  -0.887  0.00  0.00    +0.325 C 
ATOM     18  O   UNL     1       1.177   3.024  -1.841  0.00  0.00    -0.265 OA
ATOM     19  H   UNL     1       2.907  -1.096  -0.131  0.00  0.00    +0.152 HD
ENDROOT
BRANCH   1  23
ATOM     20  C   UNL     1      -2.111   2.812   3.501  0.00  0.00    +0.030 A 
ATOM     21  C   UNL     1      -2.513   3.247   2.244  0.00  0.00    +0.023 A 
ATOM     22  C   UNL     1      -1.835   2.823   1.119  0.00  0.00    +0.007 A 
ATOM     23  C   UNL     1      -0.756   1.966   1.241  0.00  0.00    -0.022 A 
ATOM     24  C   UNL     1      -0.356   1.526   2.490  0.00  0.00    +0.007 A 
ATOM     25  C   UNL     1      -1.027   1.951   3.620  0.00  0.00    +0.023 A 
BRANCH  20  26
ATOM     26  N   UNL     1      -2.794   3.239   4.641  0.00  0.00    -0.330 N 
BRANCH  26  28
ATOM     27  C   UNL     1      -1.333   3.751   6.535  0.00  0.00    +0.024 C 
ATOM     28  C   UNL     1      -2.369   2.779   5.966  0.00  0.00    +0.102 C 
ENDBRANCH  26  28
BRANCH  26  29
ATOM     29  C   UNL     1      -3.937   4.147   4.514  0.00  0.00    +0.102 C 
ATOM     30  C   UNL     1      -5.222   3.331   4.362  0.00  0.00    +0.024 C 
ENDBRANCH  26  29
ENDBRANCH  20  26
ENDBRANCH   1  23
BRANCH   5  31
ATOM     31  C   UNL     1      -1.235  -4.146   0.139  0.00  0.00    +0.109 A 
ATOM     32  C   UNL     1      -1.619  -4.998   1.107  0.00  0.00    +0.045 A 
ATOM     33  C   UNL     1      -1.781  -6.264   0.499  0.00  0.00    +0.041 A 
ATOM     34  C   UNL     1      -1.486  -6.110  -0.805  0.00  0.00    +0.195 A 
ATOM     35  O   UNL     1      -1.162  -4.824  -1.018  0.00  0.00    -0.468 OA
ENDBRANCH   5  31
BRANCH  17  36
ATOM     36  C   UNL     1       3.289   3.206  -0.805  0.00  0.00    +0.470 C 
ATOM     37  F   UNL     1       3.588   3.974  -1.936  0.00  0.00    -0.162 F 
ATOM     38  F   UNL     1       3.453   3.987   0.345  0.00  0.00    -0.162 F 
ATOM     39  F   UNL     1       4.151   2.106  -0.747  0.00  0.00    -0.162 F 
ENDBRANCH  17  36
TORSDOF 6
