REMARK  Name = ZINC08828387
REMARK  9 active torsions:
REMARK  status: ('A' for Active; 'I' for Inactive)
REMARK    1  A    between atoms: C_1  and  C_2
REMARK    2  A    between atoms: C_2  and  O_3
REMARK    3  A    between atoms: O_3  and  C_4
REMARK    4  A    between atoms: C_7  and  C_12
REMARK    5  A    between atoms: C_9  and  O_10
REMARK    6  A    between atoms: O_10  and  C_11
REMARK    7  A    between atoms: N_16  and  C_20
REMARK    8  A    between atoms: C_23  and  O_28
REMARK    9  A    between atoms: C_24  and  C_26
REMARK                            x       y       z     vdW  Elec       q    Type
REMARK                         _______ _______ _______ _____ _____    ______ ____
ROOT
ATOM      1  C   UNL     1       2.459   1.395  -1.133  0.00  0.00    +0.028 C 
ATOM      2  C   UNL     1       3.626   1.940  -0.706  0.00  0.00    +0.078 C 
ATOM      3  C   UNL     1       5.010   1.451  -0.874  0.00  0.00    +0.263 C 
ATOM      4  O   UNL     1       5.255   0.417  -1.466  0.00  0.00    -0.269 OA
ATOM      5  N   UNL     1       5.969   2.197  -0.352  0.00  0.00    -0.224 N 
ATOM      6  C   UNL     1       5.692   3.339   0.310  0.00  0.00    +0.125 C 
ATOM      7  S   UNL     1       6.783   4.427   1.057  0.00  0.00    -0.027 S 
ATOM      8  S   UNL     1       3.911   3.442   0.221  0.00  0.00    -0.061 S 
ENDROOT
BRANCH   1  12
ATOM      9  C   UNL     1      -1.237   3.003   0.194  0.00  0.00    +0.162 A 
ATOM     10  C   UNL     1      -0.048   3.431   0.770  0.00  0.00    +0.050 A 
ATOM     11  C   UNL     1       1.154   2.912   0.343  0.00  0.00    +0.012 A 
ATOM     12  C   UNL     1       1.179   1.950  -0.675  0.00  0.00    -0.020 A 
ATOM     13  C   UNL     1      -0.021   1.519  -1.254  0.00  0.00    +0.057 A 
ATOM     14  C   UNL     1      -1.221   2.050  -0.824  0.00  0.00    +0.162 A 
BRANCH  14  15
ATOM     15  O   UNL     1      -2.388   1.638  -1.388  0.00  0.00    -0.491 OA
ATOM     16  C   UNL     1      -2.298   0.655  -2.421  0.00  0.00    +0.277 C 
ENDBRANCH  14  15
BRANCH   9  17
ATOM     17  O   UNL     1      -2.420   3.519   0.620  0.00  0.00    -0.489 OA
BRANCH  17  19
ATOM     18  C   UNL     1      -3.782   4.958   2.004  0.00  0.00    +0.048 C 
ATOM     19  C   UNL     1      -2.364   4.496   1.661  0.00  0.00    +0.226 C 
ENDBRANCH  17  19
ENDBRANCH   9  17
ENDBRANCH   1  12
BRANCH   5  20
ATOM     20  C   UNL     1       7.304   1.788  -0.484  0.00  0.00    +0.044 A 
ATOM     21  C   UNL     1       8.070   2.252  -1.549  0.00  0.00    +0.027 A 
ATOM     22  C   UNL     1       9.384   1.856  -1.686  0.00  0.00    +0.048 A 
ATOM     23  C   UNL     1       9.952   0.990  -0.763  0.00  0.00    +0.131 A 
ATOM     24  C   UNL     1       9.187   0.518   0.312  0.00  0.00    +0.106 A 
ATOM     25  C   UNL     1       7.858   0.929   0.448  0.00  0.00    +0.042 A 
BRANCH  24  26
ATOM     26  C   UNL     1       9.782  -0.402   1.298  0.00  0.00    +0.390 C 
ATOM     27  O   UNL     1      10.940  -0.753   1.179  0.00  0.00    -0.240 OA
ATOM     28  O   UNL     1       9.043  -0.853   2.331  0.00  0.00    -0.240 OA
ENDBRANCH  24  26
BRANCH  23  29
ATOM     29  O   UNL     1      11.245   0.602  -0.900  0.00  0.00    -0.506 OA
ATOM     30  H   UNL     1      11.879   1.179  -0.452  0.00  0.00    +0.292 HD
ENDBRANCH  23  29
ENDBRANCH   5  20
TORSDOF 7
