REMARK  Name = ZINC45890473
REMARK  8 active torsions:
REMARK  status: ('A' for Active; 'I' for Inactive)
REMARK    1  A    between atoms: C_1  and  C_2
REMARK    2  A    between atoms: C_6  and  C_22
REMARK    3  A    between atoms: C_7  and  N_8
REMARK    4  A    between atoms: C_9  and  C_11
REMARK    5  A    between atoms: C_11  and  C_12
REMARK    6  A    between atoms: C_11  and  C_13
REMARK    7  A    between atoms: C_11  and  O_14
REMARK    8  A    between atoms: O_14  and  C_15
REMARK                            x       y       z     vdW  Elec       q    Type
REMARK                         _______ _______ _______ _____ _____    ______ ____
ROOT
ATOM      1  N   UNL     1       0.089  -0.239   2.237  0.00  0.00    -0.282 N 
ATOM      2  C   UNL     1      -0.576   0.934   2.242  0.00  0.00    +0.261 C 
ATOM      3  O   UNL     1      -1.172   1.298   1.251  0.00  0.00    -0.271 OA
ATOM      4  H   UNL     1       0.625  -0.496   3.003  0.00  0.00    +0.155 HD
ENDROOT
BRANCH   1  11
ATOM      5  C   UNL     1      -0.824  -2.899   2.639  0.00  0.00    +0.046 C 
ATOM      6  C   UNL     1      -0.438  -2.399   1.271  0.00  0.00    -0.027 A 
ATOM      7  C   UNL     1      -0.534  -3.244   0.196  0.00  0.00    +0.034 A 
ATOM      8  C   UNL     1      -0.180  -2.809  -1.101  0.00  0.00    +0.081 A 
ATOM      9  C   UNL     1       0.270  -1.474  -1.214  0.00  0.00    +0.045 A 
ATOM     10  C   UNL     1       0.366  -0.630  -0.137  0.00  0.00    -0.013 A 
ATOM     11  C   UNL     1       0.004  -1.087   1.125  0.00  0.00    +0.041 A 
ATOM     12  C   UNL     1       0.853   0.783  -0.321  0.00  0.00    +0.047 C 
ATOM     13  S   UNL     1       0.602  -1.331  -2.954  0.00  0.00    -0.052 S 
ATOM     14  C   UNL     1       0.139  -2.996  -3.409  0.00  0.00    +0.157 A 
ATOM     15  N   UNL     1      -0.218  -3.513  -2.256  0.00  0.00    -0.225 NA
ATOM     16  N   UNL     1       0.152  -3.588  -4.656  0.00  0.00    -0.337 N 
ATOM     17  H   UNL     1       0.442  -3.081  -5.430  0.00  0.00    +0.144 HD
ATOM     18  H   UNL     1      -0.130  -4.511  -4.758  0.00  0.00    +0.144 HD
ENDBRANCH   1  11
BRANCH   2  19
ATOM     19  C   UNL     1      -0.578   1.793   3.480  0.00  0.00    +0.180 C 
ATOM     20  C   UNL     1      -1.196   1.013   4.642  0.00  0.00    +0.065 C 
ATOM     21  C   UNL     1       0.860   2.181   3.834  0.00  0.00    +0.065 C 
BRANCH  19  22
ATOM     22  O   UNL     1      -1.344   2.975   3.239  0.00  0.00    -0.477 OA
BRANCH  22  23
ATOM     23  C   UNL     1      -0.913   3.797   2.246  0.00  0.00    +0.122 A 
ATOM     24  C   UNL     1       0.149   3.416   1.440  0.00  0.00    +0.047 A 
ATOM     25  C   UNL     1       0.586   4.253   0.432  0.00  0.00    +0.019 A 
ATOM     26  C   UNL     1      -0.037   5.471   0.225  0.00  0.00    +0.018 A 
ATOM     27  C   UNL     1      -1.097   5.854   1.028  0.00  0.00    +0.019 A 
ATOM     28  C   UNL     1      -1.540   5.016   2.034  0.00  0.00    +0.047 A 
ATOM     29 BR   UNL     1       0.562   6.616  -1.156  0.00  0.00    -0.050 Br
ENDBRANCH  22  23
ENDBRANCH  19  22
ENDBRANCH   2  19
TORSDOF 4
