REMARK  Name = ZINC13719618
REMARK  5 active torsions:
REMARK  status: ('A' for Active; 'I' for Inactive)
REMARK    1  A    between atoms: C_1  and  C_2
REMARK    2  A    between atoms: C_3  and  C_17
REMARK    3  A    between atoms: C_4  and  O_16
REMARK    4  A    between atoms: C_17  and  C_24
REMARK    5  A    between atoms: N_18  and  C_19
REMARK                            x       y       z     vdW  Elec       q    Type
REMARK                         _______ _______ _______ _____ _____    ______ ____
ROOT
ATOM      1  C   UNL     1      -0.291   1.864  -0.424  0.00  0.00    +0.068 C 
ATOM      2  C   UNL     1      -0.070   0.392  -0.185  0.00  0.00    +0.073 A 
ATOM      3  C   UNL     1       0.077  -0.597  -1.187  0.00  0.00    +0.080 A 
ATOM      4  C   UNL     1       0.261  -1.810  -0.537  0.00  0.00    +0.227 A 
ATOM      5  N   UNL     1       0.226  -1.560   0.792  0.00  0.00    -0.175 N 
ATOM      6  N   UNL     1       0.026  -0.188   0.978  0.00  0.00    -0.166 NA
ATOM      7  C   UNL     1       0.369  -2.505   1.802  0.00  0.00    +0.198 A 
ATOM      8  N   UNL     1       0.568  -3.797   1.697  0.00  0.00    -0.221 NA
ATOM      9  C   UNL     1       0.690  -4.603   2.773  0.00  0.00    +0.081 A 
ATOM     10  C   UNL     1       0.905  -6.001   2.797  0.00  0.00    +0.029 A 
ATOM     11  C   UNL     1       1.006  -6.673   3.987  0.00  0.00    +0.002 A 
ATOM     12  C   UNL     1       0.902  -6.013   5.204  0.00  0.00    +0.001 A 
ATOM     13  C   UNL     1       0.693  -4.646   5.218  0.00  0.00    +0.017 A 
ATOM     14  C   UNL     1       0.590  -3.965   4.030  0.00  0.00    +0.041 A 
ATOM     15  S   UNL     1       0.337  -2.267   3.573  0.00  0.00    -0.048 S 
ENDROOT
BRANCH   3  16
ATOM     16  C   UNL     1       0.041  -0.381  -2.639  0.00  0.00    +0.047 C 
ATOM     17  N   UNL     1       1.136  -0.119  -3.283  0.00  0.00    -0.284 NA
ATOM     18  C   UNL     1      -1.268  -0.464  -3.382  0.00  0.00    +0.066 C 
BRANCH  17  19
ATOM     19  C   UNL     1       1.086   0.219  -4.708  0.00  0.00    +0.106 C 
ATOM     20  C   UNL     1       1.867   1.523  -4.970  0.00  0.00    +0.027 C 
ATOM     21  C   UNL     1       3.272   1.042  -5.411  0.00  0.00    +0.002 C 
ATOM     22  C   UNL     1       2.951  -0.206  -6.271  0.00  0.00    +0.002 C 
ATOM     23  C   UNL     1       1.775  -0.880  -5.535  0.00  0.00    +0.027 C 
ENDBRANCH  17  19
ENDBRANCH   3  16
BRANCH   4  24
ATOM     24  O   UNL     1       0.440  -3.017  -1.123  0.00  0.00    -0.492 OA
ATOM     25  H   UNL     1       1.366  -3.237  -1.295  0.00  0.00    +0.294 HD
ENDBRANCH   4  24
TORSDOF 3
