REMARK  Name = ZINC18199950
REMARK  6 active torsions:
REMARK  status: ('A' for Active; 'I' for Inactive)
REMARK    1  A    between atoms: C_1  and  O_2
REMARK    2  A    between atoms: O_2  and  C_3
REMARK    3  A    between atoms: C_6  and  C_11
REMARK    4  A    between atoms: C_8  and  O_9
REMARK    5  A    between atoms: O_9  and  C_10
REMARK    6  A    between atoms: C_16  and  C_28
REMARK                            x       y       z     vdW  Elec       q    Type
REMARK                         _______ _______ _______ _____ _____    ______ ____
ROOT
ATOM      1  C   UNL     1       3.357   6.388   3.406  0.00  0.00    +0.032 C 
ATOM      2  C   UNL     1       2.327   6.968   2.435  0.00  0.00    +0.059 C 
ATOM      3  C   UNL     1       2.271   6.120   1.188  0.00  0.00    +0.016 C 
ATOM      4  C   UNL     1       2.522   4.794   1.235  0.00  0.00    +0.024 C 
ATOM      5  C   UNL     1       2.451   3.936  -0.002  0.00  0.00    +0.086 C 
ATOM      6  C   UNL     1       2.521   4.763  -1.254  0.00  0.00    -0.011 A 
ATOM      7  C   UNL     1       2.834   4.159  -2.459  0.00  0.00    +0.056 A 
ATOM      8  C   UNL     1       2.894   4.911  -3.621  0.00  0.00    +0.167 A 
ATOM      9  C   UNL     1       2.640   6.280  -3.578  0.00  0.00    +0.168 A 
ATOM     10  C   UNL     1       2.331   6.885  -2.372  0.00  0.00    +0.073 A 
ATOM     11  C   UNL     1       2.272   6.127  -1.210  0.00  0.00    +0.039 A 
ATOM     12  N   UNL     1       1.961   6.734   0.008  0.00  0.00    -0.317 N 
ATOM     13  O   UNL     1       2.759   6.786  -4.840  0.00  0.00    -0.453 OA
ATOM     14  C   UNL     1       3.487   5.793  -5.586  0.00  0.00    +0.466 C 
ATOM     15  O   UNL     1       3.174   4.560  -4.911  0.00  0.00    -0.453 OA
ATOM     16  C   UNL     1       2.860   4.166   2.446  0.00  0.00    +0.162 C 
ATOM     17  O   UNL     1       3.077   2.970   2.456  0.00  0.00    -0.292 OA
ATOM     18  C   UNL     1       2.959   4.944   3.729  0.00  0.00    +0.088 C 
ATOM     19  H   UNL     1       1.520   7.598   0.017  0.00  0.00    +0.152 HD
ENDROOT
BRANCH   5  20
ATOM     20  C   UNL     1       1.156   3.166   0.007  0.00  0.00    -0.035 A 
ATOM     21  C   UNL     1       1.175   1.783   0.000  0.00  0.00    +0.007 A 
ATOM     22  C   UNL     1      -0.013   1.076   0.008  0.00  0.00    +0.038 A 
ATOM     23  C   UNL     1      -1.221   1.752   0.017  0.00  0.00    +0.123 A 
ATOM     24  C   UNL     1      -1.238   3.136   0.030  0.00  0.00    +0.038 A 
ATOM     25  C   UNL     1      -0.050   3.842   0.022  0.00  0.00    +0.007 A 
ATOM     26  F   UNL     1      -2.382   1.062   0.019  0.00  0.00    -0.205 F 
ENDBRANCH   5  20
BRANCH   1  30
ATOM     27  C   UNL     1       3.404   8.702   7.002  0.00  0.00    +0.161 A 
ATOM     28  C   UNL     1       2.235   8.085   6.588  0.00  0.00    +0.049 A 
ATOM     29  C   UNL     1       2.222   7.342   5.422  0.00  0.00    +0.008 A 
ATOM     30  C   UNL     1       3.376   7.204   4.673  0.00  0.00    -0.040 A 
ATOM     31  C   UNL     1       4.546   7.817   5.081  0.00  0.00    +0.053 A 
ATOM     32  C   UNL     1       4.565   8.568   6.246  0.00  0.00    +0.162 A 
BRANCH  27  34
ATOM     33  C   UNL     1       2.190   9.533   8.871  0.00  0.00    +0.277 C 
ATOM     34  O   UNL     1       3.418   9.438   8.146  0.00  0.00    -0.491 OA
ENDBRANCH  27  34
BRANCH  32  35
ATOM     35  O   UNL     1       5.715   9.171   6.649  0.00  0.00    -0.491 OA
ATOM     36  C   UNL     1       6.867   8.990   5.823  0.00  0.00    +0.277 C 
ENDBRANCH  32  35
ENDBRANCH   1  30
TORSDOF 4
