REMARK  Name = ZINC40287063
REMARK  3 active torsions:
REMARK  status: ('A' for Active; 'I' for Inactive)
REMARK    1  A    between atoms: C_3  and  N_8
REMARK    2  A    between atoms: C_17  and  C_19
REMARK    3  A    between atoms: C_22  and  C_25
REMARK                            x       y       z     vdW  Elec       q    Type
REMARK                         _______ _______ _______ _____ _____    ______ ____
ROOT
ATOM      1  N   UNL     1       3.586   2.127  -0.021  0.00  0.00    -0.287 N 
ATOM      2  C   UNL     1       3.916   3.158  -0.856  0.00  0.00    +0.205 A 
ATOM      3  N   UNL     1       5.122   3.569  -0.561  0.00  0.00    -0.238 NA
ATOM      4  C   UNL     1       5.602   2.841   0.445  0.00  0.00    +0.089 A 
ATOM      5  C   UNL     1       4.650   1.934   0.803  0.00  0.00    +0.133 A 
ATOM      6  N   UNL     1       4.847   1.025   1.844  0.00  0.00    -0.270 N 
ATOM      7  C   UNL     1       6.102   0.869   2.320  0.00  0.00    +0.219 C 
ATOM      8  O   UNL     1       6.277   0.173   3.298  0.00  0.00    -0.275 OA
ATOM      9  C   UNL     1       7.287   1.529   1.676  0.00  0.00    +0.110 C 
ATOM     10  C   UNL     1       6.937   2.917   1.142  0.00  0.00    +0.080 C 
ATOM     11  H   UNL     1       4.105   0.521   2.215  0.00  0.00    +0.156 HD
ENDROOT
BRANCH   1  14
ATOM     12  C   UNL     1      -0.017   1.378   0.010  0.00  0.00    +0.003 A 
ATOM     13  C   UNL     1       1.169   2.087   0.002  0.00  0.00    +0.026 A 
ATOM     14  C   UNL     1       2.381   1.410  -0.013  0.00  0.00    +0.050 A 
ATOM     15  C   UNL     1       2.398   0.022  -0.021  0.00  0.00    +0.041 A 
ATOM     16  C   UNL     1       1.208  -0.682  -0.013  0.00  0.00    +0.020 A 
ATOM     17  C   UNL     1       0.002  -0.004   0.002  0.00  0.00    +0.015 A 
ATOM     18 BR   UNL     1       1.229  -2.573  -0.024  0.00  0.00    -0.050 Br
ENDBRANCH   1  14
BRANCH  10  19
ATOM     19  C   UNL     1       6.852   3.882   2.297  0.00  0.00    -0.038 A 
ATOM     20  C   UNL     1       5.957   3.648   3.325  0.00  0.00    +0.005 A 
ATOM     21  C   UNL     1       5.873   4.527   4.385  0.00  0.00    +0.019 A 
ATOM     22  C   UNL     1       6.696   5.655   4.418  0.00  0.00    +0.052 A 
ATOM     23  C   UNL     1       7.597   5.885   3.377  0.00  0.00    +0.019 A 
ATOM     24  C   UNL     1       7.673   4.995   2.326  0.00  0.00    +0.005 A 
BRANCH  22  25
ATOM     25  C   UNL     1       6.614   6.572   5.515  0.00  0.00    +0.099 C 
ATOM     26  N   UNL     1       6.550   7.300   6.385  0.00  0.00    -0.191 NA
ENDBRANCH  22  25
ENDBRANCH  10  19
TORSDOF 3
