REMARK  Name = ZINC19841767
REMARK  7 active torsions:
REMARK  status: ('A' for Active; 'I' for Inactive)
REMARK    1  A    between atoms: C_1  and  C_2
REMARK    2  A    between atoms: C_4  and  C_32
REMARK    3  A    between atoms: C_5  and  C_17
REMARK    4  A    between atoms: C_7  and  C_8
REMARK    5  A    between atoms: C_8  and  O_9
REMARK    6  A    between atoms: O_9  and  C_10
REMARK    7  A    between atoms: C_22  and  C_23
REMARK                            x       y       z     vdW  Elec       q    Type
REMARK                         _______ _______ _______ _____ _____    ______ ____
ROOT
ATOM      1  C   UNL     1      -1.401  -4.993  -0.012  0.00  0.00    +0.044 C 
ATOM      2  C   UNL     1      -2.613  -4.097   0.004  0.00  0.00    -0.044 A 
ATOM      3  C   UNL     1      -3.880  -4.652   0.013  0.00  0.00    +0.007 A 
ATOM      4  C   UNL     1      -4.993  -3.836   0.028  0.00  0.00    -0.042 A 
ATOM      5  C   UNL     1      -4.839  -2.450   0.034  0.00  0.00    -0.013 A 
ATOM      6  C   UNL     1      -3.559  -1.897   0.030  0.00  0.00    +0.016 A 
ATOM      7  C   UNL     1      -2.453  -2.723   0.010  0.00  0.00    -0.007 A 
ATOM      8  C   UNL     1      -6.373  -4.442   0.037  0.00  0.00    +0.044 C 
ENDROOT
BRANCH   5   9
ATOM      9  C   UNL     1      -6.031  -1.568   0.051  0.00  0.00    +0.008 A 
ATOM     10  C   UNL     1      -6.631  -1.126  -1.158  0.00  0.00    -0.017 A 
ATOM     11  C   UNL     1      -7.722  -0.300  -1.021  0.00  0.00    +0.047 A 
ATOM     12  N   UNL     1      -8.202   0.058   0.165  0.00  0.00    -0.236 NA
ATOM     13  C   UNL     1      -7.683  -0.334   1.309  0.00  0.00    +0.135 A 
ATOM     14  C   UNL     1      -6.558  -1.174   1.290  0.00  0.00    +0.099 A 
ATOM     15  N   UNL     1      -8.235   0.074   2.510  0.00  0.00    -0.342 N 
ATOM     16  C   UNL     1      -8.468   0.272  -2.206  0.00  0.00    +0.056 C 
ATOM     17  C   UNL     1      -7.688   1.482  -2.731  0.00  0.00    +0.006 C 
ATOM     18  C   UNL     1      -6.253   1.087  -3.050  0.00  0.00    +0.000 C 
ATOM     19  C   UNL     1      -6.387   0.078  -4.169  0.00  0.00    +0.000 C 
ATOM     20  C   UNL     1      -6.590  -1.358  -3.728  0.00  0.00    +0.005 C 
ATOM     21  C   UNL     1      -5.937  -1.651  -2.385  0.00  0.00    +0.037 C 
ATOM     22  H   UNL     1      -7.793  -0.260   3.461  0.00  0.00    +0.144 HD
ATOM     23  H   UNL     1      -9.116   0.732   2.515  0.00  0.00    +0.144 HD
BRANCH  14  24
ATOM     24  C   UNL     1      -5.957  -1.620   2.511  0.00  0.00    +0.103 C 
ATOM     25  N   UNL     1      -5.480  -1.973   3.480  0.00  0.00    -0.191 NA
ENDBRANCH  14  24
ENDBRANCH   5   9
BRANCH   7  26
ATOM     26  C   UNL     1      -1.069  -2.127   0.000  0.00  0.00    +0.264 C 
BRANCH  26  27
ATOM     27  O   UNL     1      -1.165  -0.701   0.009  0.00  0.00    -0.486 OA
BRANCH  27  28
ATOM     28  C   UNL     1       0.002  -0.004   0.002  0.00  0.00    +0.135 A 
ATOM     29  C   UNL     1       1.214  -0.679  -0.013  0.00  0.00    +0.047 A 
ATOM     30  C   UNL     1       2.399   0.032  -0.021  0.00  0.00    +0.004 A 
ATOM     31  C   UNL     1       2.378   1.414  -0.013  0.00  0.00    +0.001 A 
ATOM     32  C   UNL     1       1.172   2.090   0.002  0.00  0.00    +0.019 A 
ATOM     33  C   UNL     1      -0.017   1.384   0.010  0.00  0.00    +0.059 A 
ATOM     34 BR   UNL     1      -1.667   2.308   0.022  0.00  0.00    -0.047 Br
ENDBRANCH  27  28
ENDBRANCH  26  27
ENDBRANCH   7  26
TORSDOF 5
