REMARK  Name = ZINC14016295
REMARK  7 active torsions:
REMARK  status: ('A' for Active; 'I' for Inactive)
REMARK    1  A    between atoms: C_1  and  C_2
REMARK    2  A    between atoms: C_2  and  C_4
REMARK    3  A    between atoms: C_2  and  N_54
REMARK    4  A    between atoms: N_6  and  C_7
REMARK    5  A    between atoms: C_7  and  C_8
REMARK    6  A    between atoms: C_8  and  C_9
REMARK    7  A    between atoms: C_16  and  N_19
REMARK                            x       y       z     vdW  Elec       q    Type
REMARK                         _______ _______ _______ _____ _____    ______ ____
ROOT
ATOM      1  C   UNL     1       6.062  -1.243  -4.775  0.00  0.00    -0.076 C 
ATOM      2  C   UNL     1       6.463  -1.274  -6.252  0.00  0.00    +0.006 C 
ATOM      3  C   UNL     1       7.939  -1.665  -6.366  0.00  0.00    +0.089 C 
ATOM      4  C   UNL     1       8.787  -0.667  -5.572  0.00  0.00    +0.006 C 
ATOM      5  C   UNL     1       8.318  -0.654  -4.115  0.00  0.00    -0.076 C 
ATOM      6  N   UNL     1       6.897  -0.246  -4.072  0.00  0.00    +0.387 N 
ATOM      7  H   UNL     1       6.797   0.662  -4.539  0.00  0.00    -0.081 HD
ENDROOT
BRANCH   3   8
ATOM      8  N   UNL     1       8.346  -1.641  -7.773  0.00  0.00    -0.289 N 
ATOM      9  C   UNL     1       8.843  -2.722  -8.497  0.00  0.00    +0.070 A 
ATOM     10  C   UNL     1       9.098  -4.046  -8.175  0.00  0.00    +0.028 A 
ATOM     11  C   UNL     1       9.606  -4.901  -9.133  0.00  0.00    +0.002 A 
ATOM     12  C   UNL     1       9.859  -4.443 -10.414  0.00  0.00    +0.002 A 
ATOM     13  C   UNL     1       9.608  -3.126 -10.745  0.00  0.00    +0.028 A 
ATOM     14  C   UNL     1       9.099  -2.259  -9.789  0.00  0.00    +0.067 A 
ATOM     15  N   UNL     1       8.749  -0.911  -9.811  0.00  0.00    -0.306 N 
ATOM     16  H   UNL     1       8.817  -0.319 -10.576  0.00  0.00    +0.170 HD
ATOM     17  C   UNL     1       8.296  -0.571  -8.589  0.00  0.00    +0.328 A 
ATOM     18  O   UNL     1       7.905   0.536  -8.271  0.00  0.00    -0.247 OA
ENDBRANCH   3   8
BRANCH   6  20
ATOM     19  C   UNL     1       6.519  -1.467  -1.955  0.00  0.00    -0.004 C 
ATOM     20  C   UNL     1       6.453  -0.116  -2.669  0.00  0.00    +0.016 C 
BRANCH  20  21
ATOM     21  C   UNL     1       5.034   0.392  -2.653  0.00  0.00    +0.199 C 
ATOM     22  O   UNL     1       4.453   0.602  -3.697  0.00  0.00    -0.278 OA
ATOM     23  N   UNL     1       4.410   0.614  -1.478  0.00  0.00    -0.316 N 
ATOM     24  H   UNL     1       4.875   0.446  -0.644  0.00  0.00    +0.149 HD
BRANCH  23  25
ATOM     25  C   UNL     1       3.031   1.107  -1.463  0.00  0.00    +0.109 C 
BRANCH  25  26
ATOM     26  C   UNL     1       2.565   1.272  -0.015  0.00  0.00    +0.061 C 
BRANCH  26  27
ATOM     27  C   UNL     1       1.146   1.780   0.001  0.00  0.00    -0.009 A 
ATOM     28  C   UNL     1      -0.013   1.076   0.008  0.00  0.00    +0.011 A 
ATOM     29  C   UNL     1      -1.213   1.761   0.017  0.00  0.00    +0.008 A 
ATOM     30  C   UNL     1      -1.196   3.116   0.030  0.00  0.00    +0.045 A 
ATOM     31  S   UNL     1       0.555   3.464   0.015  0.00  0.00    -0.102 S 
ENDBRANCH  26  27
ENDBRANCH  25  26
ENDBRANCH  23  25
ENDBRANCH  20  21
ENDBRANCH   6  20
TORSDOF 6
