REMARK  Name = ZINC02948167
REMARK  8 active torsions:
REMARK  status: ('A' for Active; 'I' for Inactive)
REMARK    1  A    between atoms: C_1  and  C_2
REMARK    2  A    between atoms: C_5  and  N_8
REMARK    3  A    between atoms: C_12  and  C_13
REMARK    4  A    between atoms: C_15  and  O_24
REMARK    5  A    between atoms: C_16  and  O_20
REMARK    6  A    between atoms: O_20  and  C_21
REMARK    7  A    between atoms: C_21  and  C_22
REMARK    8  A    between atoms: O_24  and  C_25
REMARK                            x       y       z     vdW  Elec       q    Type
REMARK                         _______ _______ _______ _____ _____    ______ ____
ROOT
ATOM      1  N   UNL     1       3.462   1.736  -0.486  0.00  0.00    -0.190 N 
ATOM      2  C   UNL     1       2.402   0.934  -0.719  0.00  0.00    +0.263 C 
ATOM      3  O   UNL     1       2.545  -0.266  -0.858  0.00  0.00    -0.269 OA
ATOM      4  C   UNL     1       1.064   1.552  -0.798  0.00  0.00    +0.100 C 
ATOM      5  C   UNL     1      -0.068   0.795  -1.033  0.00  0.00    +0.026 C 
ATOM      6  C   UNL     1       0.990   3.016  -0.621  0.00  0.00    +0.257 C 
ATOM      7  O   UNL     1      -0.076   3.599  -0.677  0.00  0.00    -0.270 OA
ATOM      8  N   UNL     1       2.137   3.688  -0.389  0.00  0.00    -0.235 N 
ATOM      9  C   UNL     1       3.318   3.059  -0.330  0.00  0.00    +0.320 C 
ATOM     10  O   UNL     1       4.314   3.724  -0.123  0.00  0.00    -0.251 OA
ATOM     11  H   UNL     1       2.106   4.650  -0.267  0.00  0.00    +0.159 HD
ENDROOT
BRANCH   1  16
ATOM     12  C   UNL     1       8.648  -0.547  -0.166  0.00  0.00    +0.044 C 
ATOM     13  C   UNL     1       7.271   0.059  -0.251  0.00  0.00    -0.050 A 
ATOM     14  C   UNL     1       6.840   0.629  -1.435  0.00  0.00    +0.005 A 
ATOM     15  C   UNL     1       5.578   1.185  -1.516  0.00  0.00    +0.024 A 
ATOM     16  C   UNL     1       4.742   1.172  -0.407  0.00  0.00    +0.046 A 
ATOM     17  C   UNL     1       5.180   0.604   0.781  0.00  0.00    +0.024 A 
ATOM     18  C   UNL     1       6.441   0.044   0.855  0.00  0.00    +0.005 A 
ENDBRANCH   1  16
BRANCH   5  19
ATOM     19  C   UNL     1      -1.393   1.383  -0.839  0.00  0.00    -0.019 A 
ATOM     20  C   UNL     1      -1.649   2.192   0.279  0.00  0.00    +0.057 A 
ATOM     21  C   UNL     1      -2.899   2.746   0.453  0.00  0.00    +0.163 A 
ATOM     22  C   UNL     1      -3.911   2.494  -0.475  0.00  0.00    +0.176 A 
ATOM     23  C   UNL     1      -3.662   1.689  -1.581  0.00  0.00    +0.059 A 
ATOM     24  C   UNL     1      -2.416   1.135  -1.767  0.00  0.00    +0.026 A 
ATOM     25  I   UNL     1      -5.189   1.317  -2.966  0.00  0.00    -0.040 I 
BRANCH  21  26
ATOM     26  O   UNL     1      -3.148   3.535   1.533  0.00  0.00    -0.491 OA
ATOM     27  C   UNL     1      -2.067   3.751   2.442  0.00  0.00    +0.277 C 
ENDBRANCH  21  26
BRANCH  22  28
ATOM     28  O   UNL     1      -5.142   3.038  -0.298  0.00  0.00    -0.475 OA
BRANCH  28  29
ATOM     29  C   UNL     1      -6.087   2.273   0.453  0.00  0.00    +0.317 C 
BRANCH  29  30
ATOM     30  C   UNL     1      -7.356   3.013   0.543  0.00  0.00    -0.065 C 
ATOM     31  C   UNL     1      -8.369   3.602   0.615  0.00  0.00    +0.007 C 
ENDBRANCH  29  30
ENDBRANCH  28  29
ENDBRANCH  22  28
ENDBRANCH   5  19
TORSDOF 6
