REMARK  Name = ZINC39677139
REMARK  6 active torsions:
REMARK  status: ('A' for Active; 'I' for Inactive)
REMARK    1  A    between atoms: C_1  and  C_2
REMARK    2  A    between atoms: C_6  and  C_7
REMARK    3  A    between atoms: C_7  and  N_8
REMARK    4  A    between atoms: C_9  and  C_11
REMARK    5  A    between atoms: C_22  and  C_24
REMARK    6  A    between atoms: C_30  and  C_32
REMARK                            x       y       z     vdW  Elec       q    Type
REMARK                         _______ _______ _______ _____ _____    ______ ____
ROOT
ATOM      1  C   UNL     1      -3.007   0.580   4.784  0.00  0.00    +0.100 C 
ATOM      2  C   UNL     1      -3.754  -0.770   4.703  0.00  0.00    +0.121 C 
ATOM      3  N   UNL     1      -3.618  -1.355   6.058  0.00  0.00    -0.299 N 
ATOM      4  C   UNL     1      -3.773  -0.201   6.975  0.00  0.00    +0.115 C 
ATOM      5  C   UNL     1      -3.025   0.952   6.277  0.00  0.00    -0.004 C 
ATOM      6  C   UNL     1      -3.770   2.267   6.484  0.00  0.00    -0.010 C 
ATOM      7  C   UNL     1      -3.723   2.646   7.968  0.00  0.00    -0.082 C 
ATOM      8  N   UNL     1      -2.326   2.778   8.397  0.00  0.00    +0.379 N 
ATOM      9  C   UNL     1      -1.642   1.485   8.281  0.00  0.00    -0.082 C 
ATOM     10  C   UNL     1      -1.600   1.057   6.812  0.00  0.00    -0.010 C 
ATOM     11  C   UNL     1      -3.403  -2.646   6.383  0.00  0.00    +0.236 C 
ATOM     12  O   UNL     1      -3.314  -2.971   7.548  0.00  0.00    -0.274 OA
ATOM     13  H   UNL     1      -1.859   3.457   7.815  0.00  0.00    -0.086 HD
ATOM     14  H   UNL     1      -2.299   3.087   9.357  0.00  0.00    -0.086 HD
ENDROOT
BRANCH  11  15
ATOM     15  C   UNL     1      -3.272  -3.684   5.298  0.00  0.00    +0.162 C 
ATOM     16  C   UNL     1      -4.671  -4.097   4.796  0.00  0.00    +0.033 C 
ATOM     17  C   UNL     1      -4.519  -5.624   4.562  0.00  0.00    +0.021 C 
ATOM     18  C   UNL     1      -3.565  -6.022   5.716  0.00  0.00    +0.109 C 
ATOM     19  N   UNL     1      -2.624  -4.889   5.836  0.00  0.00    -0.283 N 
ATOM     20  C   UNL     1      -1.380  -4.949   6.351  0.00  0.00    +0.320 C 
ATOM     21  O   UNL     1      -0.694  -3.950   6.398  0.00  0.00    -0.266 OA
BRANCH  20  22
ATOM     22  C   UNL     1      -0.840  -6.258   6.869  0.00  0.00    +0.470 C 
ATOM     23  F   UNL     1       0.460  -6.069   7.349  0.00  0.00    -0.162 F 
ATOM     24  F   UNL     1      -1.658  -6.722   7.905  0.00  0.00    -0.162 F 
ATOM     25  F   UNL     1      -0.823  -7.197   5.832  0.00  0.00    -0.162 F 
ENDBRANCH  20  22
ENDBRANCH  11  15
BRANCH   1  27
ATOM     26  N   UNL     1      -0.947   1.474   3.748  0.00  0.00    -0.310 N 
ATOM     27  C   UNL     1      -1.589   0.425   4.299  0.00  0.00    +0.218 C 
ATOM     28  O   UNL     1      -1.025  -0.643   4.404  0.00  0.00    -0.275 OA
ATOM     29  H   UNL     1      -1.398   2.329   3.663  0.00  0.00    +0.149 HD
BRANCH  26  30
ATOM     30  C   UNL     1       0.431   1.324   3.276  0.00  0.00    +0.147 C 
BRANCH  30  36
ATOM     31  C   UNL     1       1.850   3.577   4.808  0.00  0.00    +0.044 C 
ATOM     32  C   UNL     1       1.542   3.657   3.335  0.00  0.00    -0.039 A 
ATOM     33  C   UNL     1       1.902   4.773   2.603  0.00  0.00    +0.011 A 
ATOM     34  C   UNL     1       1.610   4.814   1.280  0.00  0.00    +0.046 A 
ATOM     35  S   UNL     1       0.802   3.241   1.032  0.00  0.00    -0.100 S 
ATOM     36  C   UNL     1       0.913   2.634   2.707  0.00  0.00    +0.010 A 
ENDBRANCH  30  36
ENDBRANCH  26  30
ENDBRANCH   1  27
TORSDOF 5
