REMARK  Name = ZINC02998341
REMARK  7 active torsions:
REMARK  status: ('A' for Active; 'I' for Inactive)
REMARK    1  A    between atoms: C_1  and  C_2
REMARK    2  A    between atoms: C_2  and  C_3
REMARK    3  A    between atoms: C_2  and  C_4
REMARK    4  A    between atoms: C_4  and  O_5
REMARK    5  A    between atoms: O_5  and  C_6
REMARK    6  A    between atoms: C_6  and  C_8
REMARK    7  A    between atoms: C_21  and  C_24
REMARK                            x       y       z     vdW  Elec       q    Type
REMARK                         _______ _______ _______ _____ _____    ______ ____
ROOT
ATOM      1  C   UNL     1      -0.158   8.173  -0.637  0.00  0.00    +0.059 A 
ATOM      2  C   UNL     1       0.116   8.078   0.731  0.00  0.00    +0.017 A 
ATOM      3  C   UNL     1       0.919   7.075   1.193  0.00  0.00    +0.024 A 
ATOM      4  C   UNL     1       1.464   6.147   0.307  0.00  0.00    +0.031 A 
ATOM      5  C   UNL     1       1.205   6.229  -1.053  0.00  0.00    -0.019 A 
ATOM      6  C   UNL     1       0.391   7.245  -1.523  0.00  0.00    +0.021 A 
ATOM      7  C   UNL     1       1.772   5.259  -2.054  0.00  0.00    +0.049 C 
ATOM      8  C   UNL     1       2.599   6.047  -3.060  0.00  0.00    -0.023 C 
ATOM      9  C   UNL     1       3.866   6.018  -2.733  0.00  0.00    -0.030 C 
ATOM     10  C   UNL     1       4.069   5.206  -1.466  0.00  0.00    +0.033 C 
ATOM     11  C   UNL     1       2.809   4.310  -1.425  0.00  0.00    +0.029 C 
ATOM     12  C   UNL     1       2.451   3.937   0.001  0.00  0.00    +0.105 C 
ATOM     13  N   UNL     1       2.299   5.154   0.805  0.00  0.00    -0.336 N 
ATOM     14  H   UNL     1       2.748   5.249   1.659  0.00  0.00    +0.147 HD
ENDROOT
BRANCH  12  15
ATOM     15  C   UNL     1       1.156   3.165   0.008  0.00  0.00    -0.027 A 
ATOM     16  C   UNL     1       1.175   1.784  -0.028  0.00  0.00    +0.005 A 
ATOM     17  C   UNL     1      -0.013   1.076  -0.021  0.00  0.00    +0.000 A 
ATOM     18  C   UNL     1      -1.219   1.751   0.017  0.00  0.00    +0.000 A 
ATOM     19  C   UNL     1      -1.237   3.132   0.058  0.00  0.00    +0.000 A 
ATOM     20  C   UNL     1      -0.050   3.840   0.051  0.00  0.00    +0.005 A 
ENDBRANCH  12  15
BRANCH   1  21
ATOM     21  C   UNL     1      -1.024   9.253  -1.142  0.00  0.00    +0.339 C 
ATOM     22  O   UNL     1      -1.262   9.335  -2.331  0.00  0.00    -0.245 OA
BRANCH  21  23
ATOM     23  O   UNL     1      -1.553  10.149  -0.286  0.00  0.00    -0.461 OA
BRANCH  23  24
ATOM     24  C   UNL     1      -2.397  11.185  -0.854  0.00  0.00    +0.235 C 
BRANCH  24  26
ATOM     25  C   UNL     1      -1.718  12.841   0.888  0.00  0.00    +0.010 C 
ATOM     26  C   UNL     1      -2.902  12.101   0.262  0.00  0.00    +0.020 C 
ATOM     27  C   UNL     1      -3.889  13.116  -0.318  0.00  0.00    +0.010 C 
ENDBRANCH  24  26
ENDBRANCH  23  24
ENDBRANCH  21  23
ENDBRANCH   1  21
TORSDOF 5
