REMARK  Name = ZINC09679201
REMARK  4 active torsions:
REMARK  status: ('A' for Active; 'I' for Inactive)
REMARK    1  A    between atoms: C_1  and  C_2
REMARK    2  A    between atoms: C_5  and  N_8
REMARK    3  A    between atoms: C_9  and  C_26
REMARK    4  A    between atoms: C_12  and  C_19
REMARK                            x       y       z     vdW  Elec       q    Type
REMARK                         _______ _______ _______ _____ _____    ______ ____
ROOT
ATOM      1  N   UNL     1       0.059  -4.170  -0.021  0.00  0.00    -0.255 N 
ATOM      2  C   UNL     1       0.070  -5.031   1.184  0.00  0.00    +0.178 C 
ATOM      3  C   UNL     1      -0.511  -6.333   0.699  0.00  0.00    +0.021 C 
ATOM      4  C   UNL     1      -1.214  -7.451   0.708  0.00  0.00    +0.097 C 
ATOM      5  N   UNL     1      -1.433  -7.875  -0.572  0.00  0.00    -0.153 NA
ATOM      6  N   UNL     1      -0.727  -7.301  -1.415  0.00  0.00    -0.170 NA
ATOM      7  C   UNL     1       0.148  -6.384  -0.697  0.00  0.00    +0.244 C 
ATOM      8  C   UNL     1       0.063  -4.947  -1.134  0.00  0.00    +0.251 C 
ATOM      9  O   UNL     1       0.009  -4.553  -2.280  0.00  0.00    -0.272 OA
ENDROOT
BRANCH   1  14
ATOM     10  C   UNL     1      -0.018   1.503   0.010  0.00  0.00    +0.044 C 
ATOM     11  C   UNL     1       0.002  -0.004   0.002  0.00  0.00    -0.050 A 
ATOM     12  C   UNL     1       0.006  -0.687  -1.200  0.00  0.00    +0.005 A 
ATOM     13  C   UNL     1       0.025  -2.068  -1.211  0.00  0.00    +0.024 A 
ATOM     14  C   UNL     1       0.040  -2.771  -0.013  0.00  0.00    +0.037 A 
ATOM     15  C   UNL     1       0.037  -2.081   1.192  0.00  0.00    +0.024 A 
ATOM     16  C   UNL     1       0.023  -0.700   1.197  0.00  0.00    +0.005 A 
ENDBRANCH   1  14
BRANCH   4  17
ATOM     17  C   UNL     1      -1.695  -8.145   1.928  0.00  0.00    +0.002 A 
ATOM     18  C   UNL     1      -1.416  -7.618   3.188  0.00  0.00    +0.011 A 
ATOM     19  C   UNL     1      -1.866  -8.267   4.320  0.00  0.00    +0.016 A 
ATOM     20  C   UNL     1      -2.593  -9.439   4.206  0.00  0.00    +0.018 A 
ATOM     21  C   UNL     1      -2.872  -9.967   2.957  0.00  0.00    +0.016 A 
ATOM     22  C   UNL     1      -2.432  -9.323   1.819  0.00  0.00    +0.011 A 
ATOM     23 BR   UNL     1      -3.205 -10.323   5.761  0.00  0.00    -0.050 Br
ENDBRANCH   4  17
BRANCH   2  24
ATOM     24  C   UNL     1       1.480  -5.229   1.679  0.00  0.00    +0.130 A 
ATOM     25  C   UNL     1       1.861  -5.275   2.968  0.00  0.00    +0.047 A 
ATOM     26  C   UNL     1       3.261  -5.475   2.974  0.00  0.00    +0.041 A 
ATOM     27  C   UNL     1       3.651  -5.539   1.688  0.00  0.00    +0.195 A 
ATOM     28  O   UNL     1       2.567  -5.395   0.909  0.00  0.00    -0.466 OA
ENDBRANCH   2  24
TORSDOF 3
