REMARK  Name = ZINC47145394
REMARK  3 active torsions:
REMARK  status: ('A' for Active; 'I' for Inactive)
REMARK    1  A    between atoms: C_1  and  C_2
REMARK    2  A    between atoms: C_5  and  N_8
REMARK    3  A    between atoms: C_13  and  C_27
REMARK                            x       y       z     vdW  Elec       q    Type
REMARK                         _______ _______ _______ _____ _____    ______ ____
ROOT
ATOM      1  N   UNL     1       0.527  -4.248  -0.079  0.00  0.00    -0.209 N 
ATOM      2  C   UNL     1       0.401  -4.961   1.065  0.00  0.00    +0.232 C 
ATOM      3  O   UNL     1       0.243  -4.523   2.184  0.00  0.00    -0.274 OA
ATOM      4  C   UNL     1       0.498  -6.400   0.665  0.00  0.00    +0.110 C 
ATOM      5  C   UNL     1      -0.025  -7.443   1.577  0.00  0.00    +0.072 C 
ATOM      6  C   UNL     1      -1.471  -7.753   1.437  0.00  0.00    +0.033 A 
ATOM      7  C   UNL     1      -2.325  -7.372   0.469  0.00  0.00    +0.088 A 
ATOM      8  N   UNL     1      -3.607  -7.853   0.605  0.00  0.00    -0.311 N 
ATOM      9  H   UNL     1      -4.278  -7.639  -0.062  0.00  0.00    +0.170 HD
ATOM     10  C   UNL     1      -3.931  -8.621   1.661  0.00  0.00    +0.289 A 
ATOM     11  O   UNL     1      -5.010  -9.118   1.932  0.00  0.00    -0.260 OA
ATOM     12  S   UNL     1      -2.488  -8.729   2.518  0.00  0.00    -0.030 S 
ATOM     13  S   UNL     1      -1.804  -6.307  -0.850  0.00  0.00    -0.093 S 
ATOM     14  C   UNL     1       0.002  -6.401  -0.786  0.00  0.00    +0.152 C 
ATOM     15  C   UNL     1       0.482  -4.999  -1.197  0.00  0.00    +0.240 C 
ATOM     16  O   UNL     1       0.769  -4.638  -2.318  0.00  0.00    -0.274 OA
ENDROOT
BRANCH   1  21
ATOM     17  C   UNL     1       1.158   1.392  -0.161  0.00  0.00    +0.044 C 
ATOM     18  C   UNL     1       0.990  -0.105  -0.139  0.00  0.00    -0.050 A 
ATOM     19  C   UNL     1       0.954  -0.813  -1.326  0.00  0.00    +0.005 A 
ATOM     20  C   UNL     1       0.800  -2.185  -1.310  0.00  0.00    +0.024 A 
ATOM     21  C   UNL     1       0.683  -2.854  -0.099  0.00  0.00    +0.044 A 
ATOM     22  C   UNL     1       0.720  -2.142   1.091  0.00  0.00    +0.024 A 
ATOM     23  C   UNL     1       0.879  -0.770   1.069  0.00  0.00    +0.005 A 
ENDBRANCH   1  21
BRANCH   5  24
ATOM     24  C   UNL     1       0.223  -6.997   2.995  0.00  0.00    -0.038 A 
ATOM     25  C   UNL     1      -0.753  -6.297   3.680  0.00  0.00    +0.004 A 
ATOM     26  C   UNL     1      -0.527  -5.888   4.981  0.00  0.00    +0.001 A 
ATOM     27  C   UNL     1       0.676  -6.178   5.598  0.00  0.00    +0.015 A 
ATOM     28  C   UNL     1       1.652  -6.879   4.913  0.00  0.00    +0.018 A 
ATOM     29  C   UNL     1       1.423  -7.293   3.613  0.00  0.00    +0.019 A 
ATOM     30 BR   UNL     1       3.298  -7.277   5.756  0.00  0.00    -0.050 Br
ENDBRANCH   5  24
TORSDOF 2
