REMARK  Name = ZINC33628607
REMARK  13 active torsions:
REMARK  status: ('A' for Active; 'I' for Inactive)
REMARK    1  A    between atoms: C_1  and  C_2
REMARK    2  A    between atoms: C_3  and  C_34
REMARK    3  A    between atoms: C_4  and  C_23
REMARK    4  A    between atoms: C_9  and  S_13
REMARK    5  A    between atoms: S_13  and  C_14
REMARK    6  A    between atoms: C_14  and  C_15
REMARK    7  A    between atoms: C_25  and  O_32
REMARK    8  A    between atoms: C_26  and  O_31
REMARK    9  A    between atoms: C_27  and  O_29
REMARK   10  A    between atoms: O_29  and  C_30
REMARK   11  A    between atoms: O_32  and  C_33
REMARK   12  A    between atoms: C_34  and  O_36
REMARK   13  A    between atoms: O_36  and  C_37
REMARK                            x       y       z     vdW  Elec       q    Type
REMARK                         _______ _______ _______ _____ _____    ______ ____
ROOT
ATOM      1  C   UNL     1       4.872   0.981  -0.560  0.00  0.00    +0.061 C 
ATOM      2  C   UNL     1       3.584   1.710  -0.278  0.00  0.00    +0.017 C 
ATOM      3  C   UNL     1       3.580   3.053  -0.233  0.00  0.00    +0.065 C 
ATOM      4  C   UNL     1       2.327   3.830   0.055  0.00  0.00    +0.096 C 
ATOM      5  C   UNL     1       1.109   2.968  -0.122  0.00  0.00    +0.069 A 
ATOM      6  C   UNL     1       1.209   1.612  -0.172  0.00  0.00    +0.135 A 
ATOM      7  N   UNL     1       0.072   0.862  -0.327  0.00  0.00    -0.208 NA
ATOM      8  C   UNL     1      -1.140   1.473  -0.440  0.00  0.00    +0.171 A 
ATOM      9  N   UNL     1      -1.249   2.785  -0.392  0.00  0.00    -0.302 N 
ATOM     10  C   UNL     1      -0.166   3.562  -0.239  0.00  0.00    +0.258 A 
ATOM     11  O   UNL     1      -0.283   4.779  -0.202  0.00  0.00    -0.267 OA
ATOM     12  N   UNL     1       2.437   0.996  -0.070  0.00  0.00    -0.302 N 
ATOM     13  H   UNL     1       2.492  -0.074   0.178  0.00  0.00    +0.153 HD
ATOM     14  H   UNL     1      -2.238   3.258  -0.476  0.00  0.00    +0.171 HD
ENDROOT
BRANCH   4  15
ATOM     15  C   UNL     1       2.373   4.337   1.473  0.00  0.00    -0.028 A 
ATOM     16  C   UNL     1       2.430   3.441   2.524  0.00  0.00    +0.054 A 
ATOM     17  C   UNL     1       2.478   3.904   3.830  0.00  0.00    +0.165 A 
ATOM     18  C   UNL     1       2.457   5.270   4.083  0.00  0.00    +0.201 A 
ATOM     19  C   UNL     1       2.394   6.168   3.023  0.00  0.00    +0.165 A 
ATOM     20  C   UNL     1       2.352   5.697   1.720  0.00  0.00    +0.054 A 
BRANCH  19  21
ATOM     21  O   UNL     1       2.373   7.506   3.265  0.00  0.00    -0.491 OA
ATOM     22  C   UNL     1       2.308   8.369   2.128  0.00  0.00    +0.277 C 
ENDBRANCH  19  21
BRANCH  18  23
ATOM     23  O   UNL     1       2.497   5.728   5.363  0.00  0.00    -0.501 OA
ATOM     24  H   UNL     1       2.481   6.810   5.561  0.00  0.00    +0.292 HD
ENDBRANCH  18  23
BRANCH  17  25
ATOM     25  O   UNL     1       2.540   3.021   4.863  0.00  0.00    -0.491 OA
ATOM     26  C   UNL     1       2.558   1.632   4.530  0.00  0.00    +0.277 C 
ENDBRANCH  17  25
ENDBRANCH   4  15
BRANCH   3  27
ATOM     27  C   UNL     1       4.786   3.754  -0.461  0.00  0.00    +0.337 C 
ATOM     28  O   UNL     1       4.961   4.337  -1.515  0.00  0.00    -0.245 OA
BRANCH  27  29
ATOM     29  O   UNL     1       5.744   3.776   0.489  0.00  0.00    -0.465 OA
ATOM     30  C   UNL     1       6.938   4.503   0.191  0.00  0.00    +0.280 C 
ENDBRANCH  27  29
ENDBRANCH   3  27
BRANCH   8  31
ATOM     31  S   UNL     1      -2.588   0.491  -0.648  0.00  0.00    -0.083 S 
BRANCH  31  32
ATOM     32  C   UNL     1      -3.841   1.795  -0.736  0.00  0.00    +0.115 C 
BRANCH  32  33
ATOM     33  C   UNL     1      -5.202   1.172  -0.918  0.00  0.00    -0.002 A 
ATOM     34  C   UNL     1      -5.692   0.942  -2.190  0.00  0.00    +0.007 A 
ATOM     35  C   UNL     1      -6.937   0.366  -2.357  0.00  0.00    +0.000 A 
ATOM     36  C   UNL     1      -7.699   0.029  -1.253  0.00  0.00    +0.003 A 
ATOM     37  C   UNL     1      -7.213   0.264   0.019  0.00  0.00    +0.038 A 
ATOM     38  C   UNL     1      -5.963   0.836   0.188  0.00  0.00    +0.127 A 
ATOM     39  F   UNL     1      -5.487   1.066   1.431  0.00  0.00    -0.205 F 
ENDBRANCH  32  33
ENDBRANCH  31  32
ENDBRANCH   8  31
TORSDOF 9
