REMARK  Name = ZINC33781267
REMARK  5 active torsions:
REMARK  status: ('A' for Active; 'I' for Inactive)
REMARK    1  A    between atoms: C_6  and  C_7
REMARK    2  A    between atoms: N_8  and  N_9
REMARK    3  A    between atoms: C_14  and  C_17
REMARK    4  A    between atoms: C_17  and  C_18
REMARK    5  A    between atoms: N_20  and  C_21
REMARK                            x       y       z     vdW  Elec       q    Type
REMARK                         _______ _______ _______ _____ _____    ______ ____
ROOT
ATOM      1  N   UNL     1      -2.324  -2.733   0.022  0.00  0.00    -0.127 NA
ATOM      2  C   UNL     1      -2.309  -4.050   0.010  0.00  0.00    +0.183 C 
ATOM      3  N   UNL     1      -1.215  -4.889  -0.007  0.00  0.00    -0.263 N 
ATOM      4  C   UNL     1      -1.331  -6.206  -0.017  0.00  0.00    +0.233 C 
ATOM      5  O   UNL     1      -0.363  -6.937  -0.032  0.00  0.00    -0.274 OA
ATOM      6  C   UNL     1      -2.752  -6.746  -0.009  0.00  0.00    +0.149 C 
ATOM      7  S   UNL     1      -3.702  -5.170   0.020  0.00  0.00    -0.075 S 
ATOM      8  H   UNL     1      -0.328  -4.498  -0.011  0.00  0.00    +0.157 HD
ENDROOT
BRANCH   1  10
ATOM      9  C   UNL     1      -1.230  -0.770   0.025  0.00  0.00    +0.143 C 
ATOM     10  N   UNL     1      -1.215  -2.075   0.013  0.00  0.00    -0.155 NA
BRANCH   9  16
ATOM     11  C   UNL     1       0.024   1.379   0.026  0.00  0.00    +0.011 A 
ATOM     12  C   UNL     1       1.214   2.075   0.016  0.00  0.00    +0.020 A 
ATOM     13  C   UNL     1       2.419   1.393  -0.007  0.00  0.00    +0.041 A 
ATOM     14  C   UNL     1       2.439   0.008  -0.020  0.00  0.00    +0.020 A 
ATOM     15  C   UNL     1       1.257  -0.702  -0.010  0.00  0.00    +0.011 A 
ATOM     16  C   UNL     1       0.036  -0.020   0.013  0.00  0.00    -0.005 A 
ATOM     17 CL   UNL     1       3.912   2.278  -0.019  0.00  0.00    -0.084 Cl
ENDBRANCH   9  16
ENDBRANCH   1  10
BRANCH   6  18
ATOM     18  C   UNL     1      -3.022  -7.576   1.247  0.00  0.00    +0.120 C 
BRANCH  18  19
ATOM     19  C   UNL     1      -4.395  -8.191   1.157  0.00  0.00    +0.219 C 
ATOM     20  O   UNL     1      -5.089  -7.986   0.183  0.00  0.00    -0.275 OA
ATOM     21  N   UNL     1      -4.852  -8.969   2.158  0.00  0.00    -0.285 N 
ATOM     22  H   UNL     1      -4.273  -9.188   2.905  0.00  0.00    +0.155 HD
BRANCH  21  23
ATOM     23  C   UNL     1      -6.162  -9.462   2.119  0.00  0.00    +0.033 A 
ATOM     24  C   UNL     1      -6.889  -9.595   3.295  0.00  0.00    +0.025 A 
ATOM     25  C   UNL     1      -8.181 -10.081   3.254  0.00  0.00    +0.022 A 
ATOM     26  C   UNL     1      -8.751 -10.435   2.044  0.00  0.00    +0.041 A 
ATOM     27  C   UNL     1      -8.028 -10.303   0.871  0.00  0.00    +0.022 A 
ATOM     28  C   UNL     1      -6.738  -9.812   0.905  0.00  0.00    +0.025 A 
ATOM     29 CL   UNL     1     -10.375 -11.046   1.996  0.00  0.00    -0.084 Cl
ENDBRANCH  21  23
ENDBRANCH  18  19
ENDBRANCH   6  18
TORSDOF 5
