REMARK  Name = ZINC17191934
REMARK  8 active torsions:
REMARK  status: ('A' for Active; 'I' for Inactive)
REMARK    1  A    between atoms: C_6  and  C_7
REMARK    2  A    between atoms: C_7  and  C_9
REMARK    3  A    between atoms: C_7  and  C_11
REMARK    4  A    between atoms: C_11  and  C_17
REMARK    5  A    between atoms: N_12  and  N_13
REMARK    6  A    between atoms: N_13  and  C_14
REMARK    7  A    between atoms: C_14  and  N_16
REMARK    8  A    between atoms: N_19  and  C_20
REMARK                            x       y       z     vdW  Elec       q    Type
REMARK                         _______ _______ _______ _____ _____    ______ ____
ROOT
ATOM      1  C   UNL     1      -2.354   0.987   0.122  0.00  0.00    +0.142 C 
ATOM      2  N   UNL     1      -3.491   1.618   0.070  0.00  0.00    -0.179 NA
ENDROOT
BRANCH   1   3
ATOM      3  C   UNL     1      -2.329  -0.479   0.109  0.00  0.00    +0.262 C 
ATOM      4  O   UNL     1      -3.356  -1.104  -0.076  0.00  0.00    -0.269 OA
ATOM      5  N   UNL     1      -1.167  -1.134   0.302  0.00  0.00    -0.307 N 
ATOM      6  H   UNL     1      -0.337  -0.638   0.375  0.00  0.00    +0.149 HD
BRANCH   5   7
ATOM      7  C   UNL     1      -1.159  -2.596   0.404  0.00  0.00    +0.079 C 
ATOM      8  C   UNL     1      -1.463  -3.009   1.846  0.00  0.00    +0.010 C 
ATOM      9  C   UNL     1      -1.454  -4.535   1.952  0.00  0.00    +0.009 C 
ATOM     10  C   UNL     1      -0.077  -5.066   1.548  0.00  0.00    -0.010 C 
ATOM     11  C   UNL     1       0.988  -4.484   2.481  0.00  0.00    +0.007 C 
ATOM     12  C   UNL     1       0.979  -2.958   2.374  0.00  0.00    -0.010 C 
ATOM     13  C   UNL     1      -0.398  -2.426   2.778  0.00  0.00    +0.009 C 
ATOM     14  C   UNL     1       1.282  -2.545   0.933  0.00  0.00    +0.009 C 
ATOM     15  C   UNL     1       0.218  -3.127   0.001  0.00  0.00    +0.010 C 
ATOM     16  C   UNL     1       0.227  -4.653   0.107  0.00  0.00    +0.009 C 
ENDBRANCH   5   7
ENDBRANCH   1   3
BRANCH   2  17
ATOM     17  N   UNL     1      -4.692   0.913   0.226  0.00  0.00    -0.218 N 
ATOM     18  H   UNL     1      -4.675  -0.027   0.462  0.00  0.00    +0.176 HD
BRANCH  17  19
ATOM     19  C   UNL     1      -5.871   1.543   0.052  0.00  0.00    +0.147 C 
ATOM     20  S   UNL     1      -7.338   0.684   0.249  0.00  0.00    -0.017 S 
BRANCH  19  21
ATOM     21  N   UNL     1      -5.894   2.850  -0.277  0.00  0.00    -0.339 N 
ATOM     22  H   UNL     1      -5.063   3.337  -0.388  0.00  0.00    +0.144 HD
ATOM     23  H   UNL     1      -6.743   3.304  -0.401  0.00  0.00    +0.144 HD
ENDBRANCH  19  21
ENDBRANCH  17  19
ENDBRANCH   2  17
BRANCH   1  24
ATOM     24  C   UNL     1      -1.064   1.762   0.195  0.00  0.00    +0.176 C 
BRANCH  24  30
ATOM     25  C   UNL     1      -2.084   3.876  -0.676  0.00  0.00    +0.007 A 
ATOM     26  C   UNL     1      -2.368   5.224  -0.561  0.00  0.00    +0.020 A 
ATOM     27  C   UNL     1      -1.927   5.932   0.543  0.00  0.00    +0.041 A 
ATOM     28  C   UNL     1      -1.207   5.289   1.534  0.00  0.00    +0.020 A 
ATOM     29  C   UNL     1      -0.928   3.940   1.421  0.00  0.00    +0.007 A 
ATOM     30  C   UNL     1      -1.369   3.233   0.318  0.00  0.00    -0.024 A 
ATOM     31 CL   UNL     1      -2.278   7.626   0.684  0.00  0.00    -0.084 Cl
ENDBRANCH  24  30
BRANCH  24  32
ATOM     32  C   UNL     1      -0.279   1.524  -1.027  0.00  0.00    +0.077 C 
ATOM     33  N   UNL     1       0.328   1.340  -1.970  0.00  0.00    -0.196 NA
ENDBRANCH  24  32
ENDBRANCH   1  24
TORSDOF 8
