REMARK  Name = ZINC20713814
REMARK  6 active torsions:
REMARK  status: ('A' for Active; 'I' for Inactive)
REMARK    1  A    between atoms: C_4  and  C_7
REMARK    2  A    between atoms: C_7  and  C_8
REMARK    3  A    between atoms: C_8  and  C_9
REMARK    4  A    between atoms: N_11  and  C_12
REMARK    5  A    between atoms: C_25  and  C_28
REMARK    6  A    between atoms: C_33  and  N_34
REMARK                            x       y       z     vdW  Elec       q    Type
REMARK                         _______ _______ _______ _____ _____    ______ ____
ROOT
ATOM      1  C   UNL     1      -0.983   1.813  -3.579  0.00  0.00    +0.034 A 
ATOM      2  C   UNL     1      -2.090   2.634  -3.408  0.00  0.00    +0.025 A 
ATOM      3  C   UNL     1      -2.845   3.013  -4.499  0.00  0.00    +0.025 A 
ATOM      4  C   UNL     1      -2.512   2.570  -5.773  0.00  0.00    +0.031 A 
ATOM      5  C   UNL     1      -1.391   1.750  -5.942  0.00  0.00    -0.018 A 
ATOM      6  C   UNL     1      -0.641   1.372  -4.850  0.00  0.00    +0.029 A 
ATOM      7  C   UNL     1      -1.050   1.337  -7.321  0.00  0.00    +0.049 C 
ATOM      8  C   UNL     1      -0.284   0.091  -7.631  0.00  0.00    -0.023 C 
ATOM      9  C   UNL     1      -0.697  -0.397  -8.795  0.00  0.00    -0.030 C 
ATOM     10  C   UNL     1      -1.801   0.491  -9.372  0.00  0.00    +0.033 C 
ATOM     11  C   UNL     1      -2.381   1.127  -8.101  0.00  0.00    +0.029 C 
ATOM     12  C   UNL     1      -2.994   2.509  -8.236  0.00  0.00    +0.107 C 
ATOM     13  N   UNL     1      -3.320   2.938  -6.859  0.00  0.00    -0.336 N 
ATOM     14  H   UNL     1      -4.211   3.556  -6.671  0.00  0.00    +0.147 HD
ENDROOT
BRANCH  12  15
ATOM     15  C   UNL     1      -4.247   2.444  -9.071  0.00  0.00    +0.003 A 
ATOM     16  C   UNL     1      -4.821   1.220  -9.362  0.00  0.00    +0.008 A 
ATOM     17  C   UNL     1      -5.970   1.160 -10.128  0.00  0.00    +0.000 A 
ATOM     18  C   UNL     1      -6.546   2.324 -10.603  0.00  0.00    +0.002 A 
ATOM     19  C   UNL     1      -5.972   3.548 -10.312  0.00  0.00    +0.033 A 
ATOM     20  C   UNL     1      -4.825   3.608  -9.542  0.00  0.00    +0.131 A 
BRANCH  20  21
ATOM     21  N   UNL     1      -4.214   4.918  -9.225  0.00  0.00    +0.057 N 
ATOM     22  O   UNL     1      -4.658   5.935  -9.729  0.00  0.00    -0.126 OA
ATOM     23  O   UNL     1      -3.268   4.980  -8.461  0.00  0.00    -0.126 OA
ENDBRANCH  20  21
ENDBRANCH  12  15
BRANCH   1  26
ATOM     24  C   UNL     1      -0.063   2.270  -1.431  0.00  0.00    +0.218 C 
ATOM     25  O   UNL     1      -0.508   3.397  -1.493  0.00  0.00    -0.275 OA
ATOM     26  N   UNL     1      -0.217   1.427  -2.471  0.00  0.00    -0.285 N 
ATOM     27  H   UNL     1       0.258   0.435  -2.450  0.00  0.00    +0.155 HD
BRANCH  24  28
ATOM     28  C   UNL     1       0.662   1.813  -0.191  0.00  0.00    +0.101 C 
BRANCH  28  29
ATOM     29  C   UNL     1       0.697   2.953   0.828  0.00  0.00    +0.044 C 
BRANCH  29  33
ATOM     30  C   UNL     1       2.751   1.659   4.343  0.00  0.00    +0.000 A 
ATOM     31  C   UNL     1       3.454   2.250   3.310  0.00  0.00    +0.000 A 
ATOM     32  C   UNL     1       2.789   2.670   2.173  0.00  0.00    +0.003 A 
ATOM     33  C   UNL     1       1.421   2.496   2.068  0.00  0.00    -0.047 A 
ATOM     34  C   UNL     1       0.718   1.909   3.103  0.00  0.00    +0.003 A 
ATOM     35  C   UNL     1       1.383   1.486   4.238  0.00  0.00    +0.000 A 
ENDBRANCH  29  33
ENDBRANCH  28  29
ENDBRANCH  24  28
ENDBRANCH   1  26
TORSDOF 6
