REMARK  Name = ZINC35872738
REMARK  4 active torsions:
REMARK  status: ('A' for Active; 'I' for Inactive)
REMARK    1  A    between atoms: C_1  and  C_2
REMARK    2  A    between atoms: C_2  and  C_3
REMARK    3  A    between atoms: N_7  and  C_17
REMARK    4  A    between atoms: C_11  and  N_16
REMARK                            x       y       z     vdW  Elec       q    Type
REMARK                         _______ _______ _______ _____ _____    ______ ____
ROOT
ATOM      1  C   UNL     1      -1.433  -0.534   0.013  0.00  0.00    +0.259 C 
ATOM      2  C   UNL     1      -1.411  -2.024  -0.132  0.00  0.00    +0.257 C 
ATOM      3  O   UNL     1      -1.723  -2.409  -1.239  0.00  0.00    -0.272 OA
ATOM      4  N   UNL     1      -1.130  -2.967   0.672  0.00  0.00    -0.287 N 
ATOM      5  C   UNL     1      -0.954  -3.018   2.085  0.00  0.00    +0.147 C 
ATOM      6  C   UNL     1      -1.176  -1.776   2.891  0.00  0.00    +0.013 A 
ATOM      7  C   UNL     1      -0.902  -1.955   4.256  0.00  0.00    +0.031 A 
ATOM      8  C   UNL     1      -0.995  -0.909   5.152  0.00  0.00    +0.025 A 
ATOM      9  C   UNL     1      -1.361   0.346   4.680  0.00  0.00    +0.026 A 
ATOM     10  C   UNL     1      -1.646   0.505   3.350  0.00  0.00    +0.048 A 
ATOM     11  C   UNL     1      -1.585  -0.576   2.438  0.00  0.00    +0.126 A 
ATOM     12  O   UNL     1      -2.058  -0.162   1.225  0.00  0.00    -0.479 OA
ENDROOT
BRANCH   4  13
ATOM     13  C   UNL     1      -0.951  -4.263   0.014  0.00  0.00    +0.107 C 
ATOM     14  C   UNL     1       0.200  -4.166  -0.985  0.00  0.00    +0.027 C 
ATOM     15  C   UNL     1       0.231  -5.455  -1.815  0.00  0.00    +0.007 C 
ATOM     16  C   UNL     1      -0.990  -5.466  -2.733  0.00  0.00    +0.035 C 
ATOM     17  C   UNL     1      -2.246  -5.201  -1.946  0.00  0.00    -0.042 A 
ATOM     18  C   UNL     1      -2.229  -4.645  -0.687  0.00  0.00    -0.024 A 
ATOM     19  C   UNL     1      -3.425  -4.420  -0.018  0.00  0.00    +0.006 A 
ATOM     20  C   UNL     1      -4.629  -4.752  -0.605  0.00  0.00    +0.000 A 
ATOM     21  C   UNL     1      -4.646  -5.313  -1.868  0.00  0.00    +0.000 A 
ATOM     22  C   UNL     1      -3.459  -5.537  -2.533  0.00  0.00    +0.004 A 
ENDBRANCH   4  13
BRANCH   8  23
ATOM     23  N   UNL     1      -0.728  -1.109   6.511  0.00  0.00    -0.358 N 
ATOM     24  H   UNL     1      -0.474  -1.989   6.831  0.00  0.00    +0.142 HD
ATOM     25  H   UNL     1      -0.796  -0.368   7.133  0.00  0.00    +0.142 HD
ENDBRANCH   8  23
BRANCH   1  27
ATOM     26  C   UNL     1      -0.019   1.526   0.010  0.00  0.00    +0.008 C 
ATOM     27  C   UNL     1       0.002  -0.004   0.002  0.00  0.00    +0.051 C 
ENDBRANCH   1  27
TORSDOF 3
