REMARK  Name = ZINC12036855
REMARK  9 active torsions:
REMARK  status: ('A' for Active; 'I' for Inactive)
REMARK    1  A    between atoms: C_1  and  N_54
REMARK    2  A    between atoms: C_2  and  N_54
REMARK    3  A    between atoms: C_3  and  C_4
REMARK    4  A    between atoms: C_3  and  N_54
REMARK    5  A    between atoms: C_4  and  N_5
REMARK    6  A    between atoms: C_16  and  N_56
REMARK    7  A    between atoms: C_20  and  C_21
REMARK    8  A    between atoms: C_20  and  N_56
REMARK    9  A    between atoms: C_21  and  C_22
REMARK                            x       y       z     vdW  Elec       q    Type
REMARK                         _______ _______ _______ _____ _____    ______ ____
ROOT
ATOM      1  N   UNL     1       1.522   1.405  -4.195  0.00  0.00    -0.301 N 
ATOM      2  C   UNL     1       0.666   1.891  -5.127  0.00  0.00    +0.203 A 
ATOM      3  N   UNL     1      -0.564   2.261  -4.846  0.00  0.00    -0.230 NA
ATOM      4  C   UNL     1      -0.964   2.145  -3.584  0.00  0.00    +0.116 A 
ATOM      5  C   UNL     1      -0.148   1.650  -2.542  0.00  0.00    +0.076 A 
ATOM      6  C   UNL     1       1.187   1.257  -2.892  0.00  0.00    +0.262 A 
ATOM      7  O   UNL     1       1.971   0.818  -2.067  0.00  0.00    -0.267 OA
ATOM      8  C   UNL     1      -0.756   1.594  -1.225  0.00  0.00    -0.023 A 
ATOM      9  C   UNL     1      -2.037   2.019  -1.129  0.00  0.00    -0.006 A 
ATOM     10  S   UNL     1      -2.489   2.510  -2.774  0.00  0.00    -0.073 S 
ATOM     11  C   UNL     1      -2.888   2.062   0.103  0.00  0.00    +0.027 C 
ATOM     12  C   UNL     1      -2.219   1.207   1.188  0.00  0.00    -0.067 C 
ATOM     13  C   UNL     1      -0.733   1.581   1.262  0.00  0.00    -0.011 C 
ATOM     14  C   UNL     1      -0.013   1.086   0.008  0.00  0.00    +0.035 C 
ENDROOT
BRANCH  12  15
ATOM     15  N   UNL     1      -2.854   1.474   2.492  0.00  0.00    +0.381 N 
ATOM     16  H   UNL     1      -3.123   2.464   2.541  0.00  0.00    -0.086 HD
ATOM     17  H   UNL     1      -2.186   1.263   3.243  0.00  0.00    -0.086 HD
BRANCH  15  18
ATOM     18  C   UNL     1      -4.055   0.635   2.658  0.00  0.00    -0.077 C 
BRANCH  18  19
ATOM     19  C   UNL     1      -4.691   0.933   4.017  0.00  0.00    +0.019 C 
BRANCH  19  20
ATOM     20  C   UNL     1      -5.920   0.079   4.195  0.00  0.00    -0.014 A 
ATOM     21  C   UNL     1      -7.166   0.586   3.877  0.00  0.00    +0.006 A 
ATOM     22  C   UNL     1      -8.293  -0.199   4.035  0.00  0.00    +0.000 A 
ATOM     23  C   UNL     1      -8.176  -1.488   4.522  0.00  0.00    +0.003 A 
ATOM     24  C   UNL     1      -6.932  -1.995   4.846  0.00  0.00    +0.038 A 
ATOM     25  C   UNL     1      -5.802  -1.211   4.683  0.00  0.00    +0.126 A 
ATOM     26  F   UNL     1      -4.585  -1.705   5.000  0.00  0.00    -0.205 F 
ENDBRANCH  19  20
ENDBRANCH  18  19
ENDBRANCH  15  18
ENDBRANCH  12  15
BRANCH   1  27
ATOM     27  C   UNL     1       2.871   1.022  -4.618  0.00  0.00    +0.108 C 
BRANCH  27  28
ATOM     28  C   UNL     1       2.875  -0.450  -5.037  0.00  0.00    -0.058 C 
BRANCH  28  31
ATOM     29  C   UNL     1       5.166  -0.790  -4.332  0.00  0.00    -0.097 C 
ATOM     30  C   UNL     1       4.225  -2.162  -6.091  0.00  0.00    -0.097 C 
ATOM     31  N   UNL     1       4.237  -0.816  -5.481  0.00  0.00    +0.377 N 
ATOM     32  H   UNL     1       4.553  -0.135  -6.181  0.00  0.00    -0.083 HD
ENDBRANCH  28  31
ENDBRANCH  27  28
ENDBRANCH   1  27
TORSDOF 7
