REMARK  Name = ZINC24833725
REMARK  10 active torsions:
REMARK  status: ('A' for Active; 'I' for Inactive)
REMARK    1  A    between atoms: C_1  and  C_2
REMARK    2  A    between atoms: C_2  and  C_3
REMARK    3  A    between atoms: C_2  and  C_4
REMARK    4  A    between atoms: C_4  and  N_5
REMARK    5  A    between atoms: N_5  and  C_6
REMARK    6  A    between atoms: C_7  and  N_22
REMARK    7  A    between atoms: N_8  and  C_15
REMARK    8  A    between atoms: C_15  and  C_16
REMARK    9  A    between atoms: C_23  and  C_25
REMARK   10  A    between atoms: N_30  and  C_32
REMARK                            x       y       z     vdW  Elec       q    Type
REMARK                         _______ _______ _______ _____ _____    ______ ____
ROOT
ATOM      1  N   UNL     1      -0.456   4.438   3.552  0.00  0.00    -0.264 N 
ATOM      2  C   UNL     1      -0.026   5.513   2.860  0.00  0.00    +0.225 C 
ATOM      3  O   UNL     1      -0.121   6.623   3.341  0.00  0.00    -0.275 OA
ENDROOT
BRANCH   1   4
ATOM      4  C   UNL     1      -0.255   3.140   3.037  0.00  0.00    +0.140 A 
ATOM      5  C   UNL     1      -1.329   2.361   2.658  0.00  0.00    +0.128 A 
ATOM      6  N   UNL     1      -1.101   1.097   2.165  0.00  0.00    -0.276 N 
ATOM      7  C   UNL     1       0.155   0.631   2.042  0.00  0.00    +0.331 A 
ATOM      8  O   UNL     1       0.336  -0.487   1.599  0.00  0.00    -0.246 OA
ATOM      9  N   UNL     1       1.214   1.378   2.401  0.00  0.00    -0.273 N 
ATOM     10  H   UNL     1       2.232   0.977   2.292  0.00  0.00    +0.173 HD
ATOM     11  C   UNL     1       1.045   2.620   2.895  0.00  0.00    +0.277 A 
ATOM     12  O   UNL     1       2.013   3.289   3.218  0.00  0.00    -0.266 OA
BRANCH   5  13
ATOM     13  N   UNL     1      -2.612   2.840   2.778  0.00  0.00    -0.343 N 
ATOM     14  H   UNL     1      -3.463   2.213   2.474  0.00  0.00    +0.144 HD
ATOM     15  H   UNL     1      -2.787   3.850   3.177  0.00  0.00    +0.144 HD
ENDBRANCH   5  13
BRANCH   6  16
ATOM     16  C   UNL     1      -2.232   0.257   1.764  0.00  0.00    +0.163 C 
BRANCH  16  17
ATOM     17  C   UNL     1      -2.690  -0.564   2.942  0.00  0.00    -0.028 A 
ATOM     18  C   UNL     1      -2.145  -1.815   3.166  0.00  0.00    +0.005 A 
ATOM     19  C   UNL     1      -2.561  -2.566   4.250  0.00  0.00    +0.000 A 
ATOM     20  C   UNL     1      -3.529  -2.070   5.103  0.00  0.00    +0.000 A 
ATOM     21  C   UNL     1      -4.078  -0.822   4.876  0.00  0.00    +0.000 A 
ATOM     22  C   UNL     1      -3.658  -0.069   3.796  0.00  0.00    +0.005 A 
ENDBRANCH  16  17
ENDBRANCH   6  16
ENDBRANCH   1   4
BRANCH   2  23
ATOM     23  C   UNL     1       0.574   5.336   1.488  0.00  0.00    +0.102 C 
ATOM     24  C   UNL     1      -0.510   5.447   0.392  0.00  0.00    +0.110 C 
ATOM     25  C   UNL     1      -0.478   6.903  -0.016  0.00  0.00    +0.221 C 
ATOM     26  O   UNL     1      -1.349   7.468  -0.643  0.00  0.00    -0.275 OA
ATOM     27  N   UNL     1       0.657   7.479   0.417  0.00  0.00    -0.268 N 
ATOM     28  C   UNL     1       1.503   6.518   1.134  0.00  0.00    +0.127 C 
BRANCH  27  29
ATOM     29  C   UNL     1       0.989   8.824   0.210  0.00  0.00    +0.072 A 
ATOM     30  C   UNL     1       1.701   9.199  -0.920  0.00  0.00    +0.026 A 
ATOM     31  C   UNL     1       2.022  10.527  -1.124  0.00  0.00    +0.002 A 
ATOM     32  C   UNL     1       1.645  11.482  -0.198  0.00  0.00    +0.003 A 
ATOM     33  C   UNL     1       0.941  11.113   0.933  0.00  0.00    +0.040 A 
ATOM     34  C   UNL     1       0.611   9.786   1.141  0.00  0.00    +0.145 A 
ATOM     35  F   UNL     1      -0.077   9.425   2.246  0.00  0.00    -0.204 F 
ENDBRANCH  27  29
ENDBRANCH   2  23
BRANCH   1  36
ATOM     36  C   UNL     1      -1.133   4.619   4.839  0.00  0.00    +0.117 C 
BRANCH  36  38
ATOM     37  C   UNL     1      -0.794   4.984   7.287  0.00  0.00    +0.009 C 
ATOM     38  C   UNL     1      -0.090   4.728   5.953  0.00  0.00    +0.001 C 
ATOM     39  C   UNL     1       0.703   3.422   6.038  0.00  0.00    +0.009 C 
ENDBRANCH  36  38
ENDBRANCH   1  36
TORSDOF 8
