REMARK  Name = ZINC02193342
REMARK  6 active torsions:
REMARK  status: ('A' for Active; 'I' for Inactive)
REMARK    1  A    between atoms: C_1  and  C_2
REMARK    2  A    between atoms: C_2  and  C_32
REMARK    3  A    between atoms: C_4  and  N_9
REMARK    4  A    between atoms: N_16  and  C_17
REMARK    5  A    between atoms: C_17  and  C_18
REMARK    6  A    between atoms: C_18  and  O_19
REMARK                            x       y       z     vdW  Elec       q    Type
REMARK                         _______ _______ _______ _____ _____    ______ ____
ROOT
ATOM      1  N   UNL     1       2.890  -0.542  -2.393  0.00  0.00    -0.277 N 
ATOM      2  C   UNL     1       3.359   0.303  -3.336  0.00  0.00    +0.260 A 
ATOM      3  O   UNL     1       3.177   1.506  -3.240  0.00  0.00    -0.267 OA
ATOM      4  C   UNL     1       4.060  -0.230  -4.425  0.00  0.00    +0.050 A 
ATOM      5  C   UNL     1       4.248  -1.602  -4.493  0.00  0.00    +0.084 A 
ATOM      6  N   UNL     1       3.733  -2.393  -3.544  0.00  0.00    -0.215 NA
ATOM      7  C   UNL     1       3.081  -1.884  -2.519  0.00  0.00    +0.199 A 
ATOM      8  N   UNL     1       2.578  -2.724  -1.562  0.00  0.00    -0.313 N 
ATOM      9  C   UNL     1       5.045  -2.165  -5.606  0.00  0.00    +0.004 A 
ATOM     10  C   UNL     1       5.005  -3.529  -5.889  0.00  0.00    +0.010 A 
ATOM     11  C   UNL     1       5.740  -4.031  -6.943  0.00  0.00    +0.001 A 
ATOM     12  C   UNL     1       6.512  -3.182  -7.717  0.00  0.00    +0.000 A 
ATOM     13  C   UNL     1       6.560  -1.829  -7.436  0.00  0.00    +0.004 A 
ATOM     14  C   UNL     1       5.837  -1.316  -6.378  0.00  0.00    -0.037 A 
ATOM     15  C   UNL     1       5.925   0.149  -6.040  0.00  0.00    +0.047 C 
ATOM     16  C   UNL     1       4.589   0.660  -5.513  0.00  0.00    +0.007 C 
ATOM     17  C   UNL     1       4.758   2.094  -4.975  0.00  0.00    +0.012 C 
ATOM     18  C   UNL     1       4.340   2.996  -6.162  0.00  0.00    +0.001 C 
ATOM     19  C   UNL     1       3.155   2.216  -6.785  0.00  0.00    +0.001 C 
ATOM     20  C   UNL     1       3.571   0.736  -6.663  0.00  0.00    +0.012 C 
ATOM     21  H   UNL     1       2.029  -2.370  -0.845  0.00  0.00    +0.149 HD
ENDROOT
BRANCH   1  25
ATOM     22  C   UNL     1       1.909   0.463   1.673  0.00  0.00    +0.041 C 
ATOM     23  C   UNL     1       2.305   1.572   0.696  0.00  0.00    +0.066 C 
ATOM     24  C   UNL     1       3.083   0.967  -0.475  0.00  0.00    +0.059 C 
ATOM     25  C   UNL     1       2.178  -0.013  -1.227  0.00  0.00    +0.098 C 
ATOM     26  C   UNL     1       0.916   0.724  -1.686  0.00  0.00    +0.053 C 
ATOM     27  C   UNL     1       0.221   1.338  -0.468  0.00  0.00    +0.162 C 
ATOM     28  O   UNL     1       1.128   2.216   0.203  0.00  0.00    -0.374 OA
ATOM     29  C   UNL     1       3.183   2.598   1.417  0.00  0.00    +0.041 C 
ENDBRANCH   1  25
BRANCH   8  30
ATOM     30  C   UNL     1       2.869  -4.159  -1.621  0.00  0.00    +0.132 C 
BRANCH  30  31
ATOM     31  C   UNL     1       2.193  -4.865  -0.444  0.00  0.00    +0.174 C 
BRANCH  31  32
ATOM     32  O   UNL     1       0.774  -4.762  -0.577  0.00  0.00    -0.393 OA
ATOM     33  H   UNL     1       0.280  -5.188   0.136  0.00  0.00    +0.209 HD
ENDBRANCH  31  32
ENDBRANCH  30  31
ENDBRANCH   8  30
TORSDOF 4
