REMARK  Name = ZINC33140374
REMARK  4 active torsions:
REMARK  status: ('A' for Active; 'I' for Inactive)
REMARK    1  A    between atoms: C_7  and  C_24
REMARK    2  A    between atoms: C_9  and  N_11
REMARK    3  A    between atoms: N_14  and  C_17
REMARK    4  A    between atoms: C_26  and  C_29
REMARK                            x       y       z     vdW  Elec       q    Type
REMARK                         _______ _______ _______ _____ _____    ______ ____
ROOT
ATOM      1  C   UNL     1      -0.016   4.110   0.024  0.00  0.00    +0.001 A 
ATOM      2  C   UNL     1      -1.216   3.403   0.032  0.00  0.00    +0.002 A 
ATOM      3  C   UNL     1      -1.230   2.042   0.031  0.00  0.00    +0.026 A 
ATOM      4  C   UNL     1      -0.016   1.333   0.009  0.00  0.00    +0.048 A 
ATOM      5  C   UNL     1       1.201   2.056   0.002  0.00  0.00    +0.011 A 
ATOM      6  C   UNL     1       1.180   3.455   0.009  0.00  0.00    +0.011 A 
ATOM      7  C   UNL     1       2.460   1.310  -0.014  0.00  0.00    +0.052 A 
ATOM      8  C   UNL     1       2.380  -0.076  -0.021  0.00  0.00    +0.055 A 
ATOM      9  C   UNL     1       1.123  -0.692  -0.012  0.00  0.00    +0.100 A 
ATOM     10  N   UNL     1       0.002  -0.004   0.002  0.00  0.00    -0.343 N 
ATOM     11  H   UNL     1      -0.943  -0.567   0.008  0.00  0.00    +0.167 HD
ENDROOT
BRANCH   9  12
ATOM     12  N   UNL     1       1.057  -2.078  -0.019  0.00  0.00    -0.314 N 
ATOM     13  C   UNL     1       1.784  -2.634  -1.169  0.00  0.00    +0.125 C 
ATOM     14  C   UNL     1       1.755  -4.162  -1.097  0.00  0.00    +0.124 C 
ATOM     15  N   UNL     1       0.360  -4.623  -1.086  0.00  0.00    -0.325 N 
ATOM     16  C   UNL     1      -0.367  -4.067   0.064  0.00  0.00    +0.124 C 
ATOM     17  C   UNL     1      -0.338  -2.539  -0.008  0.00  0.00    +0.125 C 
BRANCH  15  18
ATOM     18  C   UNL     1       0.294  -6.020  -1.093  0.00  0.00    +0.065 A 
ATOM     19  C   UNL     1      -0.937  -6.658  -1.158  0.00  0.00    +0.026 A 
ATOM     20  C   UNL     1      -0.999  -8.038  -1.169  0.00  0.00    +0.002 A 
ATOM     21  C   UNL     1       0.163  -8.786  -1.105  0.00  0.00    +0.003 A 
ATOM     22  C   UNL     1       1.391  -8.155  -1.035  0.00  0.00    +0.040 A 
ATOM     23  C   UNL     1       1.461  -6.774  -1.028  0.00  0.00    +0.144 A 
ATOM     24  F   UNL     1       2.661  -6.157  -0.959  0.00  0.00    -0.204 F 
ENDBRANCH  15  18
ENDBRANCH   9  12
BRANCH   7  25
ATOM     25  C   UNL     1       3.765   2.004  -0.022  0.00  0.00    +0.259 A 
ATOM     26  N   UNL     1       4.957   1.438  -0.035  0.00  0.00    -0.187 NA
ATOM     27  C   UNL     1       5.841   2.457  -0.038  0.00  0.00    +0.202 A 
ATOM     28  N   UNL     1       5.153   3.570  -0.027  0.00  0.00    -0.056 NA
ATOM     29  O   UNL     1       3.964   3.331  -0.022  0.00  0.00    -0.332 OA
BRANCH  27  30
ATOM     30  C   UNL     1       7.320   2.337  -0.051  0.00  0.00    +0.023 A 
ATOM     31  C   UNL     1       7.919   1.079  -0.056  0.00  0.00    +0.013 A 
ATOM     32  C   UNL     1       9.295   0.973  -0.072  0.00  0.00    +0.021 A 
ATOM     33  C   UNL     1      10.080   2.114  -0.074  0.00  0.00    +0.041 A 
ATOM     34  C   UNL     1       9.489   3.366  -0.065  0.00  0.00    +0.021 A 
ATOM     35  C   UNL     1       8.114   3.482  -0.053  0.00  0.00    +0.013 A 
ATOM     36 CL   UNL     1      11.810   1.974  -0.089  0.00  0.00    -0.084 Cl
ENDBRANCH  27  30
ENDBRANCH   7  25
TORSDOF 4
