REMARK  Name = ZINC39934870
REMARK  8 active torsions:
REMARK  status: ('A' for Active; 'I' for Inactive)
REMARK    1  A    between atoms: C_1  and  C_2
REMARK    2  A    between atoms: C_7  and  C_12
REMARK    3  A    between atoms: C_12  and  C_33
REMARK    4  A    between atoms: C_13  and  C_14
REMARK    5  A    between atoms: C_17  and  O_21
REMARK    6  A    between atoms: O_21  and  C_22
REMARK    7  A    between atoms: C_22  and  C_23
REMARK    8  A    between atoms: C_26  and  C_29
REMARK                            x       y       z     vdW  Elec       q    Type
REMARK                         _______ _______ _______ _____ _____    ______ ____
ROOT
ATOM      1  C   UNL     1      -2.176  -7.045   3.106  0.00  0.00    -0.021 A 
ATOM      2  C   UNL     1      -3.475  -6.595   2.848  0.00  0.00    +0.031 A 
ATOM      3  C   UNL     1      -4.555  -7.304   3.328  0.00  0.00    +0.085 A 
ATOM      4  C   UNL     1      -4.356  -8.464   4.068  0.00  0.00    +0.157 A 
ATOM      5  C   UNL     1      -3.066  -8.915   4.327  0.00  0.00    +0.085 A 
ATOM      6  C   UNL     1      -1.980  -8.216   3.847  0.00  0.00    +0.031 A 
ATOM      7 CL   UNL     1      -2.825 -10.364   5.253  0.00  0.00    -0.080 Cl
ATOM      8 CL   UNL     1      -6.168  -6.746   3.009  0.00  0.00    -0.080 Cl
ENDROOT
BRANCH   1  10
ATOM      9  C   UNL     1      -1.052  -4.945   2.565  0.00  0.00    +0.072 C 
ATOM     10  C   UNL     1      -1.020  -6.294   2.595  0.00  0.00    +0.026 C 
BRANCH   9  17
ATOM     11  C   UNL     1       1.071   1.711   2.731  0.00  0.00    +0.044 C 
ATOM     12  C   UNL     1       0.641   0.370   2.194  0.00  0.00    -0.048 A 
ATOM     13  C   UNL     1      -0.065   0.324   0.979  0.00  0.00    +0.005 A 
ATOM     14  C   UNL     1      -0.487  -0.831   0.427  0.00  0.00    +0.027 A 
ATOM     15  C   UNL     1      -0.208  -2.103   1.107  0.00  0.00    +0.060 A 
ATOM     16  N   UNL     1      -0.488  -3.341   0.817  0.00  0.00    -0.359 N 
ATOM     17  C   UNL     1       0.058  -4.179   1.891  0.00  0.00    +0.216 C 
ATOM     18  N   UNL     1       0.693  -3.264   2.848  0.00  0.00    -0.359 N 
ATOM     19  C   UNL     1       0.539  -2.055   2.393  0.00  0.00    +0.061 A 
ATOM     20  C   UNL     1       0.953  -0.738   2.896  0.00  0.00    +0.030 A 
ATOM     21  H   UNL     1      -0.968  -3.653   0.034  0.00  0.00    +0.162 HD
ATOM     22  H   UNL     1       1.145  -3.515   3.669  0.00  0.00    +0.162 HD
ENDBRANCH   9  17
BRANCH   9  23
ATOM     23  C   UNL     1      -2.141  -4.241   3.172  0.00  0.00    +0.099 C 
ATOM     24  N   UNL     1      -3.005  -3.682   3.654  0.00  0.00    -0.191 NA
ENDBRANCH   9  23
ENDBRANCH   1  10
BRANCH   4  25
ATOM     25  O   UNL     1      -5.423  -9.158   4.540  0.00  0.00    -0.484 OA
BRANCH  25  26
ATOM     26  C   UNL     1      -5.959 -10.178   3.694  0.00  0.00    +0.264 C 
BRANCH  26  27
ATOM     27  C   UNL     1      -7.130 -10.835   4.379  0.00  0.00    -0.010 A 
ATOM     28  C   UNL     1      -6.922 -11.934   5.194  0.00  0.00    +0.008 A 
ATOM     29  C   UNL     1      -7.989 -12.541   5.823  0.00  0.00    +0.015 A 
ATOM     30  C   UNL     1      -9.281 -12.043   5.637  0.00  0.00    +0.063 A 
ATOM     31  C   UNL     1      -9.483 -10.932   4.813  0.00  0.00    +0.015 A 
ATOM     32  C   UNL     1      -8.406 -10.333   4.194  0.00  0.00    +0.008 A 
BRANCH  30  33
ATOM     33  C   UNL     1     -10.427 -12.687   6.307  0.00  0.00    +0.387 C 
ATOM     34  O   UNL     1     -10.247 -13.659   7.027  0.00  0.00    -0.241 OA
ATOM     35  O   UNL     1     -11.557 -12.249   6.142  0.00  0.00    -0.241 OA
ENDBRANCH  30  33
ENDBRANCH  26  27
ENDBRANCH  25  26
ENDBRANCH   4  25
TORSDOF 7
