REMARK  Name = ZINC39266337
REMARK  13 active torsions:
REMARK  status: ('A' for Active; 'I' for Inactive)
REMARK    1  A    between atoms: C_1  and  C_2
REMARK    2  A    between atoms: C_2  and  O_3
REMARK    3  A    between atoms: O_3  and  C_4
REMARK    4  A    between atoms: C_4  and  C_6
REMARK    5  A    between atoms: C_6  and  C_8
REMARK    6  A    between atoms: C_6  and  N_12
REMARK    7  A    between atoms: C_8  and  C_9
REMARK    8  A    between atoms: C_9  and  C_10
REMARK    9  A    between atoms: C_9  and  C_11
REMARK   10  A    between atoms: N_21  and  C_22
REMARK   11  A    between atoms: C_22  and  C_23
REMARK   12  A    between atoms: N_25  and  C_26
REMARK   13  A    between atoms: C_29  and  C_32
REMARK                            x       y       z     vdW  Elec       q    Type
REMARK                         _______ _______ _______ _____ _____    ______ ____
ROOT
ATOM      1  N   UNL     1      -2.526  -3.698  -0.211  0.00  0.00    -0.289 N 
ATOM      2  C   UNL     1      -1.887  -4.450   0.877  0.00  0.00    +0.108 C 
ATOM      3  C   UNL     1      -2.508  -5.865   0.822  0.00  0.00    +0.016 C 
ATOM      4  C   UNL     1      -2.947  -5.953  -0.650  0.00  0.00    +0.015 C 
ATOM      5  C   UNL     1      -3.125  -4.525  -1.089  0.00  0.00    +0.206 C 
ATOM      6  O   UNL     1      -3.718  -4.171  -2.086  0.00  0.00    -0.277 OA
ATOM      7  C   UNL     1      -4.267  -6.730  -0.768  0.00  0.00    -0.005 C 
ATOM      8  C   UNL     1      -4.082  -7.524  -2.090  0.00  0.00    -0.019 C 
ATOM      9  C   UNL     1      -2.567  -7.847  -2.054  0.00  0.00    -0.077 C 
ATOM     10  N   UNL     1      -1.938  -6.647  -1.456  0.00  0.00    +0.395 N 
ATOM     11  H   UNL     1      -1.607  -6.036  -2.188  0.00  0.00    -0.080 HD
ENDROOT
BRANCH   1  12
ATOM     12  C   UNL     1      -2.518  -2.238  -0.323  0.00  0.00    +0.185 C 
BRANCH  12  13
ATOM     13  C   UNL     1      -1.095  -1.749  -0.419  0.00  0.00    +0.328 C 
ATOM     14  O   UNL     1      -0.182  -2.540  -0.397  0.00  0.00    -0.249 OA
BRANCH  13  15
ATOM     15  O   UNL     1      -0.843  -0.435  -0.530  0.00  0.00    -0.464 OA
BRANCH  15  17
ATOM     16  C   UNL     1       0.617   1.479  -0.737  0.00  0.00    +0.048 C 
ATOM     17  C   UNL     1       0.528  -0.043  -0.617  0.00  0.00    +0.229 C 
ENDBRANCH  15  17
ENDBRANCH  13  15
ENDBRANCH  12  13
BRANCH  12  18
ATOM     18  C   UNL     1      -3.184  -1.628   0.912  0.00  0.00    +0.037 C 
BRANCH  18  19
ATOM     19  C   UNL     1      -4.662  -2.023   0.942  0.00  0.00    -0.015 C 
ATOM     20  C   UNL     1      -5.298  -1.519   2.239  0.00  0.00    +0.007 C 
ATOM     21  C   UNL     1      -5.381  -1.399  -0.255  0.00  0.00    +0.007 C 
ENDBRANCH  18  19
ENDBRANCH  12  18
ENDBRANCH   1  12
BRANCH  10  22
ATOM     22  C   UNL     1      -0.813  -7.051  -0.602  0.00  0.00    +0.020 C 
BRANCH  22  23
ATOM     23  C   UNL     1       0.289  -7.620  -1.458  0.00  0.00    +0.201 C 
ATOM     24  O   UNL     1       0.151  -7.684  -2.661  0.00  0.00    -0.278 OA
ATOM     25  N   UNL     1       1.428  -8.059  -0.886  0.00  0.00    -0.287 N 
ATOM     26  H   UNL     1       1.509  -8.080   0.080  0.00  0.00    +0.155 HD
BRANCH  25  27
ATOM     27  C   UNL     1       2.493  -8.485  -1.687  0.00  0.00    +0.033 A 
ATOM     28  C   UNL     1       3.303  -9.533  -1.268  0.00  0.00    +0.024 A 
ATOM     29  C   UNL     1       4.354  -9.951  -2.061  0.00  0.00    +0.014 A 
ATOM     30  C   UNL     1       4.600  -9.328  -3.270  0.00  0.00    +0.055 A 
ATOM     31  C   UNL     1       3.796  -8.284  -3.690  0.00  0.00    +0.014 A 
ATOM     32  C   UNL     1       2.740  -7.865  -2.905  0.00  0.00    +0.024 A 
BRANCH  30  33
ATOM     33  C   UNL     1       5.748  -9.787  -4.133  0.00  0.00    +0.417 C 
ATOM     34  F   UNL     1       5.305 -10.787  -5.004  0.00  0.00    -0.166 F 
ATOM     35  F   UNL     1       6.236  -8.705  -4.873  0.00  0.00    -0.166 F 
ATOM     36  F   UNL     1       6.768 -10.294  -3.320  0.00  0.00    -0.166 F 
ENDBRANCH  30  33
ENDBRANCH  25  27
ENDBRANCH  22  23
ENDBRANCH  10  22
TORSDOF 10
