REMARK  Name = ZINC12151294
REMARK  16 active torsions:
REMARK  status: ('A' for Active; 'I' for Inactive)
REMARK    1  A    between atoms: C_1  and  C_2
REMARK    2  A    between atoms: C_2  and  C_3
REMARK    3  A    between atoms: C_2  and  C_4
REMARK    4  A    between atoms: C_4  and  C_5
REMARK    5  A    between atoms: C_9  and  N_27
REMARK    6  A    between atoms: C_11  and  C_15
REMARK    7  A    between atoms: N_13  and  C_14
REMARK    8  A    between atoms: N_17  and  C_18
REMARK    9  A    between atoms: C_18  and  C_19
REMARK   10  A    between atoms: C_19  and  C_20
REMARK   11  A    between atoms: C_19  and  C_21
REMARK   12  A    between atoms: C_19  and  N_72
REMARK   13  A    between atoms: N_27  and  S_28
REMARK   14  A    between atoms: S_28  and  N_31
REMARK   15  A    between atoms: N_31  and  C_32
REMARK   16  A    between atoms: N_31  and  C_33
REMARK                            x       y       z     vdW  Elec       q    Type
REMARK                         _______ _______ _______ _____ _____    ______ ____
ROOT
ATOM      1  C   UNL     1       3.004   2.122  -0.706  0.00  0.00    +0.111 A 
ATOM      2  N   UNL     1       2.258   1.064  -0.571  0.00  0.00    -0.232 NA
ATOM      3  C   UNL     1       0.962   1.438  -0.410  0.00  0.00    +0.092 A 
ATOM      4  C   UNL     1      -0.227   0.728  -0.226  0.00  0.00    +0.054 A 
ATOM      5  C   UNL     1      -1.426   1.406  -0.093  0.00  0.00    +0.052 A 
ATOM      6  C   UNL     1      -1.460   2.795  -0.131  0.00  0.00    +0.039 A 
ATOM      7  C   UNL     1      -0.284   3.520  -0.313  0.00  0.00    +0.064 A 
ATOM      8  C   UNL     1       0.934   2.841  -0.453  0.00  0.00    +0.081 A 
ATOM      9  N   UNL     1       2.237   3.244  -0.641  0.00  0.00    -0.330 N 
ATOM     10  C   UNL     1       2.711   4.626  -0.751  0.00  0.00    +0.150 C 
ENDROOT
BRANCH   7  11
ATOM     11  C   UNL     1      -0.321   4.995  -0.357  0.00  0.00    +0.246 C 
ATOM     12  O   UNL     1       0.353   5.596  -1.170  0.00  0.00    -0.270 OA
ATOM     13  N   UNL     1      -1.103   5.675   0.505  0.00  0.00    -0.313 N 
ATOM     14  H   UNL     1      -1.642   5.196   1.153  0.00  0.00    +0.149 HD
BRANCH  13  15
ATOM     15  C   UNL     1      -1.140   7.139   0.461  0.00  0.00    +0.092 C 
BRANCH  15  16
ATOM     16  C   UNL     1      -1.998   7.662   1.614  0.00  0.00    -0.055 C 
ATOM     17  C   UNL     1      -1.353   7.274   2.946  0.00  0.00    -0.008 C 
ATOM     18  C   UNL     1      -2.102   9.186   1.522  0.00  0.00    -0.008 C 
BRANCH  16  24
ATOM     19  C   UNL     1      -3.972   7.380   0.238  0.00  0.00    -0.049 C 
ATOM     20  C   UNL     1      -5.342   6.700   0.171  0.00  0.00    +0.141 C 
ATOM     21  O   UNL     1      -6.138   7.133   1.277  0.00  0.00    -0.383 OA
ATOM     22  C   UNL     1      -5.555   6.849   2.552  0.00  0.00    +0.141 C 
ATOM     23  C   UNL     1      -4.187   7.531   2.644  0.00  0.00    -0.049 C 
ATOM     24  N   UNL     1      -3.341   7.047   1.533  0.00  0.00    +0.387 N 
ATOM     25  H   UNL     1      -3.245   6.027   1.605  0.00  0.00    -0.081 HD
ENDBRANCH  16  24
ENDBRANCH  15  16
ENDBRANCH  13  15
ENDBRANCH   7  11
BRANCH   5  26
ATOM     26  N   UNL     1      -2.614   0.687   0.085  0.00  0.00    -0.206 N 
ATOM     27  H   UNL     1      -3.406   0.928  -0.420  0.00  0.00    +0.175 HD
BRANCH  26  28
ATOM     28  S   UNL     1      -2.666  -0.574   1.156  0.00  0.00    +0.111 S 
ATOM     29  O   UNL     1      -3.995  -1.075   1.130  0.00  0.00    -0.138 OA
ATOM     30  O   UNL     1      -1.538  -1.392   0.876  0.00  0.00    -0.138 OA
BRANCH  28  31
ATOM     31  N   UNL     1      -2.428   0.058   2.668  0.00  0.00    -0.170 NA
ATOM     32  C   UNL     1      -3.575   0.499   3.467  0.00  0.00    +0.132 C 
ATOM     33  C   UNL     1      -1.071   0.176   3.208  0.00  0.00    +0.132 C 
ENDBRANCH  28  31
ENDBRANCH  26  28
ENDBRANCH   5  26
BRANCH   1  34
ATOM     34  C   UNL     1       4.497   2.106  -0.906  0.00  0.00    +0.077 C 
BRANCH  34  36
ATOM     35  C   UNL     1       4.326   3.340  -3.072  0.00  0.00    +0.007 C 
ATOM     36  C   UNL     1       4.811   2.053  -2.403  0.00  0.00    -0.010 C 
ATOM     37  C   UNL     1       6.321   1.911  -2.603  0.00  0.00    +0.007 C 
ENDBRANCH  34  36
ENDBRANCH   1  34
TORSDOF 9
