REMARK  Name = ZINC39600843
REMARK  7 active torsions:
REMARK  status: ('A' for Active; 'I' for Inactive)
REMARK    1  A    between atoms: C_1  and  C_2
REMARK    2  A    between atoms: C_2  and  C_3
REMARK    3  A    between atoms: C_3  and  C_5
REMARK    4  A    between atoms: C_3  and  C_11
REMARK    5  A    between atoms: C_15  and  C_24
REMARK    6  A    between atoms: N_26  and  C_27
REMARK    7  A    between atoms: C_27  and  C_28
REMARK                            x       y       z     vdW  Elec       q    Type
REMARK                         _______ _______ _______ _____ _____    ______ ____
ROOT
ATOM      1  C   UNL     1       1.924  -0.001  -1.265  0.00  0.00    +0.223 C 
ATOM      2  O   UNL     1       2.807  -0.797  -1.501  0.00  0.00    -0.275 OA
ATOM      3  N   UNL     1       2.217   1.306  -1.114  0.00  0.00    -0.300 N 
ATOM      4  C   UNL     1       1.274   2.431  -0.912  0.00  0.00    +0.121 C 
ATOM      5  C   UNL     1       1.971   3.344   0.122  0.00  0.00    +0.100 C 
ATOM      6  C   UNL     1       3.468   3.020  -0.015  0.00  0.00    -0.004 C 
ATOM      7  C   UNL     1       3.557   1.941  -1.104  0.00  0.00    +0.115 C 
ATOM      8  C   UNL     1       4.242   4.264  -0.438  0.00  0.00    -0.010 C 
ATOM      9  C   UNL     1       5.735   3.931  -0.510  0.00  0.00    -0.082 C 
ATOM     10  N   UNL     1       6.199   3.465   0.802  0.00  0.00    +0.379 N 
ATOM     11  C   UNL     1       5.516   2.216   1.160  0.00  0.00    -0.082 C 
ATOM     12  C   UNL     1       4.014   2.477   1.303  0.00  0.00    -0.010 C 
ATOM     13  H   UNL     1       7.194   3.305   0.768  0.00  0.00    -0.086 HD
ATOM     14  H   UNL     1       5.998   4.168   1.497  0.00  0.00    -0.086 HD
ENDROOT
BRANCH   5  15
ATOM     15  C   UNL     1       1.714   4.793  -0.201  0.00  0.00    +0.218 C 
ATOM     16  O   UNL     1       1.506   5.132  -1.346  0.00  0.00    -0.275 OA
ATOM     17  N   UNL     1       1.716   5.713   0.784  0.00  0.00    -0.311 N 
ATOM     18  H   UNL     1       1.883   5.442   1.701  0.00  0.00    +0.149 HD
BRANCH  17  19
ATOM     19  C   UNL     1       1.466   7.122   0.471  0.00  0.00    +0.142 C 
BRANCH  19  20
ATOM     20  C   UNL     1       1.523   7.937   1.738  0.00  0.00    +0.006 A 
ATOM     21  C   UNL     1       0.353   8.308   2.373  0.00  0.00    +0.023 A 
ATOM     22  C   UNL     1       0.404   9.055   3.536  0.00  0.00    +0.018 A 
ATOM     23  C   UNL     1       1.627   9.431   4.064  0.00  0.00    +0.018 A 
ATOM     24  C   UNL     1       2.797   9.060   3.430  0.00  0.00    +0.040 A 
ATOM     25  C   UNL     1       2.746   8.307   2.269  0.00  0.00    +0.128 A 
ATOM     26  F   UNL     1       3.890   7.940   1.651  0.00  0.00    -0.205 F 
ATOM     27 BR   UNL     1      -1.197   9.564   4.404  0.00  0.00    -0.050 Br
ENDBRANCH  19  20
ENDBRANCH  17  19
ENDBRANCH   5  15
BRANCH   1  28
ATOM     28  C   UNL     1       0.497  -0.472  -1.143  0.00  0.00    +0.105 C 
BRANCH  28  29
ATOM     29  C   UNL     1      -0.143  -0.495  -2.506  0.00  0.00    -0.036 A 
ATOM     30  C   UNL     1       0.383  -1.295  -3.504  0.00  0.00    +0.004 A 
ATOM     31  C   UNL     1      -0.204  -1.316  -4.755  0.00  0.00    +0.000 A 
ATOM     32  C   UNL     1      -1.318  -0.538  -5.009  0.00  0.00    +0.000 A 
ATOM     33  C   UNL     1      -1.845   0.261  -4.011  0.00  0.00    +0.000 A 
ATOM     34  C   UNL     1      -1.260   0.279  -2.759  0.00  0.00    +0.004 A 
ENDBRANCH  28  29
BRANCH  28  36
ATOM     35  C   UNL     1       0.995  -1.831   0.894  0.00  0.00    +0.005 C 
ATOM     36  C   UNL     1       0.475  -1.880  -0.544  0.00  0.00    +0.014 C 
ENDBRANCH  28  36
ENDBRANCH   1  28
TORSDOF 6
