REMARK  Name = ZINC43233421
REMARK  5 active torsions:
REMARK  status: ('A' for Active; 'I' for Inactive)
REMARK    1  A    between atoms: C_1  and  C_2
REMARK    2  A    between atoms: C_2  and  O_3
REMARK    3  A    between atoms: O_3  and  C_4
REMARK    4  A    between atoms: C_7  and  C_10
REMARK    5  A    between atoms: N_18  and  C_19
REMARK                            x       y       z     vdW  Elec       q    Type
REMARK                         _______ _______ _______ _____ _____    ______ ____
ROOT
ATOM      1  C   UNL     1       1.109  -6.063  -1.834  0.00  0.00    +0.108 C 
ATOM      2  C   UNL     1       0.036  -6.567  -2.822  0.00  0.00    +0.029 C 
ATOM      3  C   UNL     1       0.794  -7.653  -3.632  0.00  0.00    +0.021 C 
ATOM      4  C   UNL     1       2.216  -7.044  -3.714  0.00  0.00    +0.110 C 
ATOM      5  N   UNL     1       2.423  -6.389  -2.406  0.00  0.00    -0.278 N 
ATOM      6  C   UNL     1       3.615  -6.130  -1.834  0.00  0.00    +0.307 C 
ATOM      7  O   UNL     1       3.663  -5.582  -0.750  0.00  0.00    -0.252 OA
ATOM      8  N   UNL     1       4.755  -6.480  -2.463  0.00  0.00    -0.267 N 
ATOM      9  H   UNL     1       4.717  -6.974  -3.296  0.00  0.00    +0.156 HD
ENDROOT
BRANCH   8  10
ATOM     10  C   UNL     1       5.995  -6.128  -1.913  0.00  0.00    +0.073 A 
ATOM     11  C   UNL     1       6.162  -6.102  -0.535  0.00  0.00    +0.029 A 
ATOM     12  C   UNL     1       7.385  -5.756   0.007  0.00  0.00    +0.043 A 
ATOM     13  C   UNL     1       8.446  -5.433  -0.822  0.00  0.00    +0.161 A 
ATOM     14  C   UNL     1       8.284  -5.458  -2.199  0.00  0.00    +0.195 A 
ATOM     15  C   UNL     1       7.061  -5.811  -2.746  0.00  0.00    +0.182 A 
ATOM     16  F   UNL     1       6.904  -5.840  -4.087  0.00  0.00    -0.200 F 
ATOM     17  F   UNL     1       9.320  -5.143  -3.007  0.00  0.00    -0.199 F 
ATOM     18  F   UNL     1       9.640  -5.094  -0.289  0.00  0.00    -0.202 F 
ENDBRANCH   8  10
BRANCH   1  22
ATOM     19  C   UNL     1       0.750  -1.834  -1.332  0.00  0.00    +0.121 A 
ATOM     20  C   UNL     1       0.225  -2.694  -0.378  0.00  0.00    +0.046 A 
ATOM     21  C   UNL     1       0.342  -4.061  -0.543  0.00  0.00    +0.009 A 
ATOM     22  C   UNL     1       0.982  -4.572  -1.657  0.00  0.00    -0.027 A 
ATOM     23  C   UNL     1       1.506  -3.717  -2.609  0.00  0.00    +0.009 A 
ATOM     24  C   UNL     1       1.386  -2.350  -2.452  0.00  0.00    +0.046 A 
BRANCH  19  25
ATOM     25  O   UNL     1       0.635  -0.489  -1.173  0.00  0.00    -0.492 OA
BRANCH  25  27
ATOM     26  C   UNL     1      -0.063   1.500   0.009  0.00  0.00    +0.048 C 
ATOM     27  C   UNL     1      -0.032  -0.030   0.004  0.00  0.00    +0.225 C 
ENDBRANCH  25  27
ENDBRANCH  19  25
ENDBRANCH   1  22
TORSDOF 4
