REMARK  Name = ZINC27248238
REMARK  12 active torsions:
REMARK  status: ('A' for Active; 'I' for Inactive)
REMARK    1  A    between atoms: C_1  and  C_2
REMARK    2  A    between atoms: C_2  and  C_3
REMARK    3  A    between atoms: C_2  and  C_4
REMARK    4  A    between atoms: C_4  and  C_5
REMARK    5  A    between atoms: C_5  and  C_6
REMARK    6  A    between atoms: C_5  and  C_14
REMARK    7  A    between atoms: C_5  and  O_29
REMARK    8  A    between atoms: C_9  and  O_12
REMARK    9  A    between atoms: O_12  and  C_13
REMARK   10  A    between atoms: C_14  and  C_16
REMARK   11  A    between atoms: C_14  and  C_22
REMARK   12  A    between atoms: C_16  and  N_17
REMARK                            x       y       z     vdW  Elec       q    Type
REMARK                         _______ _______ _______ _____ _____    ______ ____
ROOT
ATOM      1  C   UNL     1      -0.490   1.405   1.618  0.00  0.00    +0.096 C 
ENDROOT
BRANCH   1   2
ATOM      2  C   UNL     1      -0.842   2.865   1.738  0.00  0.00    -0.015 A 
ATOM      3  C   UNL     1       0.002   3.726   2.415  0.00  0.00    +0.010 A 
ATOM      4  C   UNL     1      -0.316   5.066   2.521  0.00  0.00    +0.046 A 
ATOM      5  C   UNL     1      -1.489   5.546   1.958  0.00  0.00    +0.120 A 
ATOM      6  C   UNL     1      -2.338   4.679   1.285  0.00  0.00    +0.046 A 
ATOM      7  C   UNL     1      -2.013   3.341   1.176  0.00  0.00    +0.010 A 
BRANCH   5   8
ATOM      8  O   UNL     1      -1.807   6.863   2.066  0.00  0.00    -0.495 OA
ATOM      9  C   UNL     1      -0.887   7.697   2.773  0.00  0.00    +0.277 C 
ENDBRANCH   5   8
ENDBRANCH   1   2
BRANCH   1  10
ATOM     10  O   UNL     1      -1.568   0.705   0.995  0.00  0.00    -0.383 OA
ATOM     11  H   UNL     1      -2.564   0.700   1.461  0.00  0.00    +0.211 HD
ENDBRANCH   1  10
BRANCH   1  12
ATOM     12  C   UNL     1       0.775   1.254   0.771  0.00  0.00    +0.043 C 
BRANCH  12  14
ATOM     13  C   UNL     1       1.895   1.964  -1.347  0.00  0.00    +0.007 C 
ATOM     14  C   UNL     1       0.574   1.954  -0.575  0.00  0.00    -0.014 C 
ATOM     15  C   UNL     1      -0.485   1.204  -1.386  0.00  0.00    +0.007 C 
ENDBRANCH  12  14
ENDBRANCH   1  12
BRANCH   1  16
ATOM     16  C   UNL     1      -0.242   0.824   3.012  0.00  0.00    +0.039 C 
BRANCH  16  17
ATOM     17  C   UNL     1      -1.429   1.113   3.895  0.00  0.00    -0.043 A 
ATOM     18  C   UNL     1      -2.611   0.418   3.713  0.00  0.00    +0.005 A 
ATOM     19  C   UNL     1      -3.697   0.679   4.526  0.00  0.00    +0.020 A 
ATOM     20  C   UNL     1      -3.607   1.643   5.514  0.00  0.00    +0.041 A 
ATOM     21  C   UNL     1      -2.426   2.342   5.691  0.00  0.00    +0.020 A 
ATOM     22  C   UNL     1      -1.338   2.077   4.881  0.00  0.00    +0.005 A 
ATOM     23 CL   UNL     1      -4.974   1.977   6.530  0.00  0.00    -0.084 Cl
ENDBRANCH  16  17
BRANCH  16  24
ATOM     24  C   UNL     1      -0.042  -0.689   2.905  0.00  0.00    -0.068 C 
BRANCH  24  25
ATOM     25  N   UNL     1       1.204  -0.968   2.181  0.00  0.00    +0.380 N 
ATOM     26  C   UNL     1       2.370  -0.364   2.874  0.00  0.00    -0.079 C 
ATOM     27  C   UNL     1       3.571  -1.167   2.316  0.00  0.00    -0.020 C 
ATOM     28  C   UNL     1       3.002  -2.600   2.195  0.00  0.00    -0.020 C 
ATOM     29  C   UNL     1       1.474  -2.422   2.131  0.00  0.00    -0.079 C 
ATOM     30  H   UNL     1       1.065  -0.549   1.173  0.00  0.00    -0.082 HD
ENDBRANCH  24  25
ENDBRANCH  16  24
ENDBRANCH   1  16
TORSDOF 9
