REMARK  Name = ZINC16513616
REMARK  6 active torsions:
REMARK  status: ('A' for Active; 'I' for Inactive)
REMARK    1  A    between atoms: C_4  and  C_7
REMARK    2  A    between atoms: C_10  and  C_13
REMARK    3  A    between atoms: C_16  and  C_18
REMARK    4  A    between atoms: C_18  and  C_27
REMARK    5  A    between atoms: C_19  and  N_20
REMARK    6  A    between atoms: N_20  and  C_21
REMARK                            x       y       z     vdW  Elec       q    Type
REMARK                         _______ _______ _______ _____ _____    ______ ____
ROOT
ATOM      1  C   UNL     1       6.438  -1.023  -1.490  0.00  0.00    +0.079 A 
ATOM      2  C   UNL     1       6.548  -2.372  -1.700  0.00  0.00    +0.075 A 
ATOM      3  S   UNL     1       8.252  -2.643  -1.233  0.00  0.00    -0.074 S 
ATOM      4  C   UNL     1       8.637  -0.952  -0.801  0.00  0.00    +0.120 A 
ATOM      5  N   UNL     1       7.484  -0.348  -1.044  0.00  0.00    -0.238 NA
ENDROOT
BRANCH   1   9
ATOM      6  C   UNL     1       2.759   0.975  -2.252  0.00  0.00    -0.018 A 
ATOM      7  C   UNL     1       2.864  -0.399  -2.467  0.00  0.00    +0.009 A 
ATOM      8  C   UNL     1       4.056  -1.045  -2.226  0.00  0.00    +0.010 A 
ATOM      9  C   UNL     1       5.156  -0.327  -1.755  0.00  0.00    +0.001 A 
ATOM     10  C   UNL     1       5.049   1.046  -1.534  0.00  0.00    +0.010 A 
ATOM     11  C   UNL     1       3.858   1.693  -1.781  0.00  0.00    +0.009 A 
BRANCH   6  15
ATOM     12  C   UNL     1      -0.916   2.971  -3.014  0.00  0.00    +0.000 A 
ATOM     13  C   UNL     1      -0.812   1.610  -3.239  0.00  0.00    +0.001 A 
ATOM     14  C   UNL     1       0.377   0.956  -2.989  0.00  0.00    +0.008 A 
ATOM     15  C   UNL     1       1.477   1.671  -2.518  0.00  0.00    -0.018 A 
ATOM     16  C   UNL     1       1.368   3.043  -2.298  0.00  0.00    +0.008 A 
ATOM     17  C   UNL     1       0.172   3.686  -2.546  0.00  0.00    +0.001 A 
ENDBRANCH   6  15
ENDBRANCH   1   9
BRANCH   4  18
ATOM     18  C   UNL     1       9.904  -0.380  -0.306  0.00  0.00    +0.098 C 
ATOM     19  C   UNL     1      10.950  -1.200  -0.004  0.00  0.00    +0.093 C 
BRANCH  19  20
ATOM     20  N   UNL     1      10.779  -2.555  -0.010  0.00  0.00    -0.319 N 
ATOM     21  H   UNL     1       9.896  -2.932  -0.149  0.00  0.00    +0.152 HD
BRANCH  20  22
ATOM     22  C   UNL     1      11.876  -3.399   0.185  0.00  0.00    +0.031 A 
ATOM     23  C   UNL     1      13.142  -2.861   0.380  0.00  0.00    +0.023 A 
ATOM     24  C   UNL     1      14.223  -3.697   0.577  0.00  0.00    +0.002 A 
ATOM     25  C   UNL     1      14.048  -5.069   0.572  0.00  0.00    +0.000 A 
ATOM     26  C   UNL     1      12.790  -5.608   0.373  0.00  0.00    +0.002 A 
ATOM     27  C   UNL     1      11.704  -4.777   0.180  0.00  0.00    +0.023 A 
ENDBRANCH  20  22
ENDBRANCH  19  20
BRANCH  18  28
ATOM     28  C   UNL     1      10.034   1.037  -0.142  0.00  0.00    +0.103 C 
ATOM     29  N   UNL     1      10.138   2.161  -0.012  0.00  0.00    -0.191 NA
ENDBRANCH  18  28
ENDBRANCH   4  18
TORSDOF 6
