REMARK  Name = ZINC03169874
REMARK  14 active torsions:
REMARK  status: ('A' for Active; 'I' for Inactive)
REMARK    1  A    between atoms: C_1  and  C_2
REMARK    2  A    between atoms: C_2  and  C_3
REMARK    3  A    between atoms: C_2  and  C_4
REMARK    4  A    between atoms: C_2  and  C_5
REMARK    5  A    between atoms: C_7  and  C_16
REMARK    6  A    between atoms: C_9  and  C_12
REMARK    7  A    between atoms: C_10  and  O_11
REMARK    8  A    between atoms: C_12  and  C_13
REMARK    9  A    between atoms: C_12  and  C_14
REMARK   10  A    between atoms: C_12  and  C_15
REMARK   11  A    between atoms: C_16  and  C_17
REMARK   12  A    between atoms: C_17  and  C_18
REMARK   13  A    between atoms: N_20  and  N_21
REMARK   14  A    between atoms: C_22  and  C_23
REMARK                            x       y       z     vdW  Elec       q    Type
REMARK                         _______ _______ _______ _____ _____    ______ ____
ROOT
ATOM      1  C   UNL     1       1.524  10.273   0.044  0.00  0.00    +0.044 C 
ENDROOT
BRANCH   1   4
ATOM      2  C   UNL     1       3.683  13.124  -1.162  0.00  0.00    -0.000 A 
ATOM      3  C   UNL     1       2.845  12.026  -1.157  0.00  0.00    +0.011 A 
ATOM      4  C   UNL     1       2.438  11.471   0.042  0.00  0.00    -0.046 A 
ATOM      5  C   UNL     1       2.864  12.016   1.239  0.00  0.00    +0.011 A 
ATOM      6  C   UNL     1       3.707  13.111   1.240  0.00  0.00    -0.000 A 
ATOM      7  C   UNL     1       4.116  13.670   0.038  0.00  0.00    +0.124 A 
BRANCH   2   9
ATOM      8  C   UNL     1       3.510  12.945  -3.629  0.00  0.00    +0.015 C 
ATOM      9  C   UNL     1       4.126  13.730  -2.469  0.00  0.00    -0.009 C 
ATOM     10  C   UNL     1       3.665  15.187  -2.538  0.00  0.00    +0.015 C 
ATOM     11  C   UNL     1       5.651  13.671  -2.567  0.00  0.00    +0.015 C 
ENDBRANCH   2   9
BRANCH   6  12
ATOM     12  C   UNL     1       4.176  13.701   2.545  0.00  0.00    -0.009 C 
ATOM     13  C   UNL     1       3.583  12.903   3.708  0.00  0.00    +0.015 C 
ATOM     14  C   UNL     1       5.703  13.642   2.611  0.00  0.00    +0.015 C 
ATOM     15  C   UNL     1       3.717  15.158   2.640  0.00  0.00    +0.015 C 
ENDBRANCH   6  12
BRANCH   7  16
ATOM     16  O   UNL     1       4.941  14.750   0.036  0.00  0.00    -0.506 OA
ATOM     17  H   UNL     1       4.478  15.599   0.045  0.00  0.00    +0.292 HD
ENDBRANCH   7  16
ENDBRANCH   1   4
BRANCH   1  18
ATOM     18  C   UNL     1       2.361   8.992   0.029  0.00  0.00    +0.102 C 
BRANCH  18  19
ATOM     19  C   UNL     1       1.447   7.794   0.031  0.00  0.00    +0.232 C 
ATOM     20  O   UNL     1       0.243   7.950   0.044  0.00  0.00    -0.274 OA
ATOM     21  N   UNL     1       1.966   6.551   0.019  0.00  0.00    -0.207 N 
ATOM     22  H   UNL     1       2.928   6.426   0.009  0.00  0.00    +0.177 HD
BRANCH  21  23
ATOM     23  N   UNL     1       1.116   5.437   0.021  0.00  0.00    -0.188 NA
ATOM     24  C   UNL     1       1.616   4.238   0.009  0.00  0.00    +0.140 C 
BRANCH  24  25
ATOM     25  C   UNL     1       0.723   3.068   0.012  0.00  0.00    +0.020 A 
ATOM     26  C   UNL     1       1.096   1.760   0.001  0.00  0.00    +0.093 A 
ATOM     27  N   UNL     1      -0.011   0.966   0.007  0.00  0.00    -0.360 N 
ATOM     28  H   UNL     1       0.002  -0.004   0.002  0.00  0.00    +0.165 HD
ATOM     29  C   UNL     1      -1.153   1.738   0.016  0.00  0.00    +0.047 A 
ATOM     30  C   UNL     1      -0.751   3.085   0.026  0.00  0.00    +0.008 A 
ATOM     31  C   UNL     1      -1.706   4.098   0.040  0.00  0.00    +0.010 A 
ATOM     32  C   UNL     1      -3.045   3.774   0.051  0.00  0.00    +0.001 A 
ATOM     33  C   UNL     1      -3.443   2.445   0.048  0.00  0.00    +0.002 A 
ATOM     34  C   UNL     1      -2.510   1.432   0.033  0.00  0.00    +0.026 A 
ENDBRANCH  24  25
ENDBRANCH  21  23
ENDBRANCH  18  19
ENDBRANCH   1  18
TORSDOF 8
