REMARK  Name = ZINC31045529
REMARK  7 active torsions:
REMARK  status: ('A' for Active; 'I' for Inactive)
REMARK    1  A    between atoms: C_4  and  S_7
REMARK    2  A    between atoms: S_7  and  C_8
REMARK    3  A    between atoms: C_13  and  N_14
REMARK    4  A    between atoms: C_15  and  C_17
REMARK    5  A    between atoms: N_22  and  C_24
REMARK    6  A    between atoms: C_24  and  C_25
REMARK    7  A    between atoms: C_27  and  C_30
REMARK                            x       y       z     vdW  Elec       q    Type
REMARK                         _______ _______ _______ _____ _____    ______ ____
ROOT
ATOM      1  C   UNL     1       1.102  -0.428  -1.282  0.00  0.00    +0.059 C 
ATOM      2  C   UNL     1       2.564   0.007  -1.412  0.00  0.00    +0.009 C 
ATOM      3  C   UNL     1       2.640   1.535  -1.365  0.00  0.00    -0.018 C 
ATOM      4  C   UNL     1       2.019   2.032  -0.058  0.00  0.00    -0.078 C 
ATOM      5  N   UNL     1       0.620   1.591   0.019  0.00  0.00    +0.386 N 
ATOM      6  C   UNL     1       0.525   0.125   0.023  0.00  0.00    -0.065 C 
ATOM      7  H   UNL     1       0.103   1.958  -0.879  0.00  0.00    -0.081 HD
ENDROOT
BRANCH   1   9
ATOM      8  N   UNL     1       1.477  -2.641  -2.321  0.00  0.00    -0.284 N 
ATOM      9  C   UNL     1       1.024  -1.933  -1.268  0.00  0.00    +0.219 C 
ATOM     10  O   UNL     1       0.553  -2.507  -0.309  0.00  0.00    -0.275 OA
ATOM     11  H   UNL     1       1.822  -2.120  -3.227  0.00  0.00    +0.155 HD
BRANCH   8  17
ATOM     12  C   UNL     1       1.481  -4.790  -3.439  0.00  0.00    +0.034 A 
ATOM     13  C   UNL     1       1.513  -6.176  -3.374  0.00  0.00    +0.017 A 
ATOM     14  C   UNL     1       1.573  -6.809  -2.147  0.00  0.00    +0.001 A 
ATOM     15  C   UNL     1       1.602  -6.065  -0.982  0.00  0.00    +0.002 A 
ATOM     16  C   UNL     1       1.575  -4.684  -1.037  0.00  0.00    +0.024 A 
ATOM     17  C   UNL     1       1.509  -4.040  -2.263  0.00  0.00    +0.047 A 
BRANCH  12  18
ATOM     18  S   UNL     1       1.403  -3.980  -5.002  0.00  0.00    -0.088 S 
BRANCH  18  22
ATOM     19  C   UNL     1      -2.881  -2.537  -5.277  0.00  0.00    +0.000 A 
ATOM     20  C   UNL     1      -1.972  -2.191  -6.260  0.00  0.00    +0.001 A 
ATOM     21  C   UNL     1      -0.665  -2.629  -6.179  0.00  0.00    +0.015 A 
ATOM     22  C   UNL     1      -0.264  -3.419  -5.109  0.00  0.00    +0.013 A 
ATOM     23  C   UNL     1      -1.181  -3.770  -4.126  0.00  0.00    +0.015 A 
ATOM     24  C   UNL     1      -2.485  -3.324  -4.210  0.00  0.00    +0.001 A 
ENDBRANCH  18  22
ENDBRANCH  12  18
ENDBRANCH   8  17
ENDBRANCH   1   9
BRANCH   5  25
ATOM     25  C   UNL     1      -0.049   2.165   1.194  0.00  0.00    +0.022 C 
BRANCH  25  26
ATOM     26  C   UNL     1       0.275   3.634   1.289  0.00  0.00    +0.211 A 
ATOM     27  N   UNL     1      -0.401   4.616   0.748  0.00  0.00    -0.193 NA
ATOM     28  C   UNL     1       0.256   5.745   1.098  0.00  0.00    +0.202 A 
ATOM     29  N   UNL     1       1.283   5.385   1.824  0.00  0.00    -0.056 NA
ATOM     30  O   UNL     1       1.304   4.179   1.946  0.00  0.00    -0.340 OA
BRANCH  28  31
ATOM     31  C   UNL     1      -0.118   7.133   0.727  0.00  0.00    +0.023 A 
ATOM     32  C   UNL     1      -1.242   7.366  -0.062  0.00  0.00    +0.013 A 
ATOM     33  C   UNL     1      -1.589   8.659  -0.398  0.00  0.00    +0.021 A 
ATOM     34  C   UNL     1      -0.815   9.721   0.036  0.00  0.00    +0.041 A 
ATOM     35  C   UNL     1       0.306   9.494   0.815  0.00  0.00    +0.021 A 
ATOM     36  C   UNL     1       0.658   8.205   1.162  0.00  0.00    +0.013 A 
ATOM     37 CL   UNL     1      -1.253  11.344  -0.397  0.00  0.00    -0.084 Cl
ENDBRANCH  28  31
ENDBRANCH  25  26
ENDBRANCH   5  25
TORSDOF 7
