REMARK  Name = ZINC39919951
REMARK  9 active torsions:
REMARK  status: ('A' for Active; 'I' for Inactive)
REMARK    1  A    between atoms: C_1  and  C_2
REMARK    2  A    between atoms: C_7  and  O_8
REMARK    3  A    between atoms: O_8  and  C_9
REMARK    4  A    between atoms: C_9  and  C_10
REMARK    5  A    between atoms: N_12  and  N_13
REMARK    6  A    between atoms: C_14  and  C_26
REMARK    7  A    between atoms: C_29  and  C_32
REMARK    8  A    between atoms: C_32  and  C_33
REMARK    9  A    between atoms: C_32  and  C_34
REMARK                            x       y       z     vdW  Elec       q    Type
REMARK                         _______ _______ _______ _____ _____    ______ ____
ROOT
ATOM      1  N   UNL     1       0.083   0.565   7.317  0.00  0.00    -0.191 N 
ATOM      2  C   UNL     1       1.472   0.588   7.777  0.00  0.00    +0.212 C 
ATOM      3  N   UNL     1       1.521   0.716   9.239  0.00  0.00    -0.320 N 
ATOM      4  C   UNL     1       0.680   1.637   9.854  0.00  0.00    +0.041 A 
ATOM      5  C   UNL     1       1.022   2.265  11.039  0.00  0.00    +0.025 A 
ATOM      6  C   UNL     1       0.152   3.175  11.607  0.00  0.00    +0.022 A 
ATOM      7  C   UNL     1      -1.061   3.464  11.000  0.00  0.00    +0.042 A 
ATOM      8  C   UNL     1      -1.418   2.846   9.818  0.00  0.00    +0.035 A 
ATOM      9  C   UNL     1      -0.550   1.925   9.236  0.00  0.00    +0.061 A 
ATOM     10  C   UNL     1      -0.884   1.234   7.978  0.00  0.00    +0.267 C 
ATOM     11  O   UNL     1      -2.019   1.263   7.542  0.00  0.00    -0.268 OA
ATOM     12 CL   UNL     1      -2.139   4.613  11.731  0.00  0.00    -0.084 Cl
ATOM     13  H   UNL     1       2.127   0.170   9.764  0.00  0.00    +0.148 HD
ENDROOT
BRANCH   2  14
ATOM     14  C   UNL     1       2.184   1.760   7.153  0.00  0.00    -0.008 A 
ATOM     15  C   UNL     1       3.353   1.560   6.443  0.00  0.00    +0.007 A 
ATOM     16  C   UNL     1       4.007   2.635   5.870  0.00  0.00    +0.004 A 
ATOM     17  C   UNL     1       3.491   3.910   6.007  0.00  0.00    -0.045 A 
ATOM     18  C   UNL     1       2.322   4.110   6.716  0.00  0.00    +0.004 A 
ATOM     19  C   UNL     1       1.666   3.035   7.285  0.00  0.00    +0.007 A 
BRANCH  17  20
ATOM     20  C   UNL     1       4.205   5.082   5.383  0.00  0.00    +0.013 C 
ATOM     21  C   UNL     1       3.277   5.768   4.379  0.00  0.00    +0.012 C 
ATOM     22  C   UNL     1       4.600   6.078   6.475  0.00  0.00    +0.012 C 
ENDBRANCH  17  20
ENDBRANCH   2  14
BRANCH   1  25
ATOM     23  C   UNL     1      -0.466   0.482   5.002  0.00  0.00    +0.267 C 
ATOM     24  O   UNL     1      -0.465   1.694   4.970  0.00  0.00    -0.271 OA
ATOM     25  N   UNL     1      -0.247  -0.162   6.165  0.00  0.00    -0.227 N 
ATOM     26  H   UNL     1      -0.318  -1.129   6.205  0.00  0.00    +0.173 HD
BRANCH  23  27
ATOM     27  C   UNL     1      -0.712  -0.305   3.740  0.00  0.00    +0.326 C 
BRANCH  27  28
ATOM     28  O   UNL     1      -0.915   0.596   2.649  0.00  0.00    -0.482 OA
BRANCH  28  35
ATOM     29  C   UNL     1      -1.320   2.359   0.480  0.00  0.00    +0.047 C 
ATOM     30  C   UNL     1      -1.357   0.861   0.327  0.00  0.00    -0.007 A 
ATOM     31  C   UNL     1      -1.592   0.298  -0.913  0.00  0.00    +0.027 A 
ATOM     32  C   UNL     1      -1.626  -1.077  -1.054  0.00  0.00    +0.041 A 
ATOM     33  C   UNL     1      -1.426  -1.893   0.045  0.00  0.00    +0.023 A 
ATOM     34  C   UNL     1      -1.192  -1.335   1.287  0.00  0.00    +0.047 A 
ATOM     35  C   UNL     1      -1.151   0.045   1.430  0.00  0.00    +0.124 A 
ATOM     36 CL   UNL     1      -1.921  -1.782  -2.614  0.00  0.00    -0.084 Cl
ENDBRANCH  28  35
ENDBRANCH  27  28
ENDBRANCH  23  27
ENDBRANCH   1  25
TORSDOF 6
