REMARK  Name = ZINC44942860
REMARK  6 active torsions:
REMARK  status: ('A' for Active; 'I' for Inactive)
REMARK    1  A    between atoms: C_4  and  C_7
REMARK    2  A    between atoms: C_7  and  O_8
REMARK    3  A    between atoms: O_8  and  C_9
REMARK    4  A    between atoms: C_15  and  N_17
REMARK    5  A    between atoms: C_18  and  C_20
REMARK    6  A    between atoms: C_26  and  C_28
REMARK                            x       y       z     vdW  Elec       q    Type
REMARK                         _______ _______ _______ _____ _____    ______ ____
ROOT
ATOM      1  C   UNL     1       6.795   2.413   3.758  0.00  0.00    +0.087 C 
ATOM      2  C   UNL     1       5.641   3.132   3.056  0.00  0.00    +0.013 C 
ATOM      3  C   UNL     1       5.916   4.637   3.034  0.00  0.00    +0.001 C 
ATOM      4  C   UNL     1       6.042   5.154   4.469  0.00  0.00    +0.001 C 
ATOM      5  C   UNL     1       7.196   4.435   5.170  0.00  0.00    +0.013 C 
ATOM      6  C   UNL     1       6.921   2.930   5.193  0.00  0.00    +0.087 C 
ENDROOT
BRANCH   6   7
ATOM      7  C   UNL     1       8.057   2.221   5.884  0.00  0.00    +0.219 C 
ATOM      8  O   UNL     1       8.960   1.743   5.231  0.00  0.00    -0.275 OA
ATOM      9  N   UNL     1       8.071   2.120   7.228  0.00  0.00    -0.298 N 
ATOM     10  C   UNL     1       6.934   2.601   8.025  0.00  0.00    +0.126 C 
ATOM     11  C   UNL     1       6.434   1.451   8.909  0.00  0.00    +0.125 C 
ATOM     12  N   UNL     1       7.585   0.858   9.603  0.00  0.00    -0.314 N 
ATOM     13  C   UNL     1       8.722   0.377   8.805  0.00  0.00    +0.125 C 
ATOM     14  C   UNL     1       9.220   1.521   7.921  0.00  0.00    +0.126 C 
ATOM     15  C   UNL     1       7.599   0.753  10.989  0.00  0.00    +0.099 A 
ATOM     16  C   UNL     1       6.461   1.087  11.717  0.00  0.00    +0.042 A 
ATOM     17  C   UNL     1       6.488   0.978  13.095  0.00  0.00    +0.005 A 
ATOM     18  C   UNL     1       7.657   0.538  13.702  0.00  0.00    +0.018 A 
ATOM     19  C   UNL     1       8.749   0.224  12.918  0.00  0.00    +0.084 A 
ATOM     20  N   UNL     1       8.693   0.332  11.604  0.00  0.00    -0.350 N 
ATOM     21  H   UNL     1       9.473   0.101  11.076  0.00  0.00    +0.166 HD
ENDBRANCH   6   7
BRANCH   1  23
ATOM     22  N   UNL     1       6.375   0.256   2.623  0.00  0.00    -0.310 N 
ATOM     23  C   UNL     1       6.524   0.931   3.780  0.00  0.00    +0.217 C 
ATOM     24  O   UNL     1       6.440   0.345   4.838  0.00  0.00    -0.275 OA
ATOM     25  H   UNL     1       6.443   0.724   1.776  0.00  0.00    +0.149 HD
BRANCH  22  31
ATOM     26  C   UNL     1       5.390  -1.591   1.357  0.00  0.00    +0.139 C 
ATOM     27  C   UNL     1       5.115  -3.095   1.379  0.00  0.00    +0.033 C 
ATOM     28  C   UNL     1       6.440  -3.854   1.482  0.00  0.00    +0.003 C 
ATOM     29  C   UNL     1       7.162  -3.449   2.768  0.00  0.00    +0.002 C 
ATOM     30  C   UNL     1       7.437  -1.944   2.746  0.00  0.00    +0.025 C 
ATOM     31  C   UNL     1       6.112  -1.185   2.644  0.00  0.00    +0.102 C 
BRANCH  26  32
ATOM     32  O   UNL     1       4.153  -0.882   1.262  0.00  0.00    -0.370 OA
BRANCH  32  33
ATOM     33  C   UNL     1       3.731  -0.627  -0.080  0.00  0.00    +0.195 C 
BRANCH  33  37
ATOM     34  C   UNL     1       0.024   1.494  -0.030  0.00  0.00    +0.000 A 
ATOM     35  C   UNL     1       1.218   2.190  -0.027  0.00  0.00    +0.000 A 
ATOM     36  C   UNL     1       2.418   1.503  -0.043  0.00  0.00    +0.006 A 
ATOM     37  C   UNL     1       2.423   0.121  -0.061  0.00  0.00    -0.022 A 
ATOM     38  C   UNL     1       1.228  -0.575  -0.063  0.00  0.00    +0.006 A 
ATOM     39  C   UNL     1       0.029   0.112  -0.049  0.00  0.00    +0.000 A 
ENDBRANCH  33  37
ENDBRANCH  32  33
ENDBRANCH  26  32
ENDBRANCH  22  31
ENDBRANCH   1  23
TORSDOF 6
