REMARK  Name = ZINC09547284
REMARK  6 active torsions:
REMARK  status: ('A' for Active; 'I' for Inactive)
REMARK    1  A    between atoms: C_1  and  N_2
REMARK    2  A    between atoms: C_3  and  C_5
REMARK    3  A    between atoms: N_8  and  C_16
REMARK    4  A    between atoms: C_16  and  C_17
REMARK    5  A    between atoms: N_19  and  C_20
REMARK    6  A    between atoms: N_19  and  C_26
REMARK                            x       y       z     vdW  Elec       q    Type
REMARK                         _______ _______ _______ _____ _____    ______ ____
ROOT
ATOM      1  C   UNL     1      -3.102   4.232  -2.547  0.00  0.00    +0.201 C 
ENDROOT
BRANCH   1   4
ATOM      2  C   UNL     1      -1.140   2.431   0.107  0.00  0.00    +0.276 C 
ATOM      3  C   UNL     1      -1.392   3.131  -1.235  0.00  0.00    +0.160 C 
ATOM      4  N   UNL     1      -2.764   3.654  -1.240  0.00  0.00    -0.314 N 
ATOM      5  C   UNL     1      -3.699   2.683  -0.865  0.00  0.00    +0.073 A 
ATOM      6  C   UNL     1      -5.032   2.874  -1.212  0.00  0.00    +0.027 A 
ATOM      7  C   UNL     1      -5.985   1.943  -0.850  0.00  0.00    +0.002 A 
ATOM      8  C   UNL     1      -5.618   0.815  -0.141  0.00  0.00    +0.004 A 
ATOM      9  C   UNL     1      -4.295   0.616   0.206  0.00  0.00    +0.047 A 
ATOM     10  C   UNL     1      -3.331   1.546  -0.155  0.00  0.00    +0.143 A 
ATOM     11  O   UNL     1      -2.037   1.319   0.199  0.00  0.00    -0.476 OA
BRANCH   2  14
ATOM     12  C   UNL     1       2.684   2.358   0.249  0.00  0.00    +0.128 C 
ATOM     13  N   UNL     1       1.299   2.832   0.196  0.00  0.00    -0.315 N 
ATOM     14  C   UNL     1       0.285   1.945   0.169  0.00  0.00    +0.255 C 
ATOM     15  O   UNL     1       0.518   0.755   0.189  0.00  0.00    -0.272 OA
ATOM     16  H   UNL     1       1.112   3.783   0.179  0.00  0.00    +0.148 HD
ENDBRANCH   2  14
ENDBRANCH   1   4
BRANCH   1  17
ATOM     17  C   UNL     1      -3.019   3.164  -3.607  0.00  0.00    +0.237 C 
ATOM     18  O   UNL     1      -2.821   2.010  -3.290  0.00  0.00    -0.274 OA
ATOM     19  N   UNL     1      -3.165   3.490  -4.906  0.00  0.00    -0.265 N 
BRANCH  19  20
ATOM     20  C   UNL     1      -3.268   4.897  -5.301  0.00  0.00    +0.104 C 
ATOM     21  C   UNL     1      -4.570   5.112  -6.091  0.00  0.00    +0.047 C 
ATOM     22  C   UNL     1      -4.504   6.515  -6.759  0.00  0.00    +0.168 C 
ATOM     23  S   UNL     1      -2.747   6.544  -7.312  0.00  0.00    -0.029 S 
ATOM     24  O   UNL     1      -2.674   6.061  -8.647  0.00  0.00    -0.174 OA
ATOM     25  O   UNL     1      -2.183   7.809  -6.995  0.00  0.00    -0.174 OA
ATOM     26  C   UNL     1      -2.050   5.275  -6.178  0.00  0.00    +0.188 C 
ENDBRANCH  19  20
BRANCH  19  27
ATOM     27  C   UNL     1      -3.219   2.485  -5.878  0.00  0.00    +0.037 A 
ATOM     28  C   UNL     1      -3.229   2.820  -7.226  0.00  0.00    +0.023 A 
ATOM     29  C   UNL     1      -3.277   1.826  -8.183  0.00  0.00    +0.002 A 
ATOM     30  C   UNL     1      -3.326   0.498  -7.800  0.00  0.00    +0.000 A 
ATOM     31  C   UNL     1      -3.323   0.161  -6.459  0.00  0.00    +0.002 A 
ATOM     32  C   UNL     1      -3.269   1.151  -5.497  0.00  0.00    +0.023 A 
ENDBRANCH  19  27
ENDBRANCH   1  17
TORSDOF 5
