REMARK  Name = ZINC13174466
REMARK  7 active torsions:
REMARK  status: ('A' for Active; 'I' for Inactive)
REMARK    1  A    between atoms: C_1  and  C_2
REMARK    2  A    between atoms: C_5  and  N_9
REMARK    3  A    between atoms: C_10  and  C_12
REMARK    4  A    between atoms: C_12  and  S_13
REMARK    5  A    between atoms: S_13  and  C_14
REMARK    6  A    between atoms: C_15  and  C_33
REMARK    7  A    between atoms: C_16  and  C_26
REMARK                            x       y       z     vdW  Elec       q    Type
REMARK                         _______ _______ _______ _____ _____    ______ ____
ROOT
ATOM      1  C   UNL     1       0.595  -8.711   2.632  0.00  0.00    +0.080 C 
ATOM      2  C   UNL     1       0.713  -9.505   3.730  0.00  0.00    +0.069 C 
ATOM      3  C   UNL     1       0.832 -10.995   3.599  0.00  0.00    +0.097 C 
ATOM      4  C   UNL     1       1.232 -11.388   2.200  0.00  0.00    +0.024 C 
ATOM      5  C   UNL     1       1.089 -10.527   1.169  0.00  0.00    +0.016 C 
ATOM      6  N   UNL     1       0.585  -9.270   1.375  0.00  0.00    -0.311 N 
ATOM      7  C   UNL     1       1.470 -10.927  -0.235  0.00  0.00    +0.051 C 
ATOM      8  C   UNL     1       2.629 -11.926  -0.188  0.00  0.00    +0.014 C 
ATOM      9  C   UNL     1       2.189 -13.140   0.636  0.00  0.00    +0.080 C 
ATOM     10  C   UNL     1       1.758 -12.676   2.000  0.00  0.00    +0.162 C 
ATOM     11  O   UNL     1       1.866 -13.429   2.947  0.00  0.00    -0.292 OA
ATOM     12  H   UNL     1       0.220  -8.768   0.629  0.00  0.00    +0.152 HD
ENDROOT
BRANCH   3  13
ATOM     13  C   UNL     1      -0.496 -11.627   3.929  0.00  0.00    -0.035 A 
ATOM     14  C   UNL     1      -1.615 -11.313   3.180  0.00  0.00    +0.006 A 
ATOM     15  C   UNL     1      -2.833 -11.893   3.482  0.00  0.00    +0.020 A 
ATOM     16  C   UNL     1      -2.932 -12.786   4.533  0.00  0.00    +0.041 A 
ATOM     17  C   UNL     1      -1.812 -13.100   5.282  0.00  0.00    +0.020 A 
ATOM     18  C   UNL     1      -0.593 -12.524   4.976  0.00  0.00    +0.006 A 
ATOM     19 CL   UNL     1      -4.462 -13.514   4.913  0.00  0.00    -0.084 Cl
ENDBRANCH   3  13
BRANCH   2  20
ATOM     20  C   UNL     1       0.725  -8.909   5.032  0.00  0.00    +0.098 C 
ATOM     21  N   UNL     1       0.734  -8.436   6.065  0.00  0.00    -0.191 NA
ENDBRANCH   2  20
BRANCH   1  22
ATOM     22  S   UNL     1       0.447  -6.965   2.820  0.00  0.00    -0.100 S 
BRANCH  22  23
ATOM     23  C   UNL     1       0.310  -6.351   1.119  0.00  0.00    +0.171 C 
BRANCH  23  25
ATOM     24  N   UNL     1       0.059  -4.170  -0.022  0.00  0.00    -0.285 N 
ATOM     25  C   UNL     1       0.176  -4.850   1.136  0.00  0.00    +0.227 C 
ATOM     26  O   UNL     1       0.174  -4.254   2.192  0.00  0.00    -0.275 OA
ATOM     27  H   UNL     1      -0.015  -4.651  -0.861  0.00  0.00    +0.155 HD
BRANCH  24  32
ATOM     28  C   UNL     1       0.008   1.503   0.012  0.00  0.00    +0.045 C 
ATOM     29  C   UNL     1       0.022  -0.004   0.003  0.00  0.00    -0.032 A 
ATOM     30  C   UNL     1       0.777  -0.693   0.934  0.00  0.00    +0.006 A 
ATOM     31  C   UNL     1       0.792  -2.074   0.928  0.00  0.00    +0.023 A 
ATOM     32  C   UNL     1       0.046  -2.771  -0.014  0.00  0.00    +0.035 A 
ATOM     33  C   UNL     1      -0.712  -2.078  -0.948  0.00  0.00    +0.043 A 
ATOM     34  C   UNL     1      -0.726  -0.695  -0.934  0.00  0.00    +0.046 A 
ATOM     35 CL   UNL     1      -1.678   0.174  -2.096  0.00  0.00    -0.083 Cl
ENDBRANCH  24  32
ENDBRANCH  23  25
ENDBRANCH  22  23
ENDBRANCH   1  22
TORSDOF 6
