REMARK  Name = ZINC35569269
REMARK  8 active torsions:
REMARK  status: ('A' for Active; 'I' for Inactive)
REMARK    1  A    between atoms: C_4  and  C_7
REMARK    2  A    between atoms: C_7  and  N_8
REMARK    3  A    between atoms: C_12  and  C_29
REMARK    4  A    between atoms: C_14  and  C_22
REMARK    5  A    between atoms: C_16  and  C_17
REMARK    6  A    between atoms: C_16  and  O_21
REMARK    7  A    between atoms: C_22  and  C_24
REMARK    8  A    between atoms: C_33  and  N_35
REMARK                            x       y       z     vdW  Elec       q    Type
REMARK                         _______ _______ _______ _____ _____    ______ ____
ROOT
ATOM      1  N   UNL     1       4.152  -0.952   1.338  0.00  0.00    -0.245 N 
ATOM      2  C   UNL     1       4.916  -0.039   1.956  0.00  0.00    +0.305 C 
ATOM      3  O   UNL     1       5.230   0.966   1.349  0.00  0.00    -0.253 OA
ATOM      4  N   UNL     1       5.346  -0.191   3.217  0.00  0.00    -0.292 N 
ATOM      5  C   UNL     1       5.013  -1.384   3.997  0.00  0.00    +0.120 C 
ATOM      6  C   UNL     1       3.666  -1.937   3.519  0.00  0.00    +0.145 C 
ATOM      7  C   UNL     1       3.744  -2.186   2.012  0.00  0.00    +0.246 C 
ATOM      8  H   UNL     1       5.891   0.503   3.620  0.00  0.00    +0.151 HD
ENDROOT
BRANCH   5   9
ATOM      9  C   UNL     1       4.921  -1.022   5.457  0.00  0.00    -0.024 A 
ATOM     10  C   UNL     1       4.326   0.167   5.838  0.00  0.00    +0.005 A 
ATOM     11  C   UNL     1       4.242   0.499   7.177  0.00  0.00    +0.003 A 
ATOM     12  C   UNL     1       4.752  -0.357   8.135  0.00  0.00    +0.033 A 
ATOM     13  C   UNL     1       5.345  -1.546   7.754  0.00  0.00    +0.127 A 
ATOM     14  C   UNL     1       5.426  -1.880   6.415  0.00  0.00    +0.038 A 
BRANCH  13  15
ATOM     15  N   UNL     1       5.891  -2.463   8.780  0.00  0.00    +0.056 N 
ATOM     16  O   UNL     1       5.818  -2.172   9.951  0.00  0.00    -0.126 OA
ATOM     17  O   UNL     1       6.410  -3.502   8.447  0.00  0.00    -0.126 OA
ENDBRANCH  13  15
ENDBRANCH   5   9
BRANCH   7  18
ATOM     18  C   UNL     1       4.773  -3.284   1.734  0.00  0.00    +0.436 C 
ATOM     19  F   UNL     1       6.025  -2.883   2.213  0.00  0.00    -0.166 F 
ATOM     20  F   UNL     1       4.383  -4.463   2.379  0.00  0.00    -0.166 F 
ATOM     21  F   UNL     1       4.852  -3.511   0.356  0.00  0.00    -0.166 F 
ENDBRANCH   7  18
BRANCH   7  22
ATOM     22  O   UNL     1       2.464  -2.595   1.527  0.00  0.00    -0.364 OA
ATOM     23  H   UNL     1       2.441  -2.769   0.576  0.00  0.00    +0.212 HD
ENDBRANCH   7  22
BRANCH   6  24
ATOM     24  C   UNL     1       2.577  -0.936   3.809  0.00  0.00    +0.180 C 
ATOM     25  O   UNL     1       2.229  -0.151   2.950  0.00  0.00    -0.291 OA
BRANCH  24  26
ATOM     26  C   UNL     1       1.960  -0.911   5.080  0.00  0.00    +0.055 A 
ATOM     27  C   UNL     1       0.944  -0.082   5.546  0.00  0.00    +0.019 A 
ATOM     28  C   UNL     1       0.548  -0.298   6.841  0.00  0.00    +0.008 A 
ATOM     29  C   UNL     1       1.154  -1.276   7.563  0.00  0.00    +0.046 A 
ATOM     30  S   UNL     1       2.275  -1.939   6.502  0.00  0.00    -0.094 S 
ENDBRANCH  24  26
ENDBRANCH   6  24
BRANCH   1  31
ATOM     31  C   UNL     1       3.711  -0.707  -0.038  0.00  0.00    +0.147 C 
BRANCH  31  35
ATOM     32  C   UNL     1      -0.017   1.378   0.010  0.00  0.00    +0.000 A 
ATOM     33  C   UNL     1       1.171   2.086   0.002  0.00  0.00    +0.000 A 
ATOM     34  C   UNL     1       2.377   1.411  -0.013  0.00  0.00    +0.005 A 
ATOM     35  C   UNL     1       2.396   0.029  -0.020  0.00  0.00    -0.030 A 
ATOM     36  C   UNL     1       1.208  -0.679  -0.012  0.00  0.00    +0.005 A 
ATOM     37  C   UNL     1       0.002  -0.004   0.002  0.00  0.00    +0.000 A 
ENDBRANCH  31  35
ENDBRANCH   1  31
TORSDOF 8
