REMARK  Name = ZINC14270106
REMARK  6 active torsions:
REMARK  status: ('A' for Active; 'I' for Inactive)
REMARK    1  A    between atoms: C_3  and  N_9
REMARK    2  A    between atoms: N_9  and  C_10
REMARK    3  A    between atoms: C_10  and  N_12
REMARK    4  A    between atoms: C_13  and  C_15
REMARK    5  A    between atoms: C_16  and  C_17
REMARK    6  A    between atoms: C_20  and  C_22
REMARK                            x       y       z     vdW  Elec       q    Type
REMARK                         _______ _______ _______ _____ _____    ______ ____
ROOT
ATOM      1  N   UNL     1      -0.001   0.910  -0.222  0.00  0.00    -0.264 N 
ATOM      2  C   UNL     1      -1.175   1.526  -0.459  0.00  0.00    +0.242 C 
ATOM      3  O   UNL     1      -1.200   2.722  -0.690  0.00  0.00    -0.270 OA
ATOM      4  H   UNL     1       0.019  -0.043  -0.039  0.00  0.00    +0.157 HD
ENDROOT
BRANCH   1   5
ATOM      5  C   UNL     1       1.148   1.615  -0.246  0.00  0.00    +0.141 C 
ATOM      6  S   UNL     1       1.113   3.296  -0.570  0.00  0.00    -0.018 S 
BRANCH   5   7
ATOM      7  N   UNL     1       2.323   0.998  -0.015  0.00  0.00    -0.294 N 
ATOM      8  H   UNL     1       2.338   0.059   0.230  0.00  0.00    +0.154 HD
BRANCH   7  11
ATOM      9  C   UNL     1       4.835   3.660   0.355  0.00  0.00    +0.040 A 
ATOM     10  C   UNL     1       3.650   2.958   0.468  0.00  0.00    +0.029 A 
ATOM     11  C   UNL     1       3.523   1.711  -0.128  0.00  0.00    +0.068 A 
ATOM     12  C   UNL     1       4.592   1.169  -0.834  0.00  0.00    +0.147 A 
ATOM     13  C   UNL     1       5.774   1.878  -0.949  0.00  0.00    +0.078 A 
ATOM     14  C   UNL     1       5.896   3.122  -0.352  0.00  0.00    +0.126 A 
ATOM     15  F   UNL     1       7.053   3.811  -0.461  0.00  0.00    -0.205 F 
ATOM     16  F   UNL     1       4.474  -0.047  -1.411  0.00  0.00    -0.203 F 
ENDBRANCH   7  11
ENDBRANCH   5   7
ENDBRANCH   1   5
BRANCH   2  17
ATOM     17  C   UNL     1      -2.378   0.785  -0.440  0.00  0.00    +0.071 C 
ATOM     18  C   UNL     1      -3.563   1.407  -0.679  0.00  0.00    +0.051 C 
BRANCH  18  19
ATOM     19  C   UNL     1      -4.766   0.666  -0.660  0.00  0.00    +0.129 A 
ATOM     20  C   UNL     1      -6.034   1.173  -0.879  0.00  0.00    +0.050 A 
ATOM     21  C   UNL     1      -6.922   0.100  -0.770  0.00  0.00    +0.050 A 
ATOM     22  C   UNL     1      -6.171  -1.017  -0.481  0.00  0.00    +0.136 A 
ATOM     23  O   UNL     1      -4.877  -0.657  -0.418  0.00  0.00    -0.455 OA
BRANCH  22  24
ATOM     24  C   UNL     1      -6.698  -2.380  -0.274  0.00  0.00    +0.020 A 
ATOM     25  C   UNL     1      -8.071  -2.622  -0.361  0.00  0.00    +0.031 A 
ATOM     26  C   UNL     1      -8.556  -3.900  -0.172  0.00  0.00    +0.043 A 
ATOM     27  C   UNL     1      -7.687  -4.939   0.115  0.00  0.00    +0.040 A 
ATOM     28  C   UNL     1      -6.325  -4.705   0.208  0.00  0.00    +0.043 A 
ATOM     29  C   UNL     1      -5.826  -3.432   0.016  0.00  0.00    +0.031 A 
ATOM     30 CL   UNL     1      -5.244  -6.014   0.569  0.00  0.00    -0.083 Cl
ATOM     31 CL   UNL     1     -10.262  -4.205  -0.286  0.00  0.00    -0.083 Cl
ENDBRANCH  22  24
ENDBRANCH  18  19
ENDBRANCH   2  17
TORSDOF 6
