REMARK  Name = ZINC12782974
REMARK  11 active torsions:
REMARK  status: ('A' for Active; 'I' for Inactive)
REMARK    1  A    between atoms: C_1  and  O_2
REMARK    2  A    between atoms: O_2  and  C_3
REMARK    3  A    between atoms: C_8  and  C_9
REMARK    4  A    between atoms: C_9  and  C_10
REMARK    5  A    between atoms: N_12  and  C_13
REMARK    6  A    between atoms: N_12  and  C_21
REMARK    7  A    between atoms: C_13  and  C_14
REMARK    8  A    between atoms: C_14  and  C_15
REMARK    9  A    between atoms: C_22  and  N_37
REMARK   10  A    between atoms: N_23  and  C_30
REMARK   11  A    between atoms: C_30  and  C_31
REMARK                            x       y       z     vdW  Elec       q    Type
REMARK                         _______ _______ _______ _____ _____    ______ ____
ROOT
ATOM      1  C   UNL     1       0.756  -3.194   1.196  0.00  0.00    +0.224 C 
ATOM      2  O   UNL     1      -0.086  -2.970   2.041  0.00  0.00    -0.275 OA
ATOM      3  N   UNL     1       1.956  -3.694   1.555  0.00  0.00    -0.264 N 
ENDROOT
BRANCH   3   4
ATOM      4  C   UNL     1       2.269  -3.865   2.920  0.00  0.00    +0.140 A 
ATOM      5  C   UNL     1       2.364  -2.775   3.761  0.00  0.00    +0.128 A 
ATOM      6  N   UNL     1       2.670  -2.975   5.087  0.00  0.00    -0.276 N 
ATOM      7  C   UNL     1       2.876  -4.218   5.559  0.00  0.00    +0.331 A 
ATOM      8  O   UNL     1       3.146  -4.373   6.734  0.00  0.00    -0.246 OA
ATOM      9  N   UNL     1       2.787  -5.292   4.754  0.00  0.00    -0.273 N 
ATOM     10  H   UNL     1       2.940  -6.178   5.119  0.00  0.00    +0.173 HD
ATOM     11  C   UNL     1       2.485  -5.152   3.449  0.00  0.00    +0.277 A 
ATOM     12  O   UNL     1       2.404  -6.133   2.729  0.00  0.00    -0.266 OA
BRANCH   5  13
ATOM     13  N   UNL     1       2.155  -1.505   3.279  0.00  0.00    -0.343 N 
ATOM     14  H   UNL     1       1.907  -1.374   2.350  0.00  0.00    +0.144 HD
ATOM     15  H   UNL     1       2.255  -0.741   3.867  0.00  0.00    +0.144 HD
ENDBRANCH   5  13
BRANCH   6  16
ATOM     16  C   UNL     1       2.774  -1.826   5.991  0.00  0.00    +0.163 C 
BRANCH  16  17
ATOM     17  C   UNL     1       1.426  -1.546   6.604  0.00  0.00    -0.028 A 
ATOM     18  C   UNL     1       0.547  -0.684   5.975  0.00  0.00    +0.005 A 
ATOM     19  C   UNL     1      -0.689  -0.427   6.537  0.00  0.00    +0.000 A 
ATOM     20  C   UNL     1      -1.047  -1.031   7.727  0.00  0.00    +0.000 A 
ATOM     21  C   UNL     1      -0.168  -1.894   8.356  0.00  0.00    +0.000 A 
ATOM     22  C   UNL     1       1.067  -2.155   7.791  0.00  0.00    +0.005 A 
ENDBRANCH  16  17
ENDBRANCH   6  16
ENDBRANCH   3   4
BRANCH   1  23
ATOM     23  C   UNL     1       0.459  -2.913  -0.255  0.00  0.00    +0.135 C 
BRANCH  23  29
ATOM     24  C   UNL     1      -1.170  -1.008  -0.213  0.00  0.00    +0.124 A 
ATOM     25  C   UNL     1      -2.457  -0.504  -0.339  0.00  0.00    +0.046 A 
ATOM     26  C   UNL     1      -3.505  -1.356  -0.630  0.00  0.00    +0.004 A 
ATOM     27  C   UNL     1      -3.272  -2.709  -0.796  0.00  0.00    +0.001 A 
ATOM     28  C   UNL     1      -1.990  -3.213  -0.670  0.00  0.00    +0.008 A 
ATOM     29  C   UNL     1      -0.938  -2.364  -0.385  0.00  0.00    +0.003 A 
BRANCH  24  31
ATOM     30  C   UNL     1      -0.450   1.213   0.236  0.00  0.00    +0.277 C 
ATOM     31  O   UNL     1      -0.137  -0.171   0.072  0.00  0.00    -0.495 OA
ENDBRANCH  24  31
ENDBRANCH  23  29
ENDBRANCH   1  23
BRANCH   3  32
ATOM     32  C   UNL     1       2.935  -4.058   0.527  0.00  0.00    +0.118 C 
BRANCH  32  33
ATOM     33  C   UNL     1       3.811  -2.846   0.204  0.00  0.00    +0.050 C 
BRANCH  33  34
ATOM     34  C   UNL     1       4.817  -3.221  -0.853  0.00  0.00    -0.072 C 
ATOM     35  C   UNL     1       4.527  -2.960  -2.087  0.00  0.00    -0.028 C 
ATOM     36  C   UNL     1       5.422  -3.284  -3.247  0.00  0.00    +0.027 C 
ATOM     37  C   UNL     1       6.846  -3.552  -2.756  0.00  0.00    +0.004 C 
ATOM     38  C   UNL     1       6.779  -4.553  -1.596  0.00  0.00    +0.005 C 
ATOM     39  C   UNL     1       6.096  -3.868  -0.408  0.00  0.00    +0.030 C 
ENDBRANCH  33  34
ENDBRANCH  32  33
ENDBRANCH   3  32
TORSDOF 10
