REMARK  Name = ZINC39344716
REMARK  6 active torsions:
REMARK  status: ('A' for Active; 'I' for Inactive)
REMARK    1  A    between atoms: C_1  and  C_2
REMARK    2  A    between atoms: C_4  and  C_8
REMARK    3  A    between atoms: C_12  and  O_25
REMARK    4  A    between atoms: N_15  and  C_19
REMARK    5  A    between atoms: O_25  and  C_26
REMARK    6  A    between atoms: C_26  and  C_27
REMARK                            x       y       z     vdW  Elec       q    Type
REMARK                         _______ _______ _______ _____ _____    ______ ____
ROOT
ATOM      1  C   UNL     1      -0.959  -2.941   1.217  0.00  0.00    +0.246 C 
ATOM      2  O   UNL     1      -0.188  -3.057   2.146  0.00  0.00    -0.273 OA
ATOM      3  N   UNL     1      -2.193  -3.478   1.295  0.00  0.00    -0.288 N 
ATOM      4  C   UNL     1      -2.620  -4.195   2.487  0.00  0.00    +0.141 C 
ATOM      5  C   UNL     1      -4.136  -3.983   2.663  0.00  0.00    +0.153 C 
ATOM      6  C   UNL     1      -4.415  -2.484   2.809  0.00  0.00    +0.141 C 
ATOM      7  N   UNL     1      -4.565  -1.833   1.516  0.00  0.00    -0.295 N 
ATOM      8  C   UNL     1      -3.959  -2.111   0.367  0.00  0.00    +0.233 C 
ATOM      9  O   UNL     1      -4.072  -1.336  -0.559  0.00  0.00    -0.274 OA
ATOM     10  C   UNL     1      -3.140  -3.349   0.182  0.00  0.00    +0.203 C 
ENDROOT
BRANCH   1  14
ATOM     11  C   UNL     1      -0.025   1.496  -0.023  0.00  0.00    +0.067 C 
ATOM     12  C   UNL     1      -0.004  -0.011  -0.026  0.00  0.00    +0.059 C 
ATOM     13  C   UNL     1      -1.093  -0.783  -0.017  0.00  0.00    +0.035 C 
ATOM     14  C   UNL     1      -0.538  -2.197  -0.024  0.00  0.00    +0.238 C 
ATOM     15  N   UNL     1       0.919  -1.980  -0.037  0.00  0.00    -0.170 NA
ATOM     16  N   UNL     1       1.118  -0.763  -0.043  0.00  0.00    -0.159 NA
ENDBRANCH   1  14
BRANCH   7  17
ATOM     17  C   UNL     1      -5.515  -0.719   1.476  0.00  0.00    +0.076 C 
ATOM     18  C   UNL     1      -5.143   0.307   2.549  0.00  0.00    +0.022 C 
ATOM     19  C   UNL     1      -6.135   1.471   2.507  0.00  0.00    +0.002 C 
ATOM     20  C   UNL     1      -7.548   0.947   2.770  0.00  0.00    +0.000 C 
ATOM     21  C   UNL     1      -7.920  -0.079   1.697  0.00  0.00    +0.002 C 
ATOM     22  C   UNL     1      -6.928  -1.243   1.739  0.00  0.00    +0.022 C 
ENDBRANCH   7  17
BRANCH   5  23
ATOM     23  O   UNL     1      -4.582  -4.671   3.833  0.00  0.00    -0.369 OA
BRANCH  23  24
ATOM     24  C   UNL     1      -4.997  -6.017   3.593  0.00  0.00    +0.195 C 
BRANCH  24  25
ATOM     25  C   UNL     1      -5.445  -6.643   4.888  0.00  0.00    -0.022 A 
ATOM     26  C   UNL     1      -4.532  -7.305   5.688  0.00  0.00    +0.006 A 
ATOM     27  C   UNL     1      -4.944  -7.880   6.877  0.00  0.00    +0.000 A 
ATOM     28  C   UNL     1      -6.267  -7.792   7.265  0.00  0.00    +0.000 A 
ATOM     29  C   UNL     1      -7.180  -7.129   6.465  0.00  0.00    +0.000 A 
ATOM     30  C   UNL     1      -6.768  -6.551   5.279  0.00  0.00    +0.006 A 
ENDBRANCH  24  25
ENDBRANCH  23  24
ENDBRANCH   5  23
TORSDOF 5
