REMARK  Name = ZINC58210843
REMARK  5 active torsions:
REMARK  status: ('A' for Active; 'I' for Inactive)
REMARK    1  A    between atoms: C_1  and  C_2
REMARK    2  A    between atoms: C_2  and  C_4
REMARK    3  A    between atoms: C_2  and  N_14
REMARK    4  A    between atoms: N_17  and  S_20
REMARK    5  A    between atoms: S_20  and  N_23
REMARK                            x       y       z     vdW  Elec       q    Type
REMARK                         _______ _______ _______ _____ _____    ______ ____
ROOT
ATOM      1  C   UNL     1       0.105   1.518  -0.117  0.00  0.00    +0.029 C 
ATOM      2  C   UNL     1       0.002  -0.004   0.002  0.00  0.00    +0.084 C 
ENDROOT
BRANCH   2   3
ATOM      3  C   UNL     1       0.713  -0.460   1.250  0.00  0.00    -0.023 A 
ATOM      4  C   UNL     1       2.018  -0.843   1.193  0.00  0.00    +0.006 A 
ATOM      5  C   UNL     1       2.692  -1.268   2.337  0.00  0.00    +0.001 A 
ATOM      6  C   UNL     1       2.064  -1.312   3.544  0.00  0.00    +0.008 A 
ATOM      7  C   UNL     1       0.717  -0.925   3.642  0.00  0.00    -0.018 A 
ATOM      8  C   UNL     1       0.034  -0.487   2.480  0.00  0.00    -0.013 A 
ATOM      9  C   UNL     1      -1.312  -0.093   2.579  0.00  0.00    +0.009 A 
ATOM     10  C   UNL     1      -1.937  -0.132   3.787  0.00  0.00    +0.001 A 
ATOM     11  C   UNL     1      -1.263  -0.557   4.931  0.00  0.00    +0.001 A 
ATOM     12  C   UNL     1       0.036  -0.958   4.871  0.00  0.00    +0.008 A 
ENDBRANCH   2   3
BRANCH   2  13
ATOM     13  N   UNL     1       0.624  -0.630  -1.172  0.00  0.00    -0.293 NA
ATOM     14  C   UNL     1       0.131  -0.024  -2.416  0.00  0.00    +0.102 C 
ATOM     15  C   UNL     1       0.931  -0.574  -3.601  0.00  0.00    +0.126 C 
ATOM     16  N   UNL     1       0.875  -2.043  -3.561  0.00  0.00    -0.164 NA
ATOM     17  C   UNL     1       1.224  -2.718  -2.302  0.00  0.00    +0.126 C 
ATOM     18  C   UNL     1       0.413  -2.084  -1.168  0.00  0.00    +0.102 C 
BRANCH  16  19
ATOM     19  S   UNL     1       0.432  -2.913  -4.898  0.00  0.00    +0.095 S 
ATOM     20  O   UNL     1      -0.059  -4.160  -4.426  0.00  0.00    -0.141 OA
ATOM     21  O   UNL     1      -0.349  -2.045  -5.708  0.00  0.00    -0.141 OA
BRANCH  19  22
ATOM     22  N   UNL     1       1.813  -3.240  -5.750  0.00  0.00    -0.193 NA
ATOM     23  H   UNL     1       2.671  -2.925  -5.423  0.00  0.00    +0.145 HD
ATOM     24  H   UNL     1       1.766  -3.747  -6.576  0.00  0.00    +0.145 HD
ENDBRANCH  19  22
ENDBRANCH  16  19
ENDBRANCH   2  13
TORSDOF 4
