REMARK  Name = ZINC47109625
REMARK  7 active torsions:
REMARK  status: ('A' for Active; 'I' for Inactive)
REMARK    1  A    between atoms: C_1  and  N_2
REMARK    2  A    between atoms: N_2  and  C_3
REMARK    3  A    between atoms: C_3  and  C_4
REMARK    4  A    between atoms: C_7  and  C_9
REMARK    5  A    between atoms: C_12  and  C_15
REMARK    6  A    between atoms: C_15  and  N_16
REMARK    7  A    between atoms: C_17  and  C_19
REMARK                            x       y       z     vdW  Elec       q    Type
REMARK                         _______ _______ _______ _____ _____    ______ ____
ROOT
ATOM      1  C   UNL     1      -0.109   0.025  -2.468  0.00  0.00    +0.037 A 
ATOM      2  C   UNL     1       0.089   1.407  -2.479  0.00  0.00    +0.013 A 
ATOM      3  C   UNL     1       0.069   2.094  -3.676  0.00  0.00    +0.006 A 
ATOM      4  C   UNL     1      -0.146   1.416  -4.862  0.00  0.00    -0.030 A 
ATOM      5  C   UNL     1      -0.342   0.046  -4.858  0.00  0.00    +0.006 A 
ATOM      6  C   UNL     1      -0.319  -0.653  -3.669  0.00  0.00    +0.013 A 
ENDROOT
BRANCH   1   9
ATOM      7  C   UNL     1      -1.246   1.156  -0.145  0.00  0.00    +0.133 C 
ATOM      8  N   UNL     1      -0.578  -0.146  -0.071  0.00  0.00    -0.292 N 
ATOM      9  C   UNL     1      -0.089  -0.717  -1.189  0.00  0.00    +0.247 C 
ATOM     10  O   UNL     1       0.369  -1.842  -1.147  0.00  0.00    -0.270 OA
BRANCH   8  11
ATOM     11  C   UNL     1      -0.443  -0.828   1.219  0.00  0.00    +0.203 C 
BRANCH  11  12
ATOM     12  C   UNL     1      -1.642  -1.712   1.448  0.00  0.00    +0.228 C 
ATOM     13  O   UNL     1      -2.523  -1.767   0.616  0.00  0.00    -0.274 OA
ATOM     14  N   UNL     1      -1.736  -2.441   2.578  0.00  0.00    -0.328 N 
ATOM     15  H   UNL     1      -1.031  -2.397   3.243  0.00  0.00    +0.145 HD
ATOM     16  H   UNL     1      -2.507  -3.010   2.725  0.00  0.00    +0.145 HD
ENDBRANCH  11  12
ENDBRANCH   8  11
ENDBRANCH   1   9
BRANCH   4  17
ATOM     17  C   UNL     1      -0.166   2.172  -6.165  0.00  0.00    +0.139 C 
BRANCH  17  18
ATOM     18  N   UNL     1       1.188   2.222  -6.723  0.00  0.00    -0.311 N 
ATOM     19  C   UNL     1       1.413   2.852  -7.892  0.00  0.00    +0.219 C 
ATOM     20  O   UNL     1       0.494   3.379  -8.484  0.00  0.00    -0.275 OA
ATOM     21  H   UNL     1       1.923   1.801  -6.249  0.00  0.00    +0.149 HD
BRANCH  19  22
ATOM     22  C   UNL     1       2.806   2.904  -8.465  0.00  0.00    +0.048 C 
ATOM     23  C   UNL     1       3.737   3.611  -7.479  0.00  0.00    +0.019 C 
ATOM     24  C   UNL     1       5.151   3.663  -8.061  0.00  0.00    -0.009 C 
ATOM     25  C   UNL     1       5.131   4.431  -9.384  0.00  0.00    +0.007 C 
ATOM     26  C   UNL     1       4.199   3.724 -10.370  0.00  0.00    -0.009 C 
ATOM     27  C   UNL     1       2.785   3.672  -9.788  0.00  0.00    +0.019 C 
ATOM     28  C   UNL     1       4.702   2.300 -10.615  0.00  0.00    +0.007 C 
ATOM     29  C   UNL     1       4.723   1.531  -9.292  0.00  0.00    -0.009 C 
ATOM     30  C   UNL     1       5.655   2.239  -8.306  0.00  0.00    +0.007 C 
ATOM     31  C   UNL     1       3.309   1.480  -8.710  0.00  0.00    +0.019 C 
ENDBRANCH  19  22
ENDBRANCH  17  18
ENDBRANCH   4  17
TORSDOF 6
