REMARK  Name = ZINC00552713
REMARK  5 active torsions:
REMARK  status: ('A' for Active; 'I' for Inactive)
REMARK    1  A    between atoms: C_1  and  C_2
REMARK    2  A    between atoms: C_3  and  N_15
REMARK    3  A    between atoms: N_6  and  C_9
REMARK    4  A    between atoms: N_7  and  C_8
REMARK    5  A    between atoms: N_15  and  C_16
REMARK                            x       y       z     vdW  Elec       q    Type
REMARK                         _______ _______ _______ _____ _____    ______ ____
ROOT
ATOM      1  C   UNL     1       2.657   7.419  -0.041  0.00  0.00    +0.067 C 
ATOM      2  C   UNL     1       2.017   6.070   0.160  0.00  0.00    +0.059 A 
ATOM      3  C   UNL     1       0.692   5.812   0.133  0.00  0.00    +0.118 A 
ATOM      4  C   UNL     1       0.510   4.425   0.365  0.00  0.00    +0.293 A 
ATOM      5  O   UNL     1      -0.557   3.838   0.409  0.00  0.00    -0.264 OA
ATOM      6  N   UNL     1       1.729   3.872   0.527  0.00  0.00    -0.216 N 
ATOM      7  N   UNL     1       2.681   4.893   0.407  0.00  0.00    -0.282 N 
ATOM      8  C   UNL     1       4.132   4.733   0.522  0.00  0.00    +0.171 C 
ENDROOT
BRANCH   6   9
ATOM      9  C   UNL     1       1.995   2.522   0.777  0.00  0.00    +0.067 A 
ATOM     10  C   UNL     1       2.963   1.855   0.038  0.00  0.00    +0.028 A 
ATOM     11  C   UNL     1       3.224   0.522   0.287  0.00  0.00    +0.002 A 
ATOM     12  C   UNL     1       2.522  -0.148   1.272  0.00  0.00    +0.000 A 
ATOM     13  C   UNL     1       1.557   0.512   2.010  0.00  0.00    +0.002 A 
ATOM     14  C   UNL     1       1.292   1.845   1.765  0.00  0.00    +0.028 A 
ENDBRANCH   6   9
BRANCH   3  15
ATOM     15  N   UNL     1      -0.332   6.758  -0.087  0.00  0.00    -0.300 N 
ATOM     16  H   UNL     1      -0.803   6.584  -0.962  0.00  0.00    +0.150 HD
BRANCH  15  17
ATOM     17  C   UNL     1      -1.286   6.770   1.030  0.00  0.00    +0.296 C 
ATOM     18  C   UNL     1      -2.659   7.146   0.534  0.00  0.00    +0.025 A 
ATOM     19  C   UNL     1      -3.524   6.583  -0.374  0.00  0.00    +0.010 A 
ATOM     20  C   UNL     1      -4.749   7.178  -0.625  0.00  0.00    +0.000 A 
ATOM     21  C   UNL     1      -5.107   8.340   0.036  0.00  0.00    +0.001 A 
ATOM     22  C   UNL     1      -4.247   8.915   0.949  0.00  0.00    +0.015 A 
ATOM     23  C   UNL     1      -3.011   8.321   1.208  0.00  0.00    +0.067 A 
ATOM     24  C   UNL     1      -1.899   8.683   2.105  0.00  0.00    +0.342 C 
ATOM     25  O   UNL     1      -1.883   9.654   2.836  0.00  0.00    -0.245 OA
ATOM     26  O   UNL     1      -0.906   7.785   2.000  0.00  0.00    -0.435 OA
ENDBRANCH  15  17
ENDBRANCH   3  15
TORSDOF 3
