REMARK  Name = ZINC39533510
REMARK  10 active torsions:
REMARK  status: ('A' for Active; 'I' for Inactive)
REMARK    1  A    between atoms: C_1  and  C_2
REMARK    2  A    between atoms: C_2  and  C_3
REMARK    3  A    between atoms: C_2  and  C_4
REMARK    4  A    between atoms: C_4  and  C_5
REMARK    5  A    between atoms: C_8  and  C_11
REMARK    6  A    between atoms: C_11  and  C_13
REMARK    7  A    between atoms: C_11  and  N_22
REMARK    8  A    between atoms: C_13  and  N_14
REMARK    9  A    between atoms: N_14  and  C_15
REMARK   10  A    between atoms: C_20  and  O_21
REMARK                            x       y       z     vdW  Elec       q    Type
REMARK                         _______ _______ _______ _____ _____    ______ ____
ROOT
ATOM      1  C   UNL     1      -2.141   0.927   5.955  0.00  0.00    +0.104 C 
ENDROOT
BRANCH   1   2
ATOM      2  N   UNL     1      -2.300  -0.342   6.677  0.00  0.00    -0.291 NA
ATOM      3  C   UNL     1      -3.243  -0.197   7.795  0.00  0.00    +0.100 C 
ATOM      4  C   UNL     1      -3.442  -1.556   8.471  0.00  0.00    +0.097 C 
ATOM      5  N   UNL     1      -2.145  -2.060   8.942  0.00  0.00    -0.303 NA
ATOM      6  C   UNL     1      -1.202  -2.205   7.824  0.00  0.00    +0.132 C 
ATOM      7  C   UNL     1      -1.003  -0.846   7.148  0.00  0.00    +0.114 C 
ATOM      8  I   UNL     1       0.696  -2.925   8.569  0.00  0.00    -0.063 I 
ATOM      9  H   UNL     1      -1.764  -1.463   9.661  0.00  0.00    +0.123 HD
ENDBRANCH   1   2
BRANCH   1  13
ATOM     10  C   UNL     1       0.478   0.353   2.630  0.00  0.00    -0.047 A 
ATOM     11  C   UNL     1       0.563   1.507   3.385  0.00  0.00    +0.004 A 
ATOM     12  C   UNL     1      -0.284   1.693   4.461  0.00  0.00    +0.005 A 
ATOM     13  C   UNL     1      -1.218   0.725   4.781  0.00  0.00    -0.029 A 
ATOM     14  C   UNL     1      -1.304  -0.429   4.025  0.00  0.00    +0.005 A 
ATOM     15  C   UNL     1      -0.459  -0.613   2.946  0.00  0.00    +0.004 A 
BRANCH  10  16
ATOM     16  C   UNL     1       1.402   0.150   1.456  0.00  0.00    +0.038 C 
BRANCH  16  18
ATOM     17  C   UNL     1       0.616   2.242   0.340  0.00  0.00    +0.007 C 
ATOM     18  C   UNL     1       0.757   0.726   0.194  0.00  0.00    -0.013 C 
ATOM     19  C   UNL     1       1.637   0.410  -1.017  0.00  0.00    +0.007 C 
ENDBRANCH  16  18
ENDBRANCH  10  16
ENDBRANCH   1  13
BRANCH   1  20
ATOM     20  C   UNL     1      -3.506   1.404   5.454  0.00  0.00    +0.125 C 
BRANCH  20  21
ATOM     21  N   UNL     1      -3.359   2.707   4.802  0.00  0.00    -0.339 N 
ATOM     22  H   UNL     1      -2.479   3.103   4.701  0.00  0.00    +0.146 HD
BRANCH  21  23
ATOM     23  C   UNL     1      -4.488   3.382   4.324  0.00  0.00    +0.069 A 
ATOM     24  C   UNL     1      -5.748   2.821   4.472  0.00  0.00    +0.026 A 
ATOM     25  C   UNL     1      -6.862   3.490   4.000  0.00  0.00    +0.002 A 
ATOM     26  C   UNL     1      -6.724   4.718   3.380  0.00  0.00    +0.004 A 
ATOM     27  C   UNL     1      -5.471   5.283   3.229  0.00  0.00    +0.047 A 
ATOM     28  C   UNL     1      -4.351   4.622   3.704  0.00  0.00    +0.138 A 
BRANCH  28  29
ATOM     29  O   UNL     1      -3.118   5.179   3.560  0.00  0.00    -0.505 OA
ATOM     30  H   UNL     1      -2.671   4.939   2.737  0.00  0.00    +0.292 HD
ENDBRANCH  28  29
ENDBRANCH  21  23
ENDBRANCH  20  21
ENDBRANCH   1  20
TORSDOF 8
