REMARK  Name = ZINC22703715
REMARK  8 active torsions:
REMARK  status: ('A' for Active; 'I' for Inactive)
REMARK    1  A    between atoms: C_1  and  C_2
REMARK    2  A    between atoms: C_2  and  C_4
REMARK    3  A    between atoms: C_2  and  N_11
REMARK    4  A    between atoms: C_12  and  C_14
REMARK    5  A    between atoms: C_14  and  C_16
REMARK    6  A    between atoms: C_14  and  O_17
REMARK    7  A    between atoms: O_17  and  C_18
REMARK    8  A    between atoms: C_18  and  C_20
REMARK                            x       y       z     vdW  Elec       q    Type
REMARK                         _______ _______ _______ _____ _____    ______ ____
ROOT
ATOM      1  N   UNL     1      -7.049   2.442   0.966  0.00  0.00    -0.306 N 
ATOM      2  C   UNL     1      -5.758   2.767   0.751  0.00  0.00    +0.254 C 
ATOM      3  O   UNL     1      -5.330   3.834   1.136  0.00  0.00    -0.272 OA
ATOM      4  H   UNL     1      -7.438   1.474   0.617  0.00  0.00    +0.149 HD
ENDROOT
BRANCH   1   6
ATOM      5  C   UNL     1      -8.506   4.383   0.665  0.00  0.00    +0.033 C 
ATOM      6  C   UNL     1      -7.933   3.378   1.666  0.00  0.00    +0.100 C 
BRANCH   6   7
ATOM      7  C   UNL     1      -9.060   2.615   2.313  0.00  0.00    -0.027 A 
ATOM      8  C   UNL     1      -9.657   1.563   1.643  0.00  0.00    +0.008 A 
ATOM      9  C   UNL     1     -10.687   0.860   2.238  0.00  0.00    +0.038 A 
ATOM     10  C   UNL     1     -11.129   1.216   3.501  0.00  0.00    +0.123 A 
ATOM     11  C   UNL     1     -10.534   2.273   4.169  0.00  0.00    +0.038 A 
ATOM     12  C   UNL     1      -9.500   2.971   3.574  0.00  0.00    +0.008 A 
ATOM     13  F   UNL     1     -12.140   0.533   4.081  0.00  0.00    -0.205 F 
ENDBRANCH   6   7
ENDBRANCH   1   6
BRANCH   2  14
ATOM     14  C   UNL     1      -4.849   1.805   0.032  0.00  0.00    +0.259 C 
ATOM     15  C   UNL     1      -5.330   1.629  -1.410  0.00  0.00    +0.062 C 
BRANCH  14  16
ATOM     16  O   UNL     1      -3.516   2.321   0.029  0.00  0.00    -0.447 OA
BRANCH  16  17
ATOM     17  C   UNL     1      -2.511   1.421   0.020  0.00  0.00    +0.376 C 
ATOM     18  O   UNL     1      -2.761   0.230   0.015  0.00  0.00    -0.241 OA
BRANCH  17  19
ATOM     19  C   UNL     1      -1.120   1.877   0.017  0.00  0.00    +0.213 A 
ATOM     20  C   UNL     1      -0.013   1.076   0.008  0.00  0.00    +0.058 A 
ATOM     21  C   UNL     1       1.101   1.928   0.002  0.00  0.00    +0.058 A 
ATOM     22  C   UNL     1       0.632   3.197   0.013  0.00  0.00    +0.171 A 
ATOM     23  O   UNL     1      -0.707   3.162   0.025  0.00  0.00    -0.442 OA
ATOM     24 BR   UNL     1       1.692   4.763   0.011  0.00  0.00    -0.008 Br
ENDBRANCH  17  19
ENDBRANCH  16  17
ENDBRANCH  14  16
ENDBRANCH   2  14
TORSDOF 6
