REMARK  Name = ZINC65144327
REMARK  9 active torsions:
REMARK  status: ('A' for Active; 'I' for Inactive)
REMARK    1  A    between atoms: C_4  and  C_7
REMARK    2  A    between atoms: C_10  and  C_12
REMARK    3  A    between atoms: C_12  and  C_13
REMARK    4  A    between atoms: C_13  and  C_14
REMARK    5  A    between atoms: C_14  and  C_15
REMARK    6  A    between atoms: N_17  and  N_18
REMARK    7  A    between atoms: N_21  and  C_22
REMARK    8  A    between atoms: C_22  and  C_23
REMARK    9  A    between atoms: C_23  and  C_24
REMARK                            x       y       z     vdW  Elec       q    Type
REMARK                         _______ _______ _______ _____ _____    ______ ____
ROOT
ATOM      1  C   UNL     1       6.940  -5.951   2.750  0.00  0.00    +0.229 C 
ATOM      2  O   UNL     1       6.611  -5.248   3.681  0.00  0.00    -0.274 OA
ATOM      3  N   UNL     1       7.508  -7.152   2.980  0.00  0.00    -0.233 N 
ATOM      4  H   UNL     1       7.772  -7.714   2.236  0.00  0.00    +0.173 HD
ENDROOT
BRANCH   3   5
ATOM      5  N   UNL     1       7.717  -7.587   4.295  0.00  0.00    -0.218 N 
ATOM      6  C   UNL     1       8.284  -8.788   4.526  0.00  0.00    +0.316 C 
ATOM      7  O   UNL     1       8.466  -9.165   5.667  0.00  0.00    -0.251 OA
ATOM      8  N   UNL     1       8.651  -9.569   3.491  0.00  0.00    -0.298 N 
ATOM      9  H   UNL     1       7.453  -7.024   5.040  0.00  0.00    +0.174 HD
ATOM     10  H   UNL     1       8.506  -9.268   2.580  0.00  0.00    +0.150 HD
BRANCH   8  11
ATOM     11  C   UNL     1       9.268 -10.874   3.741  0.00  0.00    +0.112 C 
BRANCH  11  12
ATOM     12  C   UNL     1       9.585 -11.553   2.407  0.00  0.00    +0.074 C 
BRANCH  12  13
ATOM     13  C   UNL     1      10.219 -12.895   2.664  0.00  0.00    +0.043 A 
ATOM     14  C   UNL     1       9.669 -14.031   2.100  0.00  0.00    +0.023 A 
ATOM     15  C   UNL     1      10.261 -15.261   2.343  0.00  0.00    +0.003 A 
ATOM     16  C   UNL     1      11.388 -15.303   3.149  0.00  0.00    +0.020 A 
ATOM     17  C   UNL     1      11.882 -14.126   3.679  0.00  0.00    +0.111 A 
ATOM     18  N   UNL     1      11.296 -12.973   3.421  0.00  0.00    -0.260 NA
ENDBRANCH  12  13
ENDBRANCH  11  12
ENDBRANCH   8  11
ENDBRANCH   3   5
BRANCH   1  19
ATOM     19  C   UNL     1       6.715  -5.483   1.335  0.00  0.00    +0.098 C 
BRANCH  19  20
ATOM     20  C   UNL     1       6.062  -4.099   1.354  0.00  0.00    +0.019 C 
BRANCH  20  21
ATOM     21  C   UNL     1       5.834  -3.624  -0.082  0.00  0.00    +0.096 C 
BRANCH  21  25
ATOM     22  C   UNL     1       3.695  -0.685  -0.038  0.00  0.00    +0.155 A 
ATOM     23  C   UNL     1       4.932  -0.125  -0.042  0.00  0.00    +0.161 A 
ATOM     24  N   UNL     1       5.827  -1.124  -0.058  0.00  0.00    -0.221 NA
ATOM     25  C   UNL     1       5.191  -2.261  -0.064  0.00  0.00    +0.196 A 
ATOM     26  O   UNL     1       3.872  -2.024  -0.047  0.00  0.00    -0.440 OA
BRANCH  22  30
ATOM     27  C   UNL     1      -0.017   1.379   0.010  0.00  0.00    +0.000 A 
ATOM     28  C   UNL     1       1.168   2.093   0.002  0.00  0.00    +0.001 A 
ATOM     29  C   UNL     1       2.377   1.429  -0.013  0.00  0.00    +0.011 A 
ATOM     30  C   UNL     1       2.403   0.034  -0.021  0.00  0.00    +0.019 A 
ATOM     31  C   UNL     1       1.204  -0.681  -0.013  0.00  0.00    +0.011 A 
ATOM     32  C   UNL     1       0.002  -0.004   0.002  0.00  0.00    +0.001 A 
ENDBRANCH  22  30
ENDBRANCH  21  25
ENDBRANCH  20  21
ENDBRANCH  19  20
ENDBRANCH   1  19
TORSDOF 9
