REMARK  Name = ZINC44476326
REMARK  5 active torsions:
REMARK  status: ('A' for Active; 'I' for Inactive)
REMARK    1  A    between atoms: C_1  and  C_2
REMARK    2  A    between atoms: N_5  and  S_11
REMARK    3  A    between atoms: C_7  and  C_9
REMARK    4  A    between atoms: C_7  and  C_10
REMARK    5  A    between atoms: S_11  and  C_14
REMARK                            x       y       z     vdW  Elec       q    Type
REMARK                         _______ _______ _______ _____ _____    ______ ____
ROOT
ATOM      1  C   UNL     1      -0.019   1.526   0.010  0.00  0.00    +0.039 C 
ATOM      2  C   UNL     1       0.002  -0.004   0.002  0.00  0.00    +0.132 C 
ATOM      3  C   UNL     1       0.722  -0.499  -1.258  0.00  0.00    +0.140 C 
ATOM      4  N   UNL     1       0.894  -1.957  -1.151  0.00  0.00    -0.171 NA
ATOM      5  C   UNL     1       1.483  -2.495   0.085  0.00  0.00    +0.144 C 
ATOM      6  C   UNL     1       0.726  -1.903   1.280  0.00  0.00    +0.079 C 
ATOM      7  O   UNL     1       0.695  -0.479   1.159  0.00  0.00    -0.368 OA
ATOM      8  C   UNL     1       1.437  -2.290   2.578  0.00  0.00    +0.042 C 
ATOM      9  C   UNL     1      -0.705  -2.444   1.298  0.00  0.00    +0.042 C 
ENDROOT
BRANCH   4  10
ATOM     10  S   UNL     1       0.438  -2.962  -2.386  0.00  0.00    +0.068 S 
ATOM     11  O   UNL     1       0.199  -4.236  -1.805  0.00  0.00    -0.152 OA
ATOM     12  O   UNL     1      -0.552  -2.266  -3.131  0.00  0.00    -0.152 OA
BRANCH  10  13
ATOM     13  C   UNL     1       1.831  -3.146  -3.449  0.00  0.00    +0.157 A 
ATOM     14  C   UNL     1       1.943  -3.866  -4.592  0.00  0.00    +0.051 A 
ATOM     15  C   UNL     1       3.149  -3.863  -5.270  0.00  0.00    +0.025 A 
ATOM     16  C   UNL     1       4.182  -3.142  -4.771  0.00  0.00    +0.048 A 
ATOM     17  S   UNL     1       3.459  -2.427  -3.304  0.00  0.00    -0.076 S 
ATOM     18 BR   UNL     1       0.474  -4.858  -5.250  0.00  0.00    -0.048 Br
ENDBRANCH  10  13
ENDBRANCH   4  10
TORSDOF 2
