REMARK  Name = ZINC22332998
REMARK  13 active torsions:
REMARK  status: ('A' for Active; 'I' for Inactive)
REMARK    1  A    between atoms: C_1  and  C_2
REMARK    2  A    between atoms: C_2  and  O_3
REMARK    3  A    between atoms: O_3  and  C_4
REMARK    4  A    between atoms: C_9  and  N_10
REMARK    5  A    between atoms: N_10  and  C_11
REMARK    6  A    between atoms: N_10  and  S_31
REMARK    7  A    between atoms: C_11  and  C_12
REMARK    8  A    between atoms: N_14  and  C_15
REMARK    9  A    between atoms: C_15  and  C_17
REMARK   10  A    between atoms: C_15  and  C_18
REMARK   11  A    between atoms: C_21  and  N_24
REMARK   12  A    between atoms: C_27  and  C_30
REMARK   13  A    between atoms: S_31  and  C_34
REMARK                            x       y       z     vdW  Elec       q    Type
REMARK                         _______ _______ _______ _____ _____    ______ ____
ROOT
ATOM      1  C   UNL     1       4.436   1.049  -1.482  0.00  0.00    +0.233 C 
ATOM      2  O   UNL     1       4.571  -0.135  -1.258  0.00  0.00    -0.274 OA
ATOM      3  N   UNL     1       3.425   1.732  -0.909  0.00  0.00    -0.307 N 
ATOM      4  H   UNL     1       3.303   2.807  -1.112  0.00  0.00    +0.149 HD
ENDROOT
BRANCH   3   5
ATOM      5  C   UNL     1       2.490   1.044  -0.016  0.00  0.00    +0.100 C 
ATOM      6  C   UNL     1       3.071   1.005   1.399  0.00  0.00    +0.033 C 
BRANCH   5   7
ATOM      7  C   UNL     1       1.176   1.783   0.000  0.00  0.00    -0.027 A 
ATOM      8  C   UNL     1      -0.013   1.076   0.008  0.00  0.00    +0.007 A 
ATOM      9  C   UNL     1      -1.218   1.749   0.017  0.00  0.00    +0.023 A 
ATOM     10  C   UNL     1      -1.236   3.138   0.031  0.00  0.00    +0.030 A 
ATOM     11  C   UNL     1      -0.040   3.845   0.024  0.00  0.00    +0.023 A 
ATOM     12  C   UNL     1       1.162   3.166   0.008  0.00  0.00    +0.007 A 
BRANCH  10  13
ATOM     13  N   UNL     1      -2.454   3.822   0.046  0.00  0.00    -0.330 N 
ATOM     14  C   UNL     1      -2.524   4.746   1.186  0.00  0.00    +0.105 C 
ATOM     15  C   UNL     1      -3.804   5.580   1.090  0.00  0.00    +0.022 C 
ATOM     16  C   UNL     1      -5.017   4.646   1.089  0.00  0.00    -0.011 C 
ATOM     17  C   UNL     1      -4.895   3.664  -0.079  0.00  0.00    +0.022 C 
ATOM     18  C   UNL     1      -3.584   2.885   0.051  0.00  0.00    +0.105 C 
ATOM     19  C   UNL     1      -6.296   5.471   0.932  0.00  0.00    +0.007 C 
ENDBRANCH  10  13
ENDBRANCH   5   7
ENDBRANCH   3   5
BRANCH   1  20
ATOM     20  C   UNL     1       5.398   1.757  -2.401  0.00  0.00    +0.226 C 
BRANCH  20  21
ATOM     21  N   UNL     1       6.397   0.803  -2.890  0.00  0.00    -0.195 N 
BRANCH  21  27
ATOM     22  C   UNL     1       5.614  -1.276  -3.848  0.00  0.00    +0.143 A 
ATOM     23  C   UNL     1       5.340  -2.055  -4.960  0.00  0.00    +0.047 A 
ATOM     24  C   UNL     1       5.567  -1.553  -6.229  0.00  0.00    +0.004 A 
ATOM     25  C   UNL     1       6.068  -0.275  -6.391  0.00  0.00    +0.002 A 
ATOM     26  C   UNL     1       6.339   0.510  -5.287  0.00  0.00    +0.028 A 
ATOM     27  C   UNL     1       6.119   0.012  -4.011  0.00  0.00    +0.093 A 
BRANCH  22  28
ATOM     28  O   UNL     1       5.390  -1.768  -2.600  0.00  0.00    -0.490 OA
BRANCH  28  30
ATOM     29  C   UNL     1       4.686  -3.473  -1.038  0.00  0.00    +0.048 C 
ATOM     30  C   UNL     1       4.871  -3.097  -2.509  0.00  0.00    +0.226 C 
ENDBRANCH  28  30
ENDBRANCH  22  28
ENDBRANCH  21  27
BRANCH  21  31
ATOM     31  S   UNL     1       7.855   0.662  -2.118  0.00  0.00    +0.043 S 
ATOM     32  O   UNL     1       8.749   0.190  -3.116  0.00  0.00    -0.155 OA
ATOM     33  O   UNL     1       8.061   1.924  -1.499  0.00  0.00    -0.155 OA
ATOM     34  C   UNL     1       7.593  -0.617  -0.859  0.00  0.00    +0.218 C 
ENDBRANCH  21  31
ENDBRANCH  20  21
ENDBRANCH   1  20
TORSDOF 9
