REMARK  Name = ZINC05357660
REMARK  11 active torsions:
REMARK  status: ('A' for Active; 'I' for Inactive)
REMARK    1  A    between atoms: C_1  and  C_2
REMARK    2  A    between atoms: C_2  and  C_4
REMARK    3  A    between atoms: C_2  and  N_59
REMARK    4  A    between atoms: C_15  and  C_16
REMARK    5  A    between atoms: C_15  and  N_59
REMARK    6  A    between atoms: C_16  and  C_17
REMARK    7  A    between atoms: C_17  and  C_18
REMARK    8  A    between atoms: C_18  and  N_62
REMARK    9  A    between atoms: C_19  and  C_21
REMARK   10  A    between atoms: C_19  and  C_22
REMARK   11  A    between atoms: C_19  and  N_62
REMARK                            x       y       z     vdW  Elec       q    Type
REMARK                         _______ _______ _______ _____ _____    ______ ____
ROOT
ATOM      1  C   UNL     1      -4.457  -0.668  -1.812  0.00  0.00    -0.021 C 
ENDROOT
BRANCH   1   2
ATOM      2  C   UNL     1      -3.480  -1.094  -0.714  0.00  0.00    -0.082 C 
BRANCH   2   3
ATOM      3  N   UNL     1      -2.344  -0.154  -0.687  0.00  0.00    +0.383 N 
ATOM      4  H   UNL     1      -1.871  -0.167  -1.598  0.00  0.00    -0.085 HD
ATOM      5  H   UNL     1      -2.692   0.793  -0.495  0.00  0.00    -0.085 HD
BRANCH   3   7
ATOM      6  C   UNL     1      -1.827   0.053   1.704  0.00  0.00    -0.010 C 
ATOM      7  C   UNL     1      -1.384  -0.541   0.365  0.00  0.00    -0.030 C 
BRANCH   7   8
ATOM      8  C   UNL     1       0.002  -0.004   0.002  0.00  0.00    +0.197 C 
ATOM      9  C   UNL     1       1.028  -0.476   1.041  0.00  0.00    +0.272 C 
ATOM     10  O   UNL     1       2.308   0.053   0.679  0.00  0.00    -0.485 OA
ATOM     11  C   UNL     1       2.351   1.370   0.338  0.00  0.00    +0.162 A 
ATOM     12  C   UNL     1       3.570   2.031   0.328  0.00  0.00    +0.049 A 
ATOM     13  C   UNL     1       3.630   3.368  -0.019  0.00  0.00    +0.004 A 
ATOM     14  C   UNL     1       2.475   4.049  -0.357  0.00  0.00    +0.004 A 
ATOM     15  C   UNL     1       1.257   3.397  -0.347  0.00  0.00    +0.049 A 
ATOM     16  C   UNL     1       1.190   2.056   0.002  0.00  0.00    +0.162 A 
ATOM     17  O   UNL     1      -0.017   1.427   0.010  0.00  0.00    -0.483 OA
ENDBRANCH   7   8
ENDBRANCH   3   7
ENDBRANCH   2   3
ENDBRANCH   1   2
BRANCH   1  18
ATOM     18  C   UNL     1      -5.639  -1.638  -1.848  0.00  0.00    -0.021 C 
BRANCH  18  19
ATOM     19  C   UNL     1      -6.616  -1.212  -2.946  0.00  0.00    -0.082 C 
BRANCH  19  20
ATOM     20  N   UNL     1      -7.752  -2.152  -2.973  0.00  0.00    +0.383 N 
ATOM     21  H   UNL     1      -8.225  -2.139  -2.062  0.00  0.00    -0.085 HD
ATOM     22  H   UNL     1      -7.404  -3.099  -3.164  0.00  0.00    -0.085 HD
BRANCH  20  23
ATOM     23  C   UNL     1      -8.711  -1.765  -4.025  0.00  0.00    -0.030 C 
ATOM     24  C   UNL     1      -8.269  -2.358  -5.364  0.00  0.00    -0.010 C 
BRANCH  23  25
ATOM     25  C   UNL     1     -10.098  -2.302  -3.662  0.00  0.00    +0.197 C 
ATOM     26  C   UNL     1     -10.541  -1.721  -2.312  0.00  0.00    +0.272 C 
ATOM     27  O   UNL     1     -11.832  -2.253  -1.998  0.00  0.00    -0.485 OA
ATOM     28  C   UNL     1     -11.999  -3.593  -2.166  0.00  0.00    +0.162 A 
ATOM     29  C   UNL     1     -13.071  -4.228  -1.557  0.00  0.00    +0.049 A 
ATOM     30  C   UNL     1     -13.255  -5.588  -1.721  0.00  0.00    +0.004 A 
ATOM     31  C   UNL     1     -12.372  -6.319  -2.493  0.00  0.00    +0.004 A 
ATOM     32  C   UNL     1     -11.301  -5.693  -3.103  0.00  0.00    +0.049 A 
ATOM     33  C   UNL     1     -11.110  -4.329  -2.941  0.00  0.00    +0.162 A 
ATOM     34  O   UNL     1     -10.047  -3.728  -3.542  0.00  0.00    -0.483 OA
ENDBRANCH  23  25
ENDBRANCH  20  23
ENDBRANCH  19  20
ENDBRANCH  18  19
ENDBRANCH   1  18
TORSDOF 9
