REMARK  Name = ZINC22321614
REMARK  14 active torsions:
REMARK  status: ('A' for Active; 'I' for Inactive)
REMARK    1  A    between atoms: C_1  and  C_2
REMARK    2  A    between atoms: C_2  and  C_3
REMARK    3  A    between atoms: N_9  and  C_10
REMARK    4  A    between atoms: C_10  and  C_11
REMARK    5  A    between atoms: C_11  and  C_12
REMARK    6  A    between atoms: C_12  and  N_13
REMARK    7  A    between atoms: C_14  and  C_16
REMARK    8  A    between atoms: C_16  and  N_17
REMARK    9  A    between atoms: N_17  and  C_18
REMARK   10  A    between atoms: N_17  and  S_26
REMARK   11  A    between atoms: C_21  and  O_24
REMARK   12  A    between atoms: O_24  and  C_25
REMARK   13  A    between atoms: S_26  and  C_29
REMARK   14  A    between atoms: C_32  and  C_35
REMARK                            x       y       z     vdW  Elec       q    Type
REMARK                         _______ _______ _______ _____ _____    ______ ____
ROOT
ATOM      1  N   UNL     1      -9.558   1.038   3.906  0.00  0.00    -0.194 N 
ENDROOT
BRANCH   1   2
ATOM      2  C   UNL     1     -10.314   2.070   3.339  0.00  0.00    +0.052 A 
ATOM      3  C   UNL     1     -11.691   1.938   3.221  0.00  0.00    +0.028 A 
ATOM      4  C   UNL     1     -12.438   2.960   2.667  0.00  0.00    +0.047 A 
ATOM      5  C   UNL     1     -11.810   4.112   2.216  0.00  0.00    +0.120 A 
ATOM      6  C   UNL     1     -10.434   4.242   2.327  0.00  0.00    +0.047 A 
ATOM      7  C   UNL     1      -9.687   3.224   2.887  0.00  0.00    +0.028 A 
BRANCH   5   8
ATOM      8  O   UNL     1     -12.545   5.114   1.665  0.00  0.00    -0.495 OA
ATOM      9  C   UNL     1     -13.957   4.914   1.582  0.00  0.00    +0.277 C 
ENDBRANCH   5   8
ENDBRANCH   1   2
BRANCH   1  10
ATOM     10  S   UNL     1     -10.117  -0.520   3.861  0.00  0.00    +0.075 S 
ATOM     11  O   UNL     1     -11.031  -0.591   2.775  0.00  0.00    -0.150 OA
ATOM     12  O   UNL     1      -8.977  -1.363   3.953  0.00  0.00    -0.150 OA
BRANCH  10  13
ATOM     13  C   UNL     1     -11.056  -0.779   5.329  0.00  0.00    +0.109 A 
ATOM     14  C   UNL     1     -10.419  -1.135   6.503  0.00  0.00    +0.029 A 
ATOM     15  C   UNL     1     -11.155  -1.335   7.655  0.00  0.00    +0.005 A 
ATOM     16  C   UNL     1     -12.530  -1.188   7.632  0.00  0.00    -0.050 A 
ATOM     17  C   UNL     1     -13.167  -0.837   6.456  0.00  0.00    +0.005 A 
ATOM     18  C   UNL     1     -12.431  -0.633   5.305  0.00  0.00    +0.029 A 
ATOM     19  C   UNL     1     -13.333  -1.410   8.887  0.00  0.00    +0.044 C 
ENDBRANCH  10  13
ENDBRANCH   1  10
BRANCH   1  20
ATOM     20  C   UNL     1      -8.272   1.337   4.541  0.00  0.00    +0.227 C 
BRANCH  20  22
ATOM     21  N   UNL     1      -5.913   1.616   3.849  0.00  0.00    -0.314 N 
ATOM     22  C   UNL     1      -7.188   1.360   3.494  0.00  0.00    +0.232 C 
ATOM     23  O   UNL     1      -7.463   1.148   2.332  0.00  0.00    -0.274 OA
ATOM     24  H   UNL     1      -5.664   1.808   4.903  0.00  0.00    +0.149 HD
BRANCH  21  25
ATOM     25  C   UNL     1      -4.860   1.638   2.831  0.00  0.00    +0.102 C 
BRANCH  25  26
ATOM     26  C   UNL     1      -3.517   1.950   3.494  0.00  0.00    +0.000 C 
BRANCH  26  27
ATOM     27  C   UNL     1      -2.417   1.973   2.431  0.00  0.00    -0.077 C 
BRANCH  27  33
ATOM     28  C   UNL     1      -0.030   2.203   2.094  0.00  0.00    -0.069 C 
ATOM     29  C   UNL     1       1.272   2.660   2.755  0.00  0.00    -0.015 C 
ATOM     30  C   UNL     1       1.573   1.758   3.955  0.00  0.00    -0.003 C 
ATOM     31  C   UNL     1       0.394   1.811   4.932  0.00  0.00    -0.019 C 
ATOM     32  C   UNL     1      -0.882   1.378   4.207  0.00  0.00    -0.078 C 
ATOM     33  N   UNL     1      -1.127   2.272   3.068  0.00  0.00    +0.382 N 
ATOM     34  H   UNL     1      -1.169   3.302   3.453  0.00  0.00    -0.081 HD
BRANCH  28  36
ATOM     35  C   UNL     1       0.731   2.944  -0.168  0.00  0.00    +0.002 C 
ATOM     36  C   UNL     1      -0.346   3.114   0.906  0.00  0.00    -0.019 C 
ENDBRANCH  28  36
ENDBRANCH  27  33
ENDBRANCH  26  27
ENDBRANCH  25  26
ENDBRANCH  21  25
ENDBRANCH  20  22
ENDBRANCH   1  20
TORSDOF 11
