REMARK  Name = ZINC38200830
REMARK  12 active torsions:
REMARK  status: ('A' for Active; 'I' for Inactive)
REMARK    1  A    between atoms: C_1  and  C_2
REMARK    2  A    between atoms: C_2  and  N_3
REMARK    3  A    between atoms: N_3  and  C_4
REMARK    4  A    between atoms: N_3  and  C_6
REMARK    5  A    between atoms: C_4  and  C_5
REMARK    6  A    between atoms: C_6  and  C_7
REMARK    7  A    between atoms: C_7  and  C_8
REMARK    8  A    between atoms: C_8  and  C_9
REMARK    9  A    between atoms: C_9  and  C_11
REMARK   10  A    between atoms: C_9  and  N_12
REMARK   11  A    between atoms: C_25  and  C_27
REMARK   12  A    between atoms: C_28  and  C_29
REMARK                            x       y       z     vdW  Elec       q    Type
REMARK                         _______ _______ _______ _____ _____    ______ ____
ROOT
ATOM      1  N   UNL     1      -3.536  -3.614  -0.664  0.00  0.00    -0.326 N 
ATOM      2  C   UNL     1      -4.871  -3.276  -0.623  0.00  0.00    +0.131 A 
ATOM      3  C   UNL     1      -5.539  -2.968   0.646  0.00  0.00    +0.041 A 
ATOM      4  C   UNL     1      -4.865  -3.002   1.856  0.00  0.00    +0.022 A 
ATOM      5  C   UNL     1      -5.555  -2.699   3.033  0.00  0.00    -0.017 A 
ATOM      6  C   UNL     1      -4.905  -2.722   4.284  0.00  0.00    +0.008 A 
ATOM      7  C   UNL     1      -5.605  -2.421   5.409  0.00  0.00    +0.001 A 
ATOM      8  C   UNL     1      -6.958  -2.088   5.363  0.00  0.00    +0.001 A 
ATOM      9  C   UNL     1      -7.644  -2.048   4.191  0.00  0.00    +0.008 A 
ATOM     10  C   UNL     1      -6.978  -2.349   2.984  0.00  0.00    -0.016 A 
ATOM     11  C   UNL     1      -7.652  -2.316   1.762  0.00  0.00    +0.037 A 
ATOM     12  C   UNL     1      -6.963  -2.618   0.593  0.00  0.00    +0.077 A 
ATOM     13  N   UNL     1      -7.564  -2.600  -0.609  0.00  0.00    -0.228 NA
ATOM     14  C   UNL     1      -6.891  -2.890  -1.706  0.00  0.00    +0.155 A 
ATOM     15  N   UNL     1      -5.596  -3.211  -1.728  0.00  0.00    -0.213 NA
ATOM     16  H   UNL     1      -3.021  -3.657   0.157  0.00  0.00    +0.148 HD
ENDROOT
BRANCH   1  17
ATOM     17  C   UNL     1      -2.895  -3.910  -1.948  0.00  0.00    +0.069 C 
ATOM     18  C   UNL     1      -3.128  -5.379  -2.307  0.00  0.00    +0.028 C 
BRANCH  17  19
ATOM     19  C   UNL     1      -1.392  -3.644  -1.840  0.00  0.00    +0.020 C 
BRANCH  19  20
ATOM     20  C   UNL     1      -1.155  -2.151  -1.603  0.00  0.00    -0.017 C 
BRANCH  20  21
ATOM     21  C   UNL     1       0.348  -1.884  -1.496  0.00  0.00    -0.079 C 
BRANCH  21  22
ATOM     22  N   UNL     1       0.576  -0.451  -1.269  0.00  0.00    +0.379 N 
ATOM     23  H   UNL     1       0.124   0.081  -1.998  0.00  0.00    -0.082 HD
BRANCH  22  25
ATOM     24  C   UNL     1       0.128   1.449   0.210  0.00  0.00    -0.017 C 
ATOM     25  C   UNL     1       0.019  -0.067   0.035  0.00  0.00    -0.082 C 
ENDBRANCH  22  25
BRANCH  22  26
ATOM     26  C   UNL     1       2.019  -0.176  -1.285  0.00  0.00    -0.082 C 
ATOM     27  C   UNL     1       2.573  -0.440  -2.687  0.00  0.00    -0.017 C 
ENDBRANCH  22  26
ENDBRANCH  21  22
ENDBRANCH  20  21
ENDBRANCH  19  20
ENDBRANCH  17  19
ENDBRANCH   1  17
BRANCH  14  28
ATOM     28  C   UNL     1      -7.613  -2.851  -2.988  0.00  0.00    +0.049 C 
ATOM     29  C   UNL     1      -8.918  -2.528  -3.015  0.00  0.00    +0.011 C 
BRANCH  29  30
ATOM     30  C   UNL     1      -9.640  -2.489  -4.298  0.00  0.00    -0.025 A 
ATOM     31  C   UNL     1      -8.974  -2.794  -5.488  0.00  0.00    +0.009 A 
ATOM     32  C   UNL     1      -9.657  -2.756  -6.686  0.00  0.00    +0.016 A 
ATOM     33  C   UNL     1     -10.999  -2.417  -6.710  0.00  0.00    +0.018 A 
ATOM     34  C   UNL     1     -11.665  -2.114  -5.535  0.00  0.00    +0.016 A 
ATOM     35  C   UNL     1     -10.997  -2.154  -4.330  0.00  0.00    +0.009 A 
ATOM     36 BR   UNL     1     -11.927  -2.367  -8.358  0.00  0.00    -0.050 Br
ENDBRANCH  29  30
ENDBRANCH  14  28
TORSDOF 9
