REMARK  Name = ZINC24909801
REMARK  9 active torsions:
REMARK  status: ('A' for Active; 'I' for Inactive)
REMARK    1  A    between atoms: C_1  and  C_2
REMARK    2  A    between atoms: C_2  and  N_3
REMARK    3  A    between atoms: C_4  and  C_20
REMARK    4  A    between atoms: C_7  and  S_8
REMARK    5  A    between atoms: S_8  and  C_9
REMARK    6  A    between atoms: C_9  and  C_10
REMARK    7  A    between atoms: N_16  and  C_17
REMARK    8  A    between atoms: N_16  and  C_18
REMARK    9  A    between atoms: C_22  and  C_30
REMARK                            x       y       z     vdW  Elec       q    Type
REMARK                         _______ _______ _______ _____ _____    ______ ____
ROOT
ATOM      1  N   UNL     1      -5.027   3.781   0.166  0.00  0.00    -0.302 N 
ATOM      2  C   UNL     1      -3.804   3.200  -0.088  0.00  0.00    +0.166 A 
ATOM      3  N   UNL     1      -3.996   1.900  -0.133  0.00  0.00    -0.128 NA
ATOM      4  N   UNL     1      -5.235   1.633   0.081  0.00  0.00    -0.122 NA
ATOM      5  C   UNL     1      -5.912   2.747   0.267  0.00  0.00    +0.192 A 
ENDROOT
BRANCH   2   6
ATOM      6  C   UNL     1      -2.523   3.903  -0.280  0.00  0.00    +0.030 A 
ATOM      7  C   UNL     1      -2.100   4.891   0.604  0.00  0.00    +0.040 A 
ATOM      8  C   UNL     1      -0.877   5.532   0.384  0.00  0.00    +0.072 A 
ATOM      9  N   UNL     1      -0.100   5.236  -0.640  0.00  0.00    -0.247 NA
ATOM     10  C   UNL     1      -0.426   4.303  -1.538  0.00  0.00    +0.072 A 
ATOM     11  C   UNL     1      -1.644   3.591  -1.409  0.00  0.00    +0.011 A 
ATOM     12  C   UNL     1      -1.985   2.618  -2.353  0.00  0.00    +0.011 A 
ATOM     13  C   UNL     1      -1.134   2.354  -3.387  0.00  0.00    +0.001 A 
ATOM     14  C   UNL     1       0.064   3.051  -3.519  0.00  0.00    +0.002 A 
ATOM     15  C   UNL     1       0.423   4.008  -2.620  0.00  0.00    +0.028 A 
BRANCH   8  16
ATOM     16  C   UNL     1      -0.439   6.582   1.334  0.00  0.00    +0.000 A 
ATOM     17  C   UNL     1      -1.241   6.921   2.422  0.00  0.00    +0.010 A 
ATOM     18  C   UNL     1      -0.826   7.896   3.306  0.00  0.00    +0.001 A 
ATOM     19  C   UNL     1       0.380   8.544   3.108  0.00  0.00    +0.000 A 
ATOM     20  C   UNL     1       1.178   8.216   2.028  0.00  0.00    +0.001 A 
ATOM     21  C   UNL     1       0.775   7.239   1.140  0.00  0.00    +0.010 A 
ENDBRANCH   8  16
ENDBRANCH   2   6
BRANCH   1  23
ATOM     22  C   UNL     1      -5.612   5.803  -1.079  0.00  0.00    +0.027 C 
ATOM     23  C   UNL     1      -5.316   5.210   0.300  0.00  0.00    +0.122 C 
ENDBRANCH   1  23
BRANCH   5  24
ATOM     24  S   UNL     1      -7.640   2.879   0.586  0.00  0.00    -0.078 S 
BRANCH  24  25
ATOM     25  C   UNL     1      -8.097   1.128   0.568  0.00  0.00    +0.153 C 
BRANCH  25  26
ATOM     26  C   UNL     1      -9.575   0.992   0.827  0.00  0.00    +0.146 A 
ATOM     27  N   UNL     1     -10.018   0.863   2.066  0.00  0.00    -0.199 NA
ATOM     28  C   UNL     1     -11.324   0.748   2.299  0.00  0.00    +0.217 A 
ATOM     29  N   UNL     1     -12.181   0.752   1.283  0.00  0.00    -0.181 NA
ATOM     30  C   UNL     1     -11.731   0.877   0.040  0.00  0.00    +0.222 A 
ATOM     31  N   UNL     1     -10.425   0.997  -0.185  0.00  0.00    -0.198 NA
ATOM     32  N   UNL     1     -12.618   0.882  -1.018  0.00  0.00    -0.306 N 
ATOM     33  C   UNL     1     -12.121   1.020  -2.389  0.00  0.00    +0.132 C 
ATOM     34  C   UNL     1     -14.055   0.750  -0.770  0.00  0.00    +0.132 C 
ATOM     35  N   UNL     1     -11.786   0.618   3.592  0.00  0.00    -0.327 N 
ATOM     36  H   UNL     1     -12.865   0.523   3.784  0.00  0.00    +0.145 HD
ATOM     37  H   UNL     1     -11.075   0.611   4.432  0.00  0.00    +0.145 HD
ENDBRANCH  25  26
ENDBRANCH  24  25
ENDBRANCH   5  24
TORSDOF 6
