REMARK  Name = ZINC38691084
REMARK  9 active torsions:
REMARK  status: ('A' for Active; 'I' for Inactive)
REMARK    1  A    between atoms: C_1  and  C_2
REMARK    2  A    between atoms: C_2  and  C_4
REMARK    3  A    between atoms: C_2  and  N_23
REMARK    4  A    between atoms: N_6  and  C_7
REMARK    5  A    between atoms: C_11  and  C_13
REMARK    6  A    between atoms: C_13  and  O_15
REMARK    7  A    between atoms: O_15  and  C_16
REMARK    8  A    between atoms: C_20  and  O_21
REMARK    9  A    between atoms: O_21  and  C_22
REMARK                            x       y       z     vdW  Elec       q    Type
REMARK                         _______ _______ _______ _____ _____    ______ ____
ROOT
ATOM      1  C   UNL     1       0.550   0.433  -1.918  0.00  0.00    +0.203 C 
ATOM      2  O   UNL     1       1.417  -0.272  -1.447  0.00  0.00    -0.277 OA
ATOM      3  N   UNL     1       0.380   0.491  -3.253  0.00  0.00    -0.287 N 
ATOM      4  H   UNL     1      -0.272   1.100  -3.634  0.00  0.00    +0.155 HD
ENDROOT
BRANCH   3   5
ATOM      5  C   UNL     1       1.126  -0.305  -4.070  0.00  0.00    +0.056 C 
ATOM      6  C   UNL     1       0.981  -0.468  -5.433  0.00  0.00    +0.059 A 
ATOM      7  C   UNL     1       1.998  -1.422  -5.910  0.00  0.00    +0.048 A 
ATOM      8  N   UNL     1       2.743  -1.839  -4.904  0.00  0.00    -0.367 N 
ATOM      9  C   UNL     1       2.287  -1.190  -3.671  0.00  0.00    +0.234 C 
ATOM     10  C   UNL     1       2.025  -1.732  -7.291  0.00  0.00    +0.026 A 
ATOM     11  C   UNL     1       1.137  -1.162  -8.143  0.00  0.00    +0.006 A 
ATOM     12  C   UNL     1       0.166  -0.258  -7.721  0.00  0.00    +0.046 A 
ATOM     13  C   UNL     1       0.055   0.108  -6.409  0.00  0.00    +0.131 A 
ATOM     14  H   UNL     1       3.477  -2.470  -4.971  0.00  0.00    +0.161 HD
BRANCH   9  15
ATOM     15  C   UNL     1       3.394  -0.356  -3.079  0.00  0.00    +0.335 C 
ATOM     16  O   UNL     1       4.089   0.323  -3.797  0.00  0.00    -0.248 OA
BRANCH  15  17
ATOM     17  O   UNL     1       3.608  -0.369  -1.754  0.00  0.00    -0.466 OA
ATOM     18  C   UNL     1       4.675   0.445  -1.262  0.00  0.00    +0.280 C 
ENDBRANCH  15  17
ENDBRANCH   9  15
BRANCH  13  19
ATOM     19  O   UNL     1      -0.897   0.990  -6.019  0.00  0.00    -0.494 OA
ATOM     20  C   UNL     1      -1.833   1.417  -7.011  0.00  0.00    +0.277 C 
ENDBRANCH  13  19
ENDBRANCH   3   5
BRANCH   1  22
ATOM     21  C   UNL     1       0.254   2.644  -0.835  0.00  0.00    -0.004 C 
ATOM     22  C   UNL     1      -0.338   1.244  -1.010  0.00  0.00    +0.017 C 
BRANCH  22  23
ATOM     23  N   UNL     1      -0.432   0.585   0.300  0.00  0.00    +0.390 N 
ATOM     24  C   UNL     1      -1.022  -0.752   0.136  0.00  0.00    -0.073 C 
ATOM     25  C   UNL     1      -0.830  -1.532   1.438  0.00  0.00    +0.017 C 
ATOM     26  C   UNL     1      -1.315  -0.708   2.603  0.00  0.00    -0.048 A 
ATOM     27  C   UNL     1      -1.554  -1.341   3.812  0.00  0.00    +0.004 A 
ATOM     28  C   UNL     1      -1.996  -0.618   4.902  0.00  0.00    +0.000 A 
ATOM     29  C   UNL     1      -2.201   0.744   4.786  0.00  0.00    +0.000 A 
ATOM     30  C   UNL     1      -1.966   1.375   3.581  0.00  0.00    +0.002 A 
ATOM     31  C   UNL     1      -1.523   0.650   2.485  0.00  0.00    -0.061 A 
ATOM     32  C   UNL     1      -1.287   1.378   1.188  0.00  0.00    -0.042 C 
ATOM     33  H   UNL     1       0.489   0.503   0.703  0.00  0.00    -0.080 HD
ENDBRANCH  22  23
ENDBRANCH   1  22
TORSDOF 6
