REMARK  Name = ZINC13064759
REMARK  19 active torsions:
REMARK  status: ('A' for Active; 'I' for Inactive)
REMARK    1  A    between atoms: C_1  and  C_2
REMARK    2  A    between atoms: C_2  and  C_3
REMARK    3  A    between atoms: C_3  and  C_5
REMARK    4  A    between atoms: C_3  and  N_77
REMARK    5  A    between atoms: N_9  and  C_10
REMARK    6  A    between atoms: C_10  and  C_11
REMARK    7  A    between atoms: C_11  and  O_12
REMARK    8  A    between atoms: O_12  and  C_13
REMARK    9  A    between atoms: C_14  and  C_15
REMARK   10  A    between atoms: C_14  and  N_77
REMARK   11  A    between atoms: C_15  and  C_16
REMARK   12  A    between atoms: C_19  and  O_24
REMARK   13  A    between atoms: C_20  and  O_22
REMARK   14  A    between atoms: O_22  and  C_23
REMARK   15  A    between atoms: O_24  and  C_25
REMARK   16  A    between atoms: C_26  and  C_27
REMARK   17  A    between atoms: C_26  and  N_77
REMARK   18  A    between atoms: C_31  and  C_40
REMARK   19  A    between atoms: C_32  and  C_39
REMARK                            x       y       z     vdW  Elec       q    Type
REMARK                         _______ _______ _______ _____ _____    ______ ____
ROOT
ATOM      1  N   UNL     1      -5.378   4.330  -1.724  0.00  0.00    +0.389 N 
ATOM      2  H   UNL     1      -4.738   4.682  -2.446  0.00  0.00    -0.080 HD
ENDROOT
BRANCH   1   3
ATOM      3  C   UNL     1      -5.694   2.915  -2.011  0.00  0.00    +0.003 C 
BRANCH   3   4
ATOM      4  C   UNL     1      -5.552   2.683  -3.494  0.00  0.00    +0.138 A 
ATOM      5  N   UNL     1      -5.842   3.532  -4.449  0.00  0.00    -0.115 NA
ATOM      6  N   UNL     1      -5.582   2.965  -5.577  0.00  0.00    -0.023 NA
ATOM      7  N   UNL     1      -5.141   1.774  -5.365  0.00  0.00    -0.044 NA
ATOM      8  N   UNL     1      -5.108   1.563  -4.093  0.00  0.00    -0.229 N 
BRANCH   8   9
ATOM      9  C   UNL     1      -4.670   0.334  -3.426  0.00  0.00    +0.175 C 
BRANCH   9  10
ATOM     10  C   UNL     1      -5.837  -0.653  -3.358  0.00  0.00    +0.183 C 
BRANCH  10  11
ATOM     11  O   UNL     1      -5.410  -1.851  -2.708  0.00  0.00    -0.381 OA
ATOM     12  C   UNL     1      -6.430  -2.845  -2.592  0.00  0.00    +0.194 C 
ENDBRANCH  10  11
ENDBRANCH   9  10
ENDBRANCH   8   9
ENDBRANCH   3   4
BRANCH   3  14
ATOM     13  C   UNL     1      -7.225   2.655  -0.054  0.00  0.00    +0.002 C 
ATOM     14  C   UNL     1      -7.125   2.590  -1.579  0.00  0.00    -0.011 C 
ENDBRANCH   3  14
ENDBRANCH   1   3
BRANCH   1  15
ATOM     15  C   UNL     1      -6.616   5.138  -1.746  0.00  0.00    -0.073 C 
BRANCH  15  16
ATOM     16  C   UNL     1      -7.102   5.256  -3.192  0.00  0.00    +0.017 C 
BRANCH  16  17
ATOM     17  C   UNL     1      -8.264   6.214  -3.254  0.00  0.00    -0.045 A 
ATOM     18  C   UNL     1      -9.555   5.742  -3.108  0.00  0.00    +0.007 A 
ATOM     19  C   UNL     1     -10.624   6.616  -3.159  0.00  0.00    +0.049 A 
ATOM     20  C   UNL     1     -10.404   7.968  -3.368  0.00  0.00    +0.161 A 
ATOM     21  C   UNL     1      -9.104   8.443  -3.521  0.00  0.00    +0.162 A 
ATOM     22  C   UNL     1      -8.037   7.561  -3.463  0.00  0.00    +0.053 A 
BRANCH  21  23
ATOM     23  O   UNL     1      -8.883   9.769  -3.725  0.00  0.00    -0.491 OA
ATOM     24  C   UNL     1      -7.524  10.184  -3.873  0.00  0.00    +0.277 C 
ENDBRANCH  21  23
BRANCH  20  25
ATOM     25  O   UNL     1     -11.455   8.830  -3.424  0.00  0.00    -0.491 OA
ATOM     26  C   UNL     1     -12.760   8.272  -3.259  0.00  0.00    +0.277 C 
ENDBRANCH  20  25
ENDBRANCH  16  17
ENDBRANCH  15  16
ENDBRANCH   1  15
BRANCH   1  27
ATOM     27  C   UNL     1      -4.723   4.444  -0.404  0.00  0.00    -0.037 C 
BRANCH  27  28
ATOM     28  C   UNL     1      -3.268   4.083  -0.555  0.00  0.00    +0.001 A 
ATOM     29  C   UNL     1      -2.355   5.051  -0.813  0.00  0.00    +0.017 A 
ATOM     30  C   UNL     1      -0.950   4.666  -0.960  0.00  0.00    -0.001 A 
ATOM     31  C   UNL     1       0.035   5.618  -1.244  0.00  0.00    +0.013 A 
ATOM     32  C   UNL     1       1.337   5.227  -1.376  0.00  0.00    -0.047 A 
ATOM     33  C   UNL     1       1.692   3.892  -1.230  0.00  0.00    -0.046 A 
ATOM     34  C   UNL     1       0.738   2.938  -0.950  0.00  0.00    +0.030 A 
ATOM     35  C   UNL     1      -0.595   3.312  -0.817  0.00  0.00    +0.049 A 
ATOM     36  N   UNL     1      -1.571   2.377  -0.543  0.00  0.00    -0.322 N 
ATOM     37  H   UNL     1      -1.324   1.444  -0.441  0.00  0.00    +0.169 HD
ATOM     38  C   UNL     1      -2.859   2.739  -0.416  0.00  0.00    +0.251 A 
ATOM     39  O   UNL     1      -3.695   1.886  -0.174  0.00  0.00    -0.268 OA
ATOM     40  C   UNL     1       3.135   3.484  -1.379  0.00  0.00    +0.044 C 
ATOM     41  C   UNL     1       2.398   6.252  -1.681  0.00  0.00    +0.044 C 
ENDBRANCH  27  28
ENDBRANCH   1  27
TORSDOF 13
