REMARK  Name = ZINC22797603
REMARK  4 active torsions:
REMARK  status: ('A' for Active; 'I' for Inactive)
REMARK    1  A    between atoms: C_1  and  C_2
REMARK    2  A    between atoms: C_15  and  C_17
REMARK    3  A    between atoms: C_17  and  N_18
REMARK    4  A    between atoms: N_18  and  C_19
REMARK                            x       y       z     vdW  Elec       q    Type
REMARK                         _______ _______ _______ _____ _____    ______ ____
ROOT
ATOM      1  C   UNL     1       0.404   4.094  -2.278  0.00  0.00    +0.029 C 
ATOM      2  C   UNL     1       1.567   4.152  -1.286  0.00  0.00    +0.087 C 
ATOM      3  C   UNL     1       2.785   3.453  -1.890  0.00  0.00    +0.118 C 
ATOM      4  C   UNL     1       3.793   3.146  -0.814  0.00  0.00    +0.219 C 
ATOM      5  O   UNL     1       4.796   3.821  -0.717  0.00  0.00    -0.275 OA
ATOM      6  N   UNL     1       3.586   2.124   0.044  0.00  0.00    -0.284 N 
ATOM      7  C   UNL     1       2.390   1.397   0.008  0.00  0.00    +0.055 A 
ATOM      8  C   UNL     1       2.400   0.012  -0.005  0.00  0.00    +0.025 A 
ATOM      9  C   UNL     1       1.206  -0.685  -0.011  0.00  0.00    +0.002 A 
ATOM     10  C   UNL     1       0.002  -0.004   0.002  0.00  0.00    +0.002 A 
ATOM     11  C   UNL     1      -0.017   1.379   0.010  0.00  0.00    +0.025 A 
ATOM     12  C   UNL     1       1.175   2.084   0.002  0.00  0.00    +0.058 A 
ATOM     13  N   UNL     1       1.177   3.486  -0.042  0.00  0.00    -0.265 N 
ATOM     14  C   UNL     1       0.826   4.206   1.041  0.00  0.00    +0.237 C 
ATOM     15  O   UNL     1       0.831   5.418   0.991  0.00  0.00    -0.274 OA
ATOM     16  H   UNL     1       4.360   1.857   0.779  0.00  0.00    +0.155 HD
ENDROOT
BRANCH  14  17
ATOM     17  C   UNL     1       0.427   3.506   2.315  0.00  0.00    +0.198 C 
BRANCH  17  18
ATOM     18  N   UNL     1       0.093   4.503   3.336  0.00  0.00    -0.334 N 
ATOM     19  H   UNL     1       0.158   5.575   3.099  0.00  0.00    +0.147 HD
BRANCH  18  20
ATOM     20  C   UNL     1      -0.309   4.090   4.611  0.00  0.00    +0.045 A 
ATOM     21  C   UNL     1      -0.392   2.738   4.910  0.00  0.00    +0.073 A 
ATOM     22  C   UNL     1      -0.790   2.329   6.174  0.00  0.00    +0.164 A 
ATOM     23  C   UNL     1      -1.104   3.276   7.141  0.00  0.00    +0.163 A 
ATOM     24  C   UNL     1      -1.022   4.627   6.840  0.00  0.00    +0.066 A 
ATOM     25  C   UNL     1      -0.620   5.035   5.581  0.00  0.00    +0.042 A 
ATOM     26 BR   UNL     1      -0.502   6.878   5.178  0.00  0.00    -0.048 Br
ATOM     27  O   UNL     1      -1.493   2.894   8.389  0.00  0.00    -0.485 OA
ATOM     28  C   UNL     1      -1.925   1.537   8.541  0.00  0.00    +0.270 C 
ATOM     29  C   UNL     1      -0.912   0.629   7.832  0.00  0.00    +0.270 C 
ATOM     30  O   UNL     1      -0.870   0.998   6.449  0.00  0.00    -0.485 OA
ENDBRANCH  18  20
ENDBRANCH  17  18
ENDBRANCH  14  17
TORSDOF 3
