REMARK  Name = ZINC21811834
REMARK  8 active torsions:
REMARK  status: ('A' for Active; 'I' for Inactive)
REMARK    1  A    between atoms: C_1  and  C_2
REMARK    2  A    between atoms: C_2  and  O_3
REMARK    3  A    between atoms: O_3  and  C_4
REMARK    4  A    between atoms: C_7  and  N_10
REMARK    5  A    between atoms: C_19  and  C_20
REMARK    6  A    between atoms: C_19  and  C_21
REMARK    7  A    between atoms: N_23  and  C_24
REMARK    8  A    between atoms: C_32  and  C_34
REMARK                            x       y       z     vdW  Elec       q    Type
REMARK                         _______ _______ _______ _____ _____    ______ ____
ROOT
ATOM      1  N   UNL     1      -0.836   7.348   2.305  0.00  0.00    -0.250 N 
ATOM      2  C   UNL     1      -1.266   7.664   3.549  0.00  0.00    +0.268 C 
ATOM      3  O   UNL     1      -1.181   6.879   4.476  0.00  0.00    -0.268 OA
ATOM      4  C   UNL     1      -1.837   9.004   3.723  0.00  0.00    +0.109 A 
ATOM      5  C   UNL     1      -2.177   9.684   4.855  0.00  0.00    +0.079 A 
ATOM      6  C   UNL     1      -2.661  10.941   4.462  0.00  0.00    +0.154 A 
ATOM      7  C   UNL     1      -2.608  10.996   3.069  0.00  0.00    +0.088 A 
ATOM      8  N   UNL     1      -2.113   9.809   2.621  0.00  0.00    -0.331 N 
ATOM      9  C   UNL     1      -1.875   9.344   1.251  0.00  0.00    +0.158 C 
ATOM     10  C   UNL     1      -0.715   8.350   1.253  0.00  0.00    +0.133 C 
ATOM     11  C   UNL     1       0.594   9.117   1.450  0.00  0.00    +0.044 C 
ATOM     12  C   UNL     1      -3.096  12.275   2.708  0.00  0.00    +0.071 A 
ATOM     13  C   UNL     1      -3.415  12.916   3.846  0.00  0.00    +0.105 A 
ATOM     14  O   UNL     1      -3.158  12.119   4.896  0.00  0.00    -0.458 OA
ATOM     15  C   UNL     1      -3.975  14.313   3.930  0.00  0.00    +0.086 C 
ENDROOT
BRANCH   1  19
ATOM     16  C   UNL     1       0.154   3.389   1.452  0.00  0.00    +0.121 A 
ATOM     17  C   UNL     1       1.116   4.383   1.345  0.00  0.00    +0.047 A 
ATOM     18  C   UNL     1       0.788   5.695   1.623  0.00  0.00    +0.027 A 
ATOM     19  C   UNL     1      -0.503   6.018   2.019  0.00  0.00    +0.038 A 
ATOM     20  C   UNL     1      -1.464   5.022   2.131  0.00  0.00    +0.027 A 
ATOM     21  C   UNL     1      -1.136   3.711   1.848  0.00  0.00    +0.047 A 
BRANCH  16  22
ATOM     22  O   UNL     1       0.477   2.098   1.174  0.00  0.00    -0.492 OA
BRANCH  22  24
ATOM     23  C   UNL     1       2.040   0.310   0.722  0.00  0.00    +0.048 C 
ATOM     24  C   UNL     1       1.850   1.819   0.888  0.00  0.00    +0.225 C 
ENDBRANCH  22  24
ENDBRANCH  16  22
ENDBRANCH   1  19
BRANCH  10  25
ATOM     25  C   UNL     1      -0.670   7.651  -0.082  0.00  0.00    +0.239 C 
ATOM     26  O   UNL     1       0.112   8.019  -0.933  0.00  0.00    -0.273 OA
ATOM     27  N   UNL     1      -1.499   6.618  -0.330  0.00  0.00    -0.311 N 
ATOM     28  H   UNL     1      -2.262   6.335   0.410  0.00  0.00    +0.149 HD
BRANCH  27  29
ATOM     29  C   UNL     1      -1.383   5.870  -1.585  0.00  0.00    +0.073 C 
ATOM     30  C   UNL     1      -2.061   6.677  -2.711  0.00  0.00    +0.022 C 
ATOM     31  C   UNL     1      -1.518   6.202  -4.032  0.00  0.00    +0.002 C 
ATOM     32  C   UNL     1      -2.401   5.114  -4.673  0.00  0.00    +0.000 C 
ATOM     33  C   UNL     1      -2.909   4.078  -3.651  0.00  0.00    +0.000 C 
ATOM     34  C   UNL     1      -1.846   3.674  -2.665  0.00  0.00    +0.002 C 
ATOM     35  C   UNL     1      -1.983   4.556  -1.408  0.00  0.00    +0.022 C 
ENDBRANCH  27  29
ENDBRANCH  10  25
TORSDOF 5
