REMARK  Name = ZINC08382707
REMARK  6 active torsions:
REMARK  status: ('A' for Active; 'I' for Inactive)
REMARK    1  A    between atoms: C_1  and  C_2
REMARK    2  A    between atoms: C_2  and  C_3
REMARK    3  A    between atoms: C_2  and  C_4
REMARK    4  A    between atoms: C_11  and  N_27
REMARK    5  A    between atoms: C_12  and  C_25
REMARK    6  A    between atoms: C_13  and  C_15
REMARK                            x       y       z     vdW  Elec       q    Type
REMARK                         _______ _______ _______ _____ _____    ______ ____
ROOT
ATOM      1  C   UNL     1      -1.412  -0.526   0.013  0.00  0.00    +0.046 A 
ATOM      2  C   UNL     1      -1.974  -1.307  -0.921  0.00  0.00    +0.049 A 
ATOM      3  C   UNL     1      -3.306  -1.568  -0.530  0.00  0.00    +0.245 A 
ATOM      4  N   UNL     1      -3.522  -0.958   0.599  0.00  0.00    -0.135 NA
ATOM      5  N   UNL     1      -2.341  -0.295   0.969  0.00  0.00    -0.278 N 
ATOM      6  H   UNL     1      -2.214   0.237   1.770  0.00  0.00    +0.189 HD
ATOM      7  O   UNL     1      -4.139  -2.342  -1.278  0.00  0.00    -0.421 OA
ATOM      8  C   UNL     1      -3.585  -3.075  -2.264  0.00  0.00    +0.201 C 
ATOM      9  C   UNL     1      -2.330  -2.909  -2.729  0.00  0.00    +0.098 C 
ATOM     10  C   UNL     1      -1.386  -1.862  -2.193  0.00  0.00    +0.103 C 
ENDROOT
BRANCH  10  11
ATOM     11  C   UNL     1      -1.226  -0.756  -3.204  0.00  0.00    -0.013 A 
ATOM     12  C   UNL     1      -2.332  -0.044  -3.629  0.00  0.00    +0.055 A 
ATOM     13  C   UNL     1      -2.187   0.973  -4.558  0.00  0.00    +0.167 A 
ATOM     14  C   UNL     1      -0.924   1.276  -5.063  0.00  0.00    +0.168 A 
ATOM     15  C   UNL     1       0.180   0.559  -4.633  0.00  0.00    +0.069 A 
ATOM     16  C   UNL     1       0.029  -0.453  -3.701  0.00  0.00    +0.049 A 
ATOM     17 CL   UNL     1       1.415  -1.345  -3.159  0.00  0.00    -0.083 Cl
ATOM     18  O   UNL     1      -1.046   2.304  -5.953  0.00  0.00    -0.453 OA
ATOM     19  C   UNL     1      -2.444   2.355  -6.293  0.00  0.00    +0.466 C 
ATOM     20  O   UNL     1      -3.099   1.812  -5.132  0.00  0.00    -0.453 OA
ENDBRANCH  10  11
BRANCH   1  22
ATOM     21  C   UNL     1      -0.019   1.526   0.010  0.00  0.00    +0.014 C 
ATOM     22  C   UNL     1       0.002  -0.004   0.002  0.00  0.00    +0.031 C 
ATOM     23  C   UNL     1       0.742  -0.511   1.242  0.00  0.00    +0.014 C 
ENDBRANCH   1  22
BRANCH   8  24
ATOM     24  N   UNL     1      -4.353  -4.061  -2.834  0.00  0.00    -0.328 N 
ATOM     25  H   UNL     1      -5.260  -4.209  -2.525  0.00  0.00    +0.145 HD
ATOM     26  H   UNL     1      -3.987  -4.608  -3.547  0.00  0.00    +0.145 HD
ENDBRANCH   8  24
BRANCH   9  27
ATOM     27  C   UNL     1      -1.872  -3.767  -3.780  0.00  0.00    +0.101 C 
ATOM     28  N   UNL     1      -1.508  -4.448  -4.614  0.00  0.00    -0.191 NA
ENDBRANCH   9  27
TORSDOF 4
