REMARK  Name = ZINC20764660
REMARK  8 active torsions:
REMARK  status: ('A' for Active; 'I' for Inactive)
REMARK    1  A    between atoms: C_1  and  C_2
REMARK    2  A    between atoms: C_2  and  O_3
REMARK    3  A    between atoms: O_3  and  C_4
REMARK    4  A    between atoms: C_8  and  C_11
REMARK    5  A    between atoms: C_9  and  O_10
REMARK    6  A    between atoms: C_14  and  C_26
REMARK    7  A    between atoms: C_16  and  C_19
REMARK    8  A    between atoms: C_29  and  C_32
REMARK                            x       y       z     vdW  Elec       q    Type
REMARK                         _______ _______ _______ _____ _____    ______ ____
ROOT
ATOM      1  C   UNL     1      -4.946   0.857  -0.361  0.00  0.00    +0.095 C 
ATOM      2  C   UNL     1      -3.790   1.783   0.030  0.00  0.00    +0.079 C 
ATOM      3  C   UNL     1      -2.502   1.009   0.019  0.00  0.00    +0.047 C 
ATOM      4  N   UNL     1      -2.455  -0.270   0.007  0.00  0.00    -0.264 NA
ATOM      5  C   UNL     1      -3.630  -1.132   0.002  0.00  0.00    +0.206 C 
ATOM      6  N   UNL     1      -4.823  -0.386   0.420  0.00  0.00    -0.284 NA
ATOM      7  H   UNL     1      -4.738  -0.141   1.489  0.00  0.00    +0.125 HD
ENDROOT
BRANCH   5   8
ATOM      8  C   UNL     1      -3.408  -2.284   0.947  0.00  0.00    +0.026 A 
ATOM      9  C   UNL     1      -2.122  -2.677   1.268  0.00  0.00    +0.010 A 
ATOM     10  C   UNL     1      -1.918  -3.734   2.135  0.00  0.00    +0.001 A 
ATOM     11  C   UNL     1      -2.999  -4.398   2.684  0.00  0.00    +0.003 A 
ATOM     12  C   UNL     1      -4.285  -4.007   2.365  0.00  0.00    +0.039 A 
ATOM     13  C   UNL     1      -4.491  -2.946   1.500  0.00  0.00    +0.130 A 
ATOM     14  F   UNL     1      -5.748  -2.558   1.191  0.00  0.00    -0.205 F 
ENDBRANCH   5   8
BRANCH   3  15
ATOM     15  C   UNL     1      -1.230   1.759   0.017  0.00  0.00    -0.004 A 
ATOM     16  C   UNL     1      -0.013   1.076   0.008  0.00  0.00    +0.010 A 
ATOM     17  C   UNL     1       1.172   1.783   0.000  0.00  0.00    +0.004 A 
ATOM     18  C   UNL     1       1.155   3.167   0.008  0.00  0.00    -0.050 A 
ATOM     19  C   UNL     1      -0.048   3.850   0.022  0.00  0.00    +0.004 A 
ATOM     20  C   UNL     1      -1.240   3.155   0.030  0.00  0.00    +0.010 A 
ATOM     21  C   UNL     1       2.452   3.933  -0.001  0.00  0.00    +0.044 C 
ENDBRANCH   3  15
BRANCH   1  26
ATOM     22  C   UNL     1      -8.042   3.011  -0.678  0.00  0.00    +0.162 A 
ATOM     23  C   UNL     1      -8.678   2.751   0.525  0.00  0.00    +0.049 A 
ATOM     24  C   UNL     1      -8.107   1.881   1.435  0.00  0.00    +0.004 A 
ATOM     25  C   UNL     1      -6.903   1.266   1.145  0.00  0.00    +0.009 A 
ATOM     26  C   UNL     1      -6.261   1.525  -0.051  0.00  0.00    +0.015 A 
ATOM     27  C   UNL     1      -6.828   2.396  -0.967  0.00  0.00    +0.163 A 
BRANCH  27  28
ATOM     28  O   UNL     1      -6.200   2.649  -2.147  0.00  0.00    -0.503 OA
ATOM     29  H   UNL     1      -5.240   2.162  -2.374  0.00  0.00    +0.292 HD
ENDBRANCH  27  28
BRANCH  22  30
ATOM     30  O   UNL     1      -8.603   3.866  -1.575  0.00  0.00    -0.489 OA
BRANCH  30  32
ATOM     31  C   UNL     1     -10.322   5.385  -2.335  0.00  0.00    +0.048 C 
ATOM     32  C   UNL     1      -9.851   4.461  -1.210  0.00  0.00    +0.226 C 
ENDBRANCH  30  32
ENDBRANCH  22  30
ENDBRANCH   1  26
TORSDOF 6
