REMARK  Name = ZINC16071312
REMARK  11 active torsions:
REMARK  status: ('A' for Active; 'I' for Inactive)
REMARK    1  A    between atoms: C_1  and  C_2
REMARK    2  A    between atoms: C_2  and  O_3
REMARK    3  A    between atoms: O_3  and  C_4
REMARK    4  A    between atoms: C_5  and  O_31
REMARK    5  A    between atoms: C_7  and  C_11
REMARK    6  A    between atoms: N_13  and  N_14
REMARK    7  A    between atoms: C_15  and  C_17
REMARK    8  A    between atoms: C_17  and  C_19
REMARK    9  A    between atoms: C_17  and  O_20
REMARK   10  A    between atoms: O_20  and  C_21
REMARK   11  A    between atoms: O_31  and  C_32
REMARK                            x       y       z     vdW  Elec       q    Type
REMARK                         _______ _______ _______ _____ _____    ______ ____
ROOT
ATOM      1  N   UNL     1      -0.060   5.628  -0.260  0.00  0.00    -0.231 N 
ATOM      2  C   UNL     1      -1.224   6.304  -0.205  0.00  0.00    +0.270 C 
ATOM      3  O   UNL     1      -2.274   5.720  -0.369  0.00  0.00    -0.270 OA
ATOM      4  H   UNL     1       0.780   6.096  -0.129  0.00  0.00    +0.173 HD
ENDROOT
BRANCH   1   7
ATOM      5  C   UNL     1       1.102   3.572  -0.561  0.00  0.00    +0.260 C 
ATOM      6  O   UNL     1       2.155   4.158  -0.396  0.00  0.00    -0.269 OA
ATOM      7  N   UNL     1      -0.062   4.249  -0.506  0.00  0.00    -0.230 N 
ATOM      8  H   UNL     1      -0.901   3.781  -0.638  0.00  0.00    +0.173 HD
BRANCH   5  12
ATOM      9  C   UNL     1       1.091  -0.612  -1.310  0.00  0.00    +0.180 A 
ATOM     10  C   UNL     1       2.300   0.056  -1.121  0.00  0.00    +0.164 A 
ATOM     11  C   UNL     1       2.306   1.416  -0.877  0.00  0.00    +0.062 A 
ATOM     12  C   UNL     1       1.100   2.119  -0.821  0.00  0.00    +0.043 A 
ATOM     13  C   UNL     1      -0.108   1.444  -1.010  0.00  0.00    +0.037 A 
ATOM     14  C   UNL     1      -0.108   0.086  -1.253  0.00  0.00    +0.087 A 
ATOM     15 CL   UNL     1      -1.611  -0.751  -1.488  0.00  0.00    -0.080 Cl
BRANCH  10  16
ATOM     16  O   UNL     1       3.472  -0.631  -1.177  0.00  0.00    -0.491 OA
ATOM     17  C   UNL     1       4.673   0.118  -0.975  0.00  0.00    +0.277 C 
ENDBRANCH  10  16
BRANCH   9  18
ATOM     18  O   UNL     1       1.086  -1.949  -1.549  0.00  0.00    -0.487 OA
BRANCH  18  20
ATOM     19  C   UNL     1       1.138  -3.892  -2.985  0.00  0.00    +0.048 C 
ATOM     20  C   UNL     1       1.155  -2.364  -2.915  0.00  0.00    +0.226 C 
ENDBRANCH  18  20
ENDBRANCH   9  18
ENDBRANCH   5  12
ENDBRANCH   1   7
BRANCH   2  21
ATOM     21  C   UNL     1      -1.221   7.788   0.060  0.00  0.00    +0.257 C 
ATOM     22  C   UNL     1      -0.539   8.512  -1.102  0.00  0.00    +0.062 C 
BRANCH  21  23
ATOM     23  O   UNL     1      -2.567   8.252   0.186  0.00  0.00    -0.480 OA
BRANCH  23  24
ATOM     24  C   UNL     1      -2.764   9.386   0.907  0.00  0.00    +0.122 A 
ATOM     25  C   UNL     1      -1.661  10.099   1.387  0.00  0.00    +0.046 A 
ATOM     26  C   UNL     1      -1.825  11.238   2.111  0.00  0.00    +0.012 A 
ATOM     27  C   UNL     1      -3.122  11.709   2.384  0.00  0.00    -0.018 A 
ATOM     28  C   UNL     1      -3.328  12.883   3.130  0.00  0.00    +0.008 A 
ATOM     29  C   UNL     1      -4.597  13.310   3.375  0.00  0.00    +0.001 A 
ATOM     30  C   UNL     1      -5.698  12.602   2.897  0.00  0.00    +0.001 A 
ATOM     31  C   UNL     1      -5.537  11.462   2.172  0.00  0.00    +0.008 A 
ATOM     32  C   UNL     1      -4.242  10.989   1.899  0.00  0.00    -0.014 A 
ATOM     33  C   UNL     1      -4.037   9.819   1.149  0.00  0.00    +0.054 A 
ENDBRANCH  23  24
ENDBRANCH  21  23
ENDBRANCH   2  21
TORSDOF 8
