REMARK  Name = ZINC20703266
REMARK  7 active torsions:
REMARK  status: ('A' for Active; 'I' for Inactive)
REMARK    1  A    between atoms: C_1  and  C_2
REMARK    2  A    between atoms: N_5  and  S_8
REMARK    3  A    between atoms: S_8  and  C_11
REMARK    4  A    between atoms: C_24  and  C_27
REMARK    5  A    between atoms: C_30  and  O_33
REMARK    6  A    between atoms: O_33  and  C_34
REMARK    7  A    between atoms: C_34  and  C_35
REMARK                            x       y       z     vdW  Elec       q    Type
REMARK                         _______ _______ _______ _____ _____    ______ ____
ROOT
ATOM      1  C   UNL     1      -0.015  -2.780  -0.041  0.00  0.00    +0.106 A 
ATOM      2  C   UNL     1      -1.207  -2.080   0.004  0.00  0.00    +0.030 A 
ATOM      3  C   UNL     1      -1.200  -0.701   0.025  0.00  0.00    +0.025 A 
ATOM      4  C   UNL     1       0.002  -0.004   0.002  0.00  0.00    +0.031 A 
ATOM      5  C   UNL     1       1.205  -0.719  -0.030  0.00  0.00    -0.018 A 
ATOM      6  C   UNL     1       1.187  -2.097  -0.058  0.00  0.00    +0.034 A 
ATOM      7  C   UNL     1       2.462   0.059  -0.023  0.00  0.00    +0.049 C 
ATOM      8  C   UNL     1       3.720  -0.471  -0.606  0.00  0.00    -0.023 C 
ATOM      9  C   UNL     1       4.434   0.547  -1.071  0.00  0.00    -0.030 C 
ATOM     10  C   UNL     1       3.675   1.858  -0.859  0.00  0.00    +0.033 C 
ATOM     11  C   UNL     1       2.220   1.371  -0.828  0.00  0.00    +0.029 C 
ATOM     12  C   UNL     1       1.238   2.179   0.002  0.00  0.00    +0.105 C 
ATOM     13  N   UNL     1      -0.017   1.396   0.010  0.00  0.00    -0.336 N 
ATOM     14  H   UNL     1      -0.988   1.913   0.022  0.00  0.00    +0.147 HD
ENDROOT
BRANCH  12  15
ATOM     15  C   UNL     1       1.006   3.527  -0.632  0.00  0.00    -0.027 A 
ATOM     16  C   UNL     1       0.202   3.634  -1.752  0.00  0.00    +0.009 A 
ATOM     17  C   UNL     1      -0.016   4.869  -2.331  0.00  0.00    +0.046 A 
ATOM     18  C   UNL     1       0.581   6.000  -1.795  0.00  0.00    +0.121 A 
ATOM     19  C   UNL     1       1.392   5.889  -0.675  0.00  0.00    +0.046 A 
ATOM     20  C   UNL     1       1.603   4.653  -0.096  0.00  0.00    +0.009 A 
BRANCH  18  21
ATOM     21  O   UNL     1       0.372   7.216  -2.366  0.00  0.00    -0.487 OA
BRANCH  21  22
ATOM     22  C   UNL     1      -0.474   7.255  -3.517  0.00  0.00    +0.264 C 
BRANCH  22  23
ATOM     23  C   UNL     1      -0.588   8.675  -4.009  0.00  0.00    -0.010 A 
ATOM     24  C   UNL     1      -1.596   9.492  -3.533  0.00  0.00    +0.007 A 
ATOM     25  C   UNL     1      -1.698  10.796  -3.981  0.00  0.00    +0.000 A 
ATOM     26  C   UNL     1      -0.798  11.279  -4.911  0.00  0.00    +0.000 A 
ATOM     27  C   UNL     1       0.207  10.460  -5.391  0.00  0.00    +0.000 A 
ATOM     28  C   UNL     1       0.312   9.158  -4.940  0.00  0.00    +0.007 A 
ENDBRANCH  22  23
ENDBRANCH  21  22
ENDBRANCH  18  21
ENDBRANCH  12  15
BRANCH   1  29
ATOM     29  S   UNL     1      -0.028  -4.542  -0.076  0.00  0.00    +0.061 S 
ATOM     30  O   UNL     1      -1.290  -4.928  -0.602  0.00  0.00    -0.153 OA
ATOM     31  O   UNL     1       1.200  -4.945  -0.667  0.00  0.00    -0.153 OA
BRANCH  29  36
ATOM     32  C   UNL     1       0.124  -4.104   5.639  0.00  0.00    +0.007 C 
ATOM     33  C   UNL     1       0.084  -4.871   4.316  0.00  0.00    -0.012 C 
ATOM     34  C   UNL     1      -1.184  -4.494   3.546  0.00  0.00    +0.020 C 
ATOM     35  C   UNL     1      -1.238  -5.290   2.238  0.00  0.00    +0.110 C 
ATOM     36  N   UNL     1       0.009  -5.063   1.495  0.00  0.00    -0.177 NA
ATOM     37  C   UNL     1       1.290  -5.313   2.171  0.00  0.00    +0.110 C 
ATOM     38  C   UNL     1       1.315  -4.512   3.482  0.00  0.00    +0.020 C 
ENDBRANCH  29  36
ENDBRANCH   1  29
TORSDOF 6
