REMARK  Name = ZINC59294258
REMARK  6 active torsions:
REMARK  status: ('A' for Active; 'I' for Inactive)
REMARK    1  A    between atoms: C_4  and  C_7
REMARK    2  A    between atoms: C_10  and  C_12
REMARK    3  A    between atoms: C_13  and  C_14
REMARK    4  A    between atoms: N_16  and  C_17
REMARK    5  A    between atoms: C_17  and  N_19
REMARK    6  A    between atoms: N_19  and  C_20
REMARK                            x       y       z     vdW  Elec       q    Type
REMARK                         _______ _______ _______ _____ _____    ______ ____
ROOT
ATOM      1  C   UNL     1       9.187   0.715  -0.877  0.00  0.00    +0.242 C 
ATOM      2  O   UNL     1       9.961  -0.155  -1.231  0.00  0.00    -0.270 OA
ATOM      3  N   UNL     1       9.656   1.912  -0.474  0.00  0.00    -0.264 N 
ATOM      4  H   UNL     1       9.040   2.606  -0.193  0.00  0.00    +0.157 HD
ENDROOT
BRANCH   1   6
ATOM      5  C   UNL     1       7.321  -0.737  -1.295  0.00  0.00    +0.051 C 
ATOM      6  C   UNL     1       7.795   0.470  -0.889  0.00  0.00    +0.071 C 
BRANCH   5  10
ATOM      7  C   UNL     1       3.762  -0.683  -1.083  0.00  0.00    +0.136 A 
ATOM      8  C   UNL     1       3.941  -1.965  -1.552  0.00  0.00    +0.050 A 
ATOM      9  C   UNL     1       5.317  -2.159  -1.696  0.00  0.00    +0.050 A 
ATOM     10  C   UNL     1       5.929  -0.982  -1.308  0.00  0.00    +0.129 A 
ATOM     11  O   UNL     1       4.969  -0.105  -0.947  0.00  0.00    -0.455 OA
BRANCH   7  15
ATOM     12  C   UNL     1       0.027   1.145  -0.229  0.00  0.00    +0.000 A 
ATOM     13  C   UNL     1       1.200   1.856  -0.043  0.00  0.00    +0.001 A 
ATOM     14  C   UNL     1       2.417   1.268  -0.319  0.00  0.00    +0.011 A 
ATOM     15  C   UNL     1       2.464  -0.048  -0.786  0.00  0.00    +0.017 A 
ATOM     16  C   UNL     1       1.276  -0.759  -0.970  0.00  0.00    +0.011 A 
ATOM     17  C   UNL     1       0.066  -0.159  -0.691  0.00  0.00    +0.001 A 
ENDBRANCH   7  15
ENDBRANCH   5  10
ENDBRANCH   1   6
BRANCH   3  18
ATOM     18  C   UNL     1      10.984   2.146  -0.463  0.00  0.00    +0.141 C 
ATOM     19  S   UNL     1      12.073   0.922  -0.960  0.00  0.00    -0.018 S 
BRANCH  18  20
ATOM     20  N   UNL     1      11.454   3.343  -0.060  0.00  0.00    -0.297 N 
ATOM     21  H   UNL     1      10.836   4.057   0.163  0.00  0.00    +0.154 HD
BRANCH  20  22
ATOM     22  C   UNL     1      12.833   3.556   0.037  0.00  0.00    +0.034 A 
ATOM     23  C   UNL     1      13.675   3.142  -0.987  0.00  0.00    +0.023 A 
ATOM     24  C   UNL     1      15.036   3.353  -0.889  0.00  0.00    +0.003 A 
ATOM     25  C   UNL     1      15.562   3.978   0.228  0.00  0.00    +0.015 A 
ATOM     26  C   UNL     1      14.726   4.392   1.250  0.00  0.00    +0.020 A 
ATOM     27  C   UNL     1      13.362   4.188   1.154  0.00  0.00    +0.038 A 
ATOM     28 BR   UNL     1      15.450   5.243   2.775  0.00  0.00    -0.050 Br
ENDBRANCH  20  22
ENDBRANCH  18  20
ENDBRANCH   3  18
TORSDOF 6
