REMARK  Name = ZINC39243112
REMARK  7 active torsions:
REMARK  status: ('A' for Active; 'I' for Inactive)
REMARK    1  A    between atoms: C_1  and  C_2
REMARK    2  A    between atoms: C_8  and  C_11
REMARK    3  A    between atoms: C_11  and  C_12
REMARK    4  A    between atoms: C_12  and  N_13
REMARK    5  A    between atoms: C_14  and  C_16
REMARK    6  A    between atoms: C_21  and  C_30
REMARK    7  A    between atoms: C_23  and  C_26
REMARK                            x       y       z     vdW  Elec       q    Type
REMARK                         _______ _______ _______ _____ _____    ______ ____
ROOT
ATOM      1  C   UNL     1       4.623  -0.116  -7.496  0.00  0.00    +0.185 C 
ATOM      2  C   UNL     1       4.756   0.793  -8.697  0.00  0.00    +0.047 C 
ATOM      3  C   UNL     1       5.080   0.007  -9.745  0.00  0.00    +0.138 C 
ATOM      4  N   UNL     1       5.306   0.354 -11.037  0.00  0.00    -0.231 NA
ATOM      5  C   UNL     1       5.614  -0.555 -11.937  0.00  0.00    +0.075 C 
ATOM      6  C   UNL     1       5.716  -1.919 -11.568  0.00  0.00    +0.057 C 
ATOM      7  C   UNL     1       5.495  -2.280 -10.289  0.00  0.00    +0.133 C 
ATOM      8  N   UNL     1       5.173  -1.321  -9.357  0.00  0.00    -0.213 N 
ATOM      9  N   UNL     1       4.912  -1.464  -8.018  0.00  0.00    -0.218 NA
ATOM     10  H   UNL     1       5.696  -1.877  -7.537  0.00  0.00    +0.146 HD
ENDROOT
BRANCH   5  11
ATOM     11  C   UNL     1       5.856  -0.151 -13.341  0.00  0.00    +0.001 A 
ATOM     12  C   UNL     1       6.178  -1.111 -14.301  0.00  0.00    +0.011 A 
ATOM     13  C   UNL     1       6.403  -0.729 -15.607  0.00  0.00    +0.020 A 
ATOM     14  C   UNL     1       6.309   0.605 -15.967  0.00  0.00    +0.041 A 
ATOM     15  C   UNL     1       5.990   1.563 -15.018  0.00  0.00    +0.020 A 
ATOM     16  C   UNL     1       5.757   1.191 -13.710  0.00  0.00    +0.011 A 
ATOM     17 CL   UNL     1       6.592   1.079 -17.612  0.00  0.00    -0.084 Cl
ENDBRANCH   5  11
BRANCH   1  19
ATOM     18  N   UNL     1       2.745   1.103  -6.445  0.00  0.00    -0.313 N 
ATOM     19  C   UNL     1       3.223  -0.055  -6.942  0.00  0.00    +0.236 C 
ATOM     20  O   UNL     1       2.526  -1.048  -6.944  0.00  0.00    -0.274 OA
ATOM     21  H   UNL     1       3.302   1.897  -6.444  0.00  0.00    +0.149 HD
BRANCH  18  22
ATOM     22  C   UNL     1       1.384   1.162  -5.906  0.00  0.00    +0.109 C 
BRANCH  22  23
ATOM     23  C   UNL     1       1.093   2.580  -5.410  0.00  0.00    +0.056 C 
BRANCH  23  31
ATOM     24  C   UNL     1      -0.013   1.086   0.008  0.00  0.00    +0.044 C 
ATOM     25  C   UNL     1      -0.742   1.585  -1.213  0.00  0.00    -0.050 A 
ATOM     26  C   UNL     1      -2.112   1.796  -1.158  0.00  0.00    +0.005 A 
ATOM     27  C   UNL     1      -2.798   2.251  -2.263  0.00  0.00    +0.026 A 
ATOM     28  C   UNL     1      -2.112   2.504  -3.446  0.00  0.00    +0.047 A 
ATOM     29  N   UNL     1      -2.498   2.952  -4.689  0.00  0.00    -0.360 N 
ATOM     30  C   UNL     1      -1.411   3.028  -5.516  0.00  0.00    +0.087 A 
ATOM     31  C   UNL     1      -0.307   2.641  -4.856  0.00  0.00    -0.021 A 
ATOM     32  C   UNL     1      -0.722   2.289  -3.496  0.00  0.00    +0.003 A 
ATOM     33  C   UNL     1      -0.047   1.832  -2.363  0.00  0.00    +0.013 A 
ATOM     34  H   UNL     1      -3.407   3.180  -4.942  0.00  0.00    +0.165 HD
ENDBRANCH  23  31
ENDBRANCH  22  23
ENDBRANCH  18  22
ENDBRANCH   1  19
BRANCH   7  35
ATOM     35  C   UNL     1       5.599  -3.727  -9.881  0.00  0.00    +0.432 C 
ATOM     36  F   UNL     1       5.935  -4.503 -10.996  0.00  0.00    -0.165 F 
ATOM     37  F   UNL     1       6.588  -3.866  -8.901  0.00  0.00    -0.165 F 
ATOM     38  F   UNL     1       4.370  -4.157  -9.367  0.00  0.00    -0.165 F 
ENDBRANCH   7  35
TORSDOF 6
