REMARK  Name = ZINC04577635
REMARK  9 active torsions:
REMARK  status: ('A' for Active; 'I' for Inactive)
REMARK    1  A    between atoms: C_1  and  C_2
REMARK    2  A    between atoms: C_5  and  S_8
REMARK    3  A    between atoms: S_8  and  O_11
REMARK    4  A    between atoms: O_11  and  C_12
REMARK    5  A    between atoms: C_14  and  C_21
REMARK    6  A    between atoms: C_14  and  C_22
REMARK    7  A    between atoms: N_15  and  O_20
REMARK    8  A    between atoms: C_16  and  C_18
REMARK    9  A    between atoms: C_16  and  C_19
REMARK                            x       y       z     vdW  Elec       q    Type
REMARK                         _______ _______ _______ _____ _____    ______ ____
ROOT
ATOM      1  C   UNL     1      -1.238  -0.331   2.123  0.00  0.00    +0.153 C 
ATOM      2  C   UNL     1      -1.264   0.989   2.892  0.00  0.00    +0.058 C 
ATOM      3  C   UNL     1      -2.589   1.145   3.634  0.00  0.00    +0.044 C 
ATOM      4  N   UNL     1      -2.945  -0.026   4.407  0.00  0.00    -0.180 NA
ATOM      5  C   UNL     1      -2.724  -1.352   3.867  0.00  0.00    +0.044 C 
ATOM      6  C   UNL     1      -1.398  -1.478   3.120  0.00  0.00    +0.058 C 
ATOM      7  C   UNL     1      -3.874  -1.773   2.945  0.00  0.00    +0.030 C 
ATOM      8  C   UNL     1      -2.692  -2.353   5.044  0.00  0.00    +0.030 C 
ATOM      9  C   UNL     1      -3.696   1.508   2.636  0.00  0.00    +0.030 C 
ATOM     10  C   UNL     1      -2.441   2.337   4.606  0.00  0.00    +0.030 C 
ENDROOT
BRANCH   4  11
ATOM     11  O   UNL     1      -4.261   0.103   5.032  0.00  0.00    -0.311 OA
ATOM     12  H   UNL     1      -4.437   0.979   5.401  0.00  0.00    +0.237 HD
ENDBRANCH   4  11
BRANCH   1  13
ATOM     13  O   UNL     1       0.022  -0.462   1.453  0.00  0.00    -0.231 OA
BRANCH  13  14
ATOM     14  S   UNL     1       0.002  -0.004   0.002  0.00  0.00    +0.112 S 
ATOM     15  O   UNL     1      -1.243  -0.424  -0.539  0.00  0.00    -0.142 OA
ATOM     16  O   UNL     1       1.248  -0.390  -0.563  0.00  0.00    -0.142 OA
BRANCH  14  21
ATOM     17  C   UNL     1      -0.080   6.029   0.035  0.00  0.00    +0.044 C 
ATOM     18  C   UNL     1      -0.059   4.522   0.026  0.00  0.00    -0.050 A 
ATOM     19  C   UNL     1       1.147   3.847   0.012  0.00  0.00    +0.005 A 
ATOM     20  C   UNL     1       1.166   2.465   0.004  0.00  0.00    +0.030 A 
ATOM     21  C   UNL     1      -0.022   1.758   0.012  0.00  0.00    +0.117 A 
ATOM     22  C   UNL     1      -1.228   2.433   0.021  0.00  0.00    +0.030 A 
ATOM     23  C   UNL     1      -1.247   3.815   0.033  0.00  0.00    +0.005 A 
ENDBRANCH  14  21
ENDBRANCH  13  14
ENDBRANCH   1  13
TORSDOF 4
