REMARK  Name = ZINC32952010
REMARK  9 active torsions:
REMARK  status: ('A' for Active; 'I' for Inactive)
REMARK    1  A    between atoms: C_1  and  C_2
REMARK    2  A    between atoms: N_7  and  C_9
REMARK    3  A    between atoms: C_9  and  C_10
REMARK    4  A    between atoms: N_13  and  S_16
REMARK    5  A    between atoms: S_16  and  C_19
REMARK    6  A    between atoms: C_22  and  C_25
REMARK    7  A    between atoms: C_25  and  C_26
REMARK    8  A    between atoms: C_26  and  C_27
REMARK    9  A    between atoms: C_26  and  C_28
REMARK                            x       y       z     vdW  Elec       q    Type
REMARK                         _______ _______ _______ _____ _____    ______ ____
ROOT
ATOM      1  C   UNL     1       1.278   1.562  -2.470  0.00  0.00    -0.025 C 
ATOM      2  C   UNL     1       1.225   3.087  -2.578  0.00  0.00    +0.019 C 
ATOM      3  C   UNL     1       2.652   3.644  -2.605  0.00  0.00    +0.109 C 
ATOM      4  N   UNL     1       3.394   2.988  -3.690  0.00  0.00    -0.177 NA
ATOM      5  C   UNL     1       3.433   1.520  -3.733  0.00  0.00    +0.109 C 
ATOM      6  C   UNL     1       1.997   0.987  -3.693  0.00  0.00    +0.019 C 
ENDROOT
BRANCH   4   7
ATOM      7  S   UNL     1       4.172   3.887  -4.843  0.00  0.00    +0.061 S 
ATOM      8  O   UNL     1       4.434   5.156  -4.261  0.00  0.00    -0.153 OA
ATOM      9  O   UNL     1       5.203   3.064  -5.372  0.00  0.00    -0.153 OA
BRANCH   7  10
ATOM     10  C   UNL     1       3.025   4.160  -6.153  0.00  0.00    +0.105 A 
ATOM     11  C   UNL     1       2.948   3.265  -7.203  0.00  0.00    +0.029 A 
ATOM     12  C   UNL     1       2.045   3.477  -8.228  0.00  0.00    +0.005 A 
ATOM     13  C   UNL     1       1.224   4.589  -8.207  0.00  0.00    -0.047 A 
ATOM     14  C   UNL     1       1.304   5.487  -7.159  0.00  0.00    +0.005 A 
ATOM     15  C   UNL     1       2.205   5.273  -6.132  0.00  0.00    +0.029 A 
BRANCH  13  16
ATOM     16  C   UNL     1       0.242   4.822  -9.326  0.00  0.00    +0.038 C 
BRANCH  16  17
ATOM     17  C   UNL     1       0.909   5.652 -10.425  0.00  0.00    -0.013 C 
ATOM     18  C   UNL     1      -0.044   5.783 -11.614  0.00  0.00    +0.007 C 
ATOM     19  C   UNL     1       1.242   7.043  -9.882  0.00  0.00    +0.007 C 
ENDBRANCH  16  17
ENDBRANCH  13  16
ENDBRANCH   7  10
ENDBRANCH   4   7
BRANCH   1  20
ATOM     20  C   UNL     1      -0.145   1.005  -2.408  0.00  0.00    -0.075 C 
BRANCH  20  26
ATOM     21  C   UNL     1       0.663  -1.019   2.001  0.00  0.00    +0.005 C 
ATOM     22  C   UNL     1       0.158  -1.268   0.579  0.00  0.00    -0.031 C 
ATOM     23  C   UNL     1       0.974  -2.393  -0.065  0.00  0.00    -0.001 C 
ATOM     24  C   UNL     1       0.500  -2.594  -1.507  0.00  0.00    -0.018 C 
ATOM     25  C   UNL     1       0.648  -1.279  -2.276  0.00  0.00    -0.079 C 
ATOM     26  N   UNL     1      -0.152  -0.236  -1.621  0.00  0.00    +0.380 N 
ATOM     27  C   UNL     1       0.315   0.009  -0.250  0.00  0.00    -0.076 C 
ATOM     28  H   UNL     1      -1.190  -0.596  -1.562  0.00  0.00    -0.082 HD
ENDBRANCH  20  26
ENDBRANCH   1  20
TORSDOF 6
