REMARK  Name = ZINC43262646
REMARK  9 active torsions:
REMARK  status: ('A' for Active; 'I' for Inactive)
REMARK    1  A    between atoms: C_1  and  C_2
REMARK    2  A    between atoms: C_2  and  C_3
REMARK    3  A    between atoms: C_3  and  C_5
REMARK    4  A    between atoms: C_3  and  N_23
REMARK    5  A    between atoms: C_5  and  C_7
REMARK    6  A    between atoms: C_5  and  N_13
REMARK    7  A    between atoms: N_13  and  C_14
REMARK    8  A    between atoms: N_13  and  C_18
REMARK    9  A    between atoms: C_14  and  C_15
REMARK                            x       y       z     vdW  Elec       q    Type
REMARK                         _______ _______ _______ _____ _____    ______ ____
ROOT
ATOM      1  C   UNL     1       0.870  -1.658   1.167  0.00  0.00    -0.045 C 
ENDROOT
BRANCH   1   2
ATOM      2  C   UNL     1      -0.398  -2.431   1.427  0.00  0.00    -0.024 A 
ATOM      3  C   UNL     1      -1.638  -1.965   1.710  0.00  0.00    +0.010 A 
ATOM      4  C   UNL     1      -2.664  -2.869   1.915  0.00  0.00    +0.023 A 
ATOM      5  C   UNL     1      -2.397  -4.196   1.827  0.00  0.00    +0.055 A 
ATOM      6  S   UNL     1      -0.655  -4.197   1.436  0.00  0.00    -0.088 S 
ATOM      7 BR   UNL     1      -3.568  -5.663   2.052  0.00  0.00    -0.043 Br
ENDBRANCH   1   2
BRANCH   1   8
ATOM      8  N   UNL     1       1.433  -2.063  -0.128  0.00  0.00    +0.391 N 
ATOM      9  H   UNL     1       2.398  -1.776  -0.180  0.00  0.00    -0.080 HD
BRANCH   8  10
ATOM     10  C   UNL     1       0.673  -1.427  -1.213  0.00  0.00    -0.067 C 
ATOM     11  C   UNL     1       0.689   0.106  -1.041  0.00  0.00    -0.015 C 
ATOM     12  C   UNL     1      -0.725   0.553  -1.489  0.00  0.00    -0.002 C 
ATOM     13  C   UNL     1      -1.631  -0.578  -0.941  0.00  0.00    -0.002 C 
ATOM     14  C   UNL     1      -0.801  -1.862  -1.149  0.00  0.00    -0.015 C 
ENDBRANCH   8  10
BRANCH   8  15
ATOM     15  C   UNL     1       1.349  -3.524  -0.263  0.00  0.00    +0.019 C 
BRANCH  15  16
ATOM     16  C   UNL     1       2.105  -3.959  -1.492  0.00  0.00    +0.194 C 
ATOM     17  O   UNL     1       2.743  -3.149  -2.130  0.00  0.00    -0.278 OA
ATOM     18  N   UNL     1       2.073  -5.249  -1.881  0.00  0.00    -0.331 N 
ATOM     19  H   UNL     1       1.562  -5.897  -1.371  0.00  0.00    +0.145 HD
ATOM     20  H   UNL     1       2.560  -5.529  -2.672  0.00  0.00    +0.145 HD
ENDBRANCH  15  16
ENDBRANCH   8  15
ENDBRANCH   1   8
BRANCH   1  21
ATOM     21  C   UNL     1       1.882  -1.949   2.276  0.00  0.00    -0.085 C 
BRANCH  21  22
ATOM     22  N   UNL     1       1.274  -1.660   3.582  0.00  0.00    +0.379 N 
ATOM     23  H   UNL     1       0.459  -2.241   3.709  0.00  0.00    -0.090 HD
ATOM     24  H   UNL     1       1.942  -1.852   4.314  0.00  0.00    -0.090 HD
ATOM     25  H   UNL     1       1.004  -0.689   3.619  0.00  0.00    -0.090 HD
ENDBRANCH  21  22
BRANCH  21  27
ATOM     26  C   UNL     1       4.155  -1.401   3.157  0.00  0.00    +0.002 C 
ATOM     27  C   UNL     1       3.118  -1.068   2.083  0.00  0.00    -0.021 C 
ENDBRANCH  21  27
ENDBRANCH   1  21
TORSDOF 8
