REMARK  Name = ZINC20396317
REMARK  5 active torsions:
REMARK  status: ('A' for Active; 'I' for Inactive)
REMARK    1  A    between atoms: C_4  and  N_7
REMARK    2  A    between atoms: C_11  and  S_13
REMARK    3  A    between atoms: S_13  and  C_14
REMARK    4  A    between atoms: C_14  and  C_15
REMARK    5  A    between atoms: C_18  and  N_21
REMARK                            x       y       z     vdW  Elec       q    Type
REMARK                         _______ _______ _______ _____ _____    ______ ____
ROOT
ATOM      1  N   UNL     1       2.460   3.236  -0.004  0.00  0.00    -0.292 N 
ATOM      2  C   UNL     1       1.757   2.050  -0.190  0.00  0.00    +0.187 A 
ATOM      3  N   UNL     1       2.201   0.808  -0.197  0.00  0.00    -0.125 NA
ATOM      4  N   UNL     1       1.324  -0.232  -0.402  0.00  0.00    -0.133 NA
ATOM      5  C   UNL     1       0.042   0.019  -0.591  0.00  0.00    +0.160 A 
ATOM      6  S   UNL     1       0.013   1.802  -0.484  0.00  0.00    -0.024 S 
ATOM      7  H   UNL     1       1.918   4.190   0.070  0.00  0.00    +0.154 HD
ENDROOT
BRANCH   1  11
ATOM      8  C   UNL     1       6.614   3.174   0.270  0.00  0.00    +0.000 A 
ATOM      9  C   UNL     1       5.954   2.176  -0.423  0.00  0.00    +0.002 A 
ATOM     10  C   UNL     1       4.576   2.193  -0.516  0.00  0.00    +0.023 A 
ATOM     11  C   UNL     1       3.853   3.215   0.088  0.00  0.00    +0.033 A 
ATOM     12  C   UNL     1       4.521   4.219   0.778  0.00  0.00    +0.023 A 
ATOM     13  C   UNL     1       5.898   4.192   0.872  0.00  0.00    +0.002 A 
ENDBRANCH   1  11
BRANCH   5  14
ATOM     14  S   UNL     1      -1.285  -1.105  -0.873  0.00  0.00    -0.092 S 
BRANCH  14  15
ATOM     15  C   UNL     1      -0.492  -2.736  -0.848  0.00  0.00    +0.111 C 
BRANCH  15  16
ATOM     16  C   UNL     1      -1.530  -3.803  -1.081  0.00  0.00    -0.037 A 
ATOM     17  C   UNL     1      -2.191  -4.370  -0.005  0.00  0.00    +0.006 A 
ATOM     18  C   UNL     1      -3.147  -5.344  -0.215  0.00  0.00    +0.023 A 
ATOM     19  C   UNL     1      -3.437  -5.763  -1.507  0.00  0.00    +0.025 A 
ATOM     20  C   UNL     1      -2.768  -5.196  -2.585  0.00  0.00    +0.023 A 
ATOM     21  C   UNL     1      -1.817  -4.218  -2.368  0.00  0.00    +0.006 A 
BRANCH  19  22
ATOM     22  N   UNL     1      -4.400  -6.751  -1.723  0.00  0.00    -0.358 N 
ATOM     23  H   UNL     1      -4.629  -7.082  -2.746  0.00  0.00    +0.142 HD
ATOM     24  H   UNL     1      -4.929  -7.199  -0.869  0.00  0.00    +0.142 HD
ENDBRANCH  19  22
ENDBRANCH  15  16
ENDBRANCH  14  15
ENDBRANCH   5  14
TORSDOF 5
