REMARK  Name = ZINC66679933
REMARK  6 active torsions:
REMARK  status: ('A' for Active; 'I' for Inactive)
REMARK    1  A    between atoms: C_1  and  C_2
REMARK    2  A    between atoms: C_8  and  C_12
REMARK    3  A    between atoms: C_12  and  C_13
REMARK    4  A    between atoms: C_13  and  N_14
REMARK    5  A    between atoms: N_17  and  C_18
REMARK    6  A    between atoms: C_22  and  C_24
REMARK                            x       y       z     vdW  Elec       q    Type
REMARK                         _______ _______ _______ _____ _____    ______ ____
ROOT
ATOM      1  N   UNL     1      -1.442   2.956   3.764  0.00  0.00    -0.299 N 
ATOM      2  C   UNL     1      -2.612   3.608   3.913  0.00  0.00    +0.304 C 
ATOM      3  O   UNL     1      -3.655   3.062   3.611  0.00  0.00    -0.253 OA
ATOM      4  N   UNL     1      -2.625   4.866   4.397  0.00  0.00    -0.269 N 
ATOM      5  H   UNL     1      -0.609   3.392   4.005  0.00  0.00    +0.150 HD
ATOM      6  H   UNL     1      -1.800   5.278   4.700  0.00  0.00    +0.156 HD
ENDROOT
BRANCH   4   7
ATOM      7  C   UNL     1      -3.828   5.579   4.462  0.00  0.00    +0.035 A 
ATOM      8  C   UNL     1      -5.013   4.916   4.754  0.00  0.00    +0.023 A 
ATOM      9  C   UNL     1      -6.203   5.615   4.818  0.00  0.00    +0.002 A 
ATOM     10  C   UNL     1      -6.221   6.978   4.592  0.00  0.00    +0.010 A 
ATOM     11  C   UNL     1      -5.036   7.651   4.298  0.00  0.00    +0.004 A 
ATOM     12  C   UNL     1      -3.836   6.947   4.239  0.00  0.00    +0.033 A 
BRANCH  11  13
ATOM     13  C   UNL     1      -5.053   9.114   4.055  0.00  0.00    +0.091 A 
ATOM     14  C   UNL     1      -6.274   9.826   4.127  0.00  0.00    +0.035 A 
ATOM     15  C   UNL     1      -6.251  11.170   3.897  0.00  0.00    +0.073 A 
ATOM     16  C   UNL     1      -5.006  11.770   3.602  0.00  0.00    +0.265 A 
ATOM     17  O   UNL     1      -4.937  12.970   3.390  0.00  0.00    -0.266 OA
ATOM     18  N   UNL     1      -3.898  11.008   3.556  0.00  0.00    -0.243 N 
ATOM     19  H   UNL     1      -3.046  11.425   3.352  0.00  0.00    +0.192 HD
ATOM     20  N   UNL     1      -3.936   9.744   3.779  0.00  0.00    -0.171 NA
ENDBRANCH  11  13
ENDBRANCH   4   7
BRANCH   1  21
ATOM     21  C   UNL     1      -1.427   1.589   3.238  0.00  0.00    +0.110 C 
BRANCH  21  22
ATOM     22  C   UNL     1       0.015   1.084   3.169  0.00  0.00    +0.056 C 
BRANCH  22  30
ATOM     23  C   UNL     1       0.003   1.502   0.024  0.00  0.00    +0.044 C 
ATOM     24  C   UNL     1       0.020  -0.005   0.014  0.00  0.00    -0.041 A 
ATOM     25  C   UNL     1       0.030  -0.683  -1.173  0.00  0.00    +0.004 A 
ATOM     26  C   UNL     1       0.046  -2.070  -1.192  0.00  0.00    +0.002 A 
ATOM     27  C   UNL     1       0.051  -2.789  -0.017  0.00  0.00    +0.026 A 
ATOM     28  C   UNL     1       0.042  -2.120   1.202  0.00  0.00    +0.047 A 
ATOM     29  C   UNL     1       0.031  -0.713   1.216  0.00  0.00    +0.006 A 
ATOM     30  C   UNL     1       0.030  -0.323   2.628  0.00  0.00    -0.021 A 
ATOM     31  C   UNL     1       0.044  -1.455   3.349  0.00  0.00    +0.087 A 
ATOM     32  N   UNL     1       0.044  -2.539   2.514  0.00  0.00    -0.360 N 
ATOM     33  H   UNL     1       0.053  -3.465   2.803  0.00  0.00    +0.165 HD
ENDBRANCH  22  30
ENDBRANCH  21  22
ENDBRANCH   1  21
TORSDOF 5
