REMARK  Name = ZINC00792218
REMARK  5 active torsions:
REMARK  status: ('A' for Active; 'I' for Inactive)
REMARK    1  A    between atoms: C_1  and  C_2
REMARK    2  A    between atoms: C_2  and  O_3
REMARK    3  A    between atoms: O_3  and  C_4
REMARK    4  A    between atoms: C_7  and  C_11
REMARK    5  A    between atoms: N_19  and  C_27
REMARK                            x       y       z     vdW  Elec       q    Type
REMARK                         _______ _______ _______ _____ _____    ______ ____
ROOT
ATOM      1  C   UNL     1       0.940  -2.646  -0.100  0.00  0.00    +0.089 C 
ATOM      2  C   UNL     1       0.572  -1.958   1.188  0.00  0.00    +0.024 C 
ATOM      3  C   UNL     1       0.126  -0.684   1.182  0.00  0.00    +0.018 C 
ATOM      4  C   UNL     1      -0.248   0.015   2.465  0.00  0.00    +0.052 C 
ATOM      5  C   UNL     1       0.606  -0.526   3.614  0.00  0.00    +0.014 C 
ATOM      6  C   UNL     1       0.382  -2.038   3.716  0.00  0.00    +0.080 C 
ATOM      7  C   UNL     1       0.710  -2.672   2.391  0.00  0.00    +0.162 C 
ATOM      8  O   UNL     1       1.100  -3.823   2.361  0.00  0.00    -0.292 OA
ATOM      9  N   UNL     1       0.002  -0.004   0.002  0.00  0.00    -0.309 N 
ATOM     10  C   UNL     1      -0.109  -0.674  -1.185  0.00  0.00    +0.018 C 
ATOM     11  C   UNL     1       0.325  -1.949  -1.286  0.00  0.00    +0.024 C 
ATOM     12  C   UNL     1       0.210  -2.661  -2.494  0.00  0.00    +0.162 C 
ATOM     13  O   UNL     1       0.612  -3.806  -2.552  0.00  0.00    -0.292 OA
ATOM     14  C   UNL     1      -0.418  -2.029  -3.712  0.00  0.00    +0.080 C 
ATOM     15  C   UNL     1      -1.430  -0.969  -3.267  0.00  0.00    +0.014 C 
ATOM     16  C   UNL     1      -0.713   0.041  -2.368  0.00  0.00    +0.052 C 
ATOM     17  C   UNL     1      -0.018   1.461   0.010  0.00  0.00    +0.135 C 
ENDROOT
BRANCH   1  21
ATOM     18  C   UNL     1       5.193  -2.645  -0.525  0.00  0.00    +0.157 A 
ATOM     19  C   UNL     1       4.499  -3.846  -0.478  0.00  0.00    +0.084 A 
ATOM     20  C   UNL     1       3.124  -3.844  -0.341  0.00  0.00    +0.028 A 
ATOM     21  C   UNL     1       2.439  -2.646  -0.250  0.00  0.00    -0.032 A 
ATOM     22  C   UNL     1       3.127  -1.448  -0.302  0.00  0.00    +0.028 A 
ATOM     23  C   UNL     1       4.503  -1.444  -0.434  0.00  0.00    +0.084 A 
ATOM     24 CL   UNL     1       5.367   0.060  -0.492  0.00  0.00    -0.080 Cl
ATOM     25 CL   UNL     1       5.358  -5.351  -0.591  0.00  0.00    -0.080 Cl
BRANCH  18  26
ATOM     26  O   UNL     1       6.546  -2.645  -0.660  0.00  0.00    -0.489 OA
BRANCH  26  28
ATOM     27  C   UNL     1       8.595  -2.626  -1.942  0.00  0.00    +0.048 C 
ATOM     28  C   UNL     1       7.066  -2.622  -1.991  0.00  0.00    +0.226 C 
ENDBRANCH  26  28
ENDBRANCH  18  26
ENDBRANCH   1  21
TORSDOF 3
