REMARK  Name = ZINC06707697
REMARK  9 active torsions:
REMARK  status: ('A' for Active; 'I' for Inactive)
REMARK    1  A    between atoms: C_1  and  C_2
REMARK    2  A    between atoms: C_2  and  C_3
REMARK    3  A    between atoms: C_10  and  N_14
REMARK    4  A    between atoms: C_11  and  C_12
REMARK    5  A    between atoms: C_15  and  C_17
REMARK    6  A    between atoms: C_17  and  C_19
REMARK    7  A    between atoms: C_17  and  O_20
REMARK    8  A    between atoms: O_20  and  C_21
REMARK    9  A    between atoms: C_23  and  C_28
REMARK                            x       y       z     vdW  Elec       q    Type
REMARK                         _______ _______ _______ _____ _____    ______ ____
ROOT
ATOM      1  N   UNL     1       1.547  -1.980  -0.307  0.00  0.00    -0.276 N 
ATOM      2  C   UNL     1       2.819  -2.424  -0.284  0.00  0.00    +0.258 C 
ATOM      3  O   UNL     1       3.735  -1.649  -0.456  0.00  0.00    -0.271 OA
ATOM      4  H   UNL     1       0.814  -2.600  -0.169  0.00  0.00    +0.155 HD
ENDROOT
BRANCH   1  11
ATOM      5  C   UNL     1       0.326   4.263  -0.950  0.00  0.00    -0.006 C 
ATOM      6  C   UNL     1      -0.871   3.597  -1.635  0.00  0.00    +0.008 C 
ATOM      7  C   UNL     1      -1.208   2.281  -0.935  0.00  0.00    +0.037 C 
ATOM      8  C   UNL     1       0.057   1.438  -0.835  0.00  0.00    -0.018 A 
ATOM      9  C   UNL     1       1.278   1.996  -0.983  0.00  0.00    -0.004 A 
ATOM     10  S   UNL     1       2.415   0.651  -0.799  0.00  0.00    -0.077 S 
ATOM     11  C   UNL     1       1.285  -0.634  -0.528  0.00  0.00    +0.090 A 
ATOM     12  C   UNL     1       0.057   0.006  -0.587  0.00  0.00    +0.084 A 
ATOM     13  C   UNL     1       1.587   3.438  -1.244  0.00  0.00    +0.046 C 
BRANCH   5  15
ATOM     14  C   UNL     1       1.630   6.383  -0.732  0.00  0.00    +0.004 C 
ATOM     15  C   UNL     1       0.503   5.682  -1.493  0.00  0.00    +0.000 C 
ENDBRANCH   5  15
BRANCH  12  16
ATOM     16  C   UNL     1      -1.167  -0.716  -0.410  0.00  0.00    +0.102 C 
ATOM     17  N   UNL     1      -2.137  -1.290  -0.269  0.00  0.00    -0.191 NA
ENDBRANCH  12  16
ENDBRANCH   1  11
BRANCH   2  18
ATOM     18  C   UNL     1       3.102  -3.884  -0.043  0.00  0.00    +0.256 C 
ATOM     19  C   UNL     1       2.546  -4.710  -1.205  0.00  0.00    +0.062 C 
BRANCH  18  20
ATOM     20  O   UNL     1       4.514  -4.086   0.051  0.00  0.00    -0.478 OA
BRANCH  20  21
ATOM     21  C   UNL     1       4.936  -5.170   0.755  0.00  0.00    +0.140 A 
ATOM     22  C   UNL     1       4.014  -6.082   1.246  0.00  0.00    +0.050 A 
ATOM     23  C   UNL     1       4.446  -7.186   1.956  0.00  0.00    -0.047 A 
ATOM     24  C   UNL     1       5.796  -7.376   2.187  0.00  0.00    +0.005 A 
ATOM     25  C   UNL     1       6.718  -6.466   1.704  0.00  0.00    +0.024 A 
ATOM     26  C   UNL     1       6.291  -5.362   0.988  0.00  0.00    +0.083 A 
ATOM     27 CL   UNL     1       7.448  -4.220   0.380  0.00  0.00    -0.080 Cl
ATOM     28  C   UNL     1       3.445  -8.180   2.485  0.00  0.00    +0.044 C 
ENDBRANCH  20  21
ENDBRANCH  18  20
ENDBRANCH   2  18
TORSDOF 6
