REMARK  Name = ZINC13063682
REMARK  14 active torsions:
REMARK  status: ('A' for Active; 'I' for Inactive)
REMARK    1  A    between atoms: C_1  and  C_2
REMARK    2  A    between atoms: C_2  and  C_3
REMARK    3  A    between atoms: C_10  and  C_15
REMARK    4  A    between atoms: C_15  and  N_73
REMARK    5  A    between atoms: C_16  and  C_17
REMARK    6  A    between atoms: C_16  and  N_73
REMARK    7  A    between atoms: C_20  and  O_23
REMARK    8  A    between atoms: O_23  and  C_24
REMARK    9  A    between atoms: C_25  and  C_27
REMARK   10  A    between atoms: C_25  and  C_29
REMARK   11  A    between atoms: C_25  and  N_73
REMARK   12  A    between atoms: C_27  and  C_28
REMARK   13  A    between atoms: N_33  and  C_34
REMARK   14  A    between atoms: C_34  and  C_35
REMARK                            x       y       z     vdW  Elec       q    Type
REMARK                         _______ _______ _______ _____ _____    ______ ____
ROOT
ATOM      1  N   UNL     1       4.049   0.818  -2.926  0.00  0.00    +0.392 N 
ATOM      2  H   UNL     1       4.691   0.724  -3.722  0.00  0.00    -0.080 HD
ENDROOT
BRANCH   1   3
ATOM      3  C   UNL     1       4.400  -0.192  -1.906  0.00  0.00    -0.036 C 
BRANCH   3  11
ATOM      4  C   UNL     1      -0.342  -1.107   1.962  0.00  0.00    -0.047 A 
ATOM      5  C   UNL     1       0.069  -0.201   2.930  0.00  0.00    +0.005 A 
ATOM      6  C   UNL     1       1.231   0.522   2.768  0.00  0.00    +0.026 A 
ATOM      7  C   UNL     1       2.002   0.343   1.623  0.00  0.00    +0.049 A 
ATOM      8  C   UNL     1       1.581  -0.576   0.644  0.00  0.00    -0.001 A 
ATOM      9  C   UNL     1       0.398  -1.299   0.830  0.00  0.00    +0.013 A 
ATOM     10  C   UNL     1       2.399  -0.757  -0.557  0.00  0.00    +0.017 A 
ATOM     11  C   UNL     1       3.536  -0.030  -0.682  0.00  0.00    +0.001 A 
ATOM     12  C   UNL     1       3.916   0.875   0.332  0.00  0.00    +0.251 A 
ATOM     13  O   UNL     1       4.945   1.515   0.202  0.00  0.00    -0.268 OA
ATOM     14  N   UNL     1       3.169   1.052   1.436  0.00  0.00    -0.322 N 
ATOM     15  H   UNL     1       3.458   1.685   2.112  0.00  0.00    +0.169 HD
BRANCH   4  17
ATOM     16  C   UNL     1      -1.308  -3.194   2.890  0.00  0.00    +0.009 C 
ATOM     17  C   UNL     1      -1.617  -1.885   2.161  0.00  0.00    +0.032 C 
ENDBRANCH   4  17
ENDBRANCH   3  11
ENDBRANCH   1   3
BRANCH   1  18
ATOM     18  C   UNL     1       2.665   0.600  -3.397  0.00  0.00    -0.042 C 
BRANCH  18  19
ATOM     19  C   UNL     1       2.655  -0.573  -4.343  0.00  0.00    -0.064 A 
ATOM     20  C   UNL     1       2.993  -0.391  -5.671  0.00  0.00    +0.005 A 
ATOM     21  C   UNL     1       2.990  -1.465  -6.540  0.00  0.00    +0.046 A 
ATOM     22  C   UNL     1       2.638  -2.726  -6.080  0.00  0.00    +0.120 A 
ATOM     23  C   UNL     1       2.294  -2.905  -4.748  0.00  0.00    +0.046 A 
ATOM     24  C   UNL     1       2.304  -1.828  -3.883  0.00  0.00    +0.005 A 
BRANCH  22  25
ATOM     25  O   UNL     1       2.629  -3.783  -6.934  0.00  0.00    -0.495 OA
ATOM     26  C   UNL     1       2.994  -3.525  -8.291  0.00  0.00    +0.277 C 
ENDBRANCH  22  25
ENDBRANCH  18  19
ENDBRANCH   1  18
BRANCH   1  27
ATOM     27  C   UNL     1       4.182   2.176  -2.359  0.00  0.00    +0.003 C 
BRANCH  27  28
ATOM     28  C   UNL     1       3.628   3.176  -3.341  0.00  0.00    +0.138 A 
ATOM     29  N   UNL     1       3.829   3.195  -4.636  0.00  0.00    -0.115 NA
ATOM     30  N   UNL     1       3.193   4.205  -5.122  0.00  0.00    -0.023 NA
ATOM     31  N   UNL     1       2.588   4.827  -4.172  0.00  0.00    -0.044 NA
ATOM     32  N   UNL     1       2.829   4.222  -3.058  0.00  0.00    -0.226 N 
BRANCH  32  33
ATOM     33  C   UNL     1       2.332   4.604  -1.734  0.00  0.00    +0.182 C 
BRANCH  33  34
ATOM     34  C   UNL     1       1.015   3.919  -1.476  0.00  0.00    -0.026 A 
ATOM     35  C   UNL     1       0.990   2.676  -0.871  0.00  0.00    +0.005 A 
ATOM     36  C   UNL     1      -0.218   2.048  -0.633  0.00  0.00    +0.000 A 
ATOM     37  C   UNL     1      -1.401   2.660  -1.005  0.00  0.00    +0.000 A 
ATOM     38  C   UNL     1      -1.376   3.905  -1.605  0.00  0.00    +0.000 A 
ATOM     39  C   UNL     1      -0.168   4.534  -1.842  0.00  0.00    +0.005 A 
ENDBRANCH  33  34
ENDBRANCH  32  33
ENDBRANCH  27  28
BRANCH  27  40
ATOM     40  C   UNL     1       5.665   2.466  -2.117  0.00  0.00    -0.011 C 
ATOM     41  C   UNL     1       5.812   3.821  -1.422  0.00  0.00    +0.002 C 
ENDBRANCH  27  40
ENDBRANCH   1  27
TORSDOF 11
