REMARK  Name = ZINC64623240
REMARK  9 active torsions:
REMARK  status: ('A' for Active; 'I' for Inactive)
REMARK    1  A    between atoms: C_1  and  C_2
REMARK    2  A    between atoms: C_2  and  O_3
REMARK    3  A    between atoms: O_3  and  C_4
REMARK    4  A    between atoms: C_4  and  C_6
REMARK    5  A    between atoms: C_10  and  N_12
REMARK    6  A    between atoms: C_21  and  O_37
REMARK    7  A    between atoms: C_28  and  C_30
REMARK    8  A    between atoms: C_33  and  C_36
REMARK    9  A    between atoms: O_37  and  C_38
REMARK                            x       y       z     vdW  Elec       q    Type
REMARK                         _______ _______ _______ _____ _____    ______ ____
ROOT
ATOM      1  N   UNL     1       2.376  -5.207   4.510  0.00  0.00    -0.269 N 
ATOM      2  C   UNL     1       3.193  -5.921   5.309  0.00  0.00    +0.307 C 
ATOM      3  O   UNL     1       3.886  -5.354   6.132  0.00  0.00    -0.252 OA
ATOM      4  N   UNL     1       3.243  -7.263   5.196  0.00  0.00    -0.276 N 
ATOM      5  C   UNL     1       2.520  -7.927   4.106  0.00  0.00    +0.114 C 
ATOM      6  C   UNL     1       3.509  -8.752   3.263  0.00  0.00    +0.052 C 
ATOM      7  C   UNL     1       4.381  -9.508   4.234  0.00  0.00    -0.035 C 
ATOM      8  C   UNL     1       4.686 -10.796   4.321  0.00  0.00    +0.003 A 
ATOM      9  C   UNL     1       4.380 -11.939   3.447  0.00  0.00    +0.055 A 
ATOM     10  C   UNL     1       4.839 -13.156   3.851  0.00  0.00    +0.121 A 
ATOM     11  C   UNL     1       5.571 -13.367   5.028  0.00  0.00    +0.047 A 
ATOM     12  C   UNL     1       5.915 -12.385   5.900  0.00  0.00    +0.029 A 
ATOM     13  C   UNL     1       5.481 -11.021   5.568  0.00  0.00    +0.043 A 
ATOM     14  N   UNL     1       5.680  -9.898   6.190  0.00  0.00    -0.375 N 
ATOM     15  C   UNL     1       5.095  -8.820   5.392  0.00  0.00    +0.131 C 
ATOM     16  C   UNL     1       4.027  -8.047   6.164  0.00  0.00    +0.134 C 
ATOM     17  H   UNL     1       1.764  -5.663   3.911  0.00  0.00    +0.156 HD
ATOM     18  H   UNL     1       6.138  -9.793   7.038  0.00  0.00    +0.160 HD
ENDROOT
BRANCH  16  19
ATOM     19  C   UNL     1       3.126  -9.013   6.888  0.00  0.00    -0.025 A 
ATOM     20  C   UNL     1       2.859  -8.835   8.232  0.00  0.00    +0.006 A 
ATOM     21  C   UNL     1       2.032  -9.721   8.897  0.00  0.00    +0.004 A 
ATOM     22  C   UNL     1       1.472 -10.786   8.216  0.00  0.00    -0.050 A 
ATOM     23  C   UNL     1       1.739 -10.965   6.872  0.00  0.00    +0.004 A 
ATOM     24  C   UNL     1       2.562 -10.076   6.206  0.00  0.00    +0.006 A 
ATOM     25  C   UNL     1       0.572 -11.753   8.941  0.00  0.00    +0.044 C 
ENDBRANCH  16  19
BRANCH   1  30
ATOM     26  C   UNL     1       2.196  -1.687   3.430  0.00  0.00    +0.061 A 
ATOM     27  C   UNL     1       2.483  -1.034   4.631  0.00  0.00    +0.015 A 
ATOM     28  C   UNL     1       2.730  -1.768   5.773  0.00  0.00    +0.003 A 
ATOM     29  C   UNL     1       2.694  -3.150   5.734  0.00  0.00    +0.023 A 
ATOM     30  C   UNL     1       2.410  -3.808   4.544  0.00  0.00    +0.036 A 
ATOM     31  C   UNL     1       2.156  -3.081   3.392  0.00  0.00    +0.038 A 
BRANCH  26  32
ATOM     32  C   UNL     1       1.931  -0.904   2.206  0.00  0.00    +0.339 C 
ATOM     33  O   UNL     1       1.677  -1.473   1.163  0.00  0.00    -0.245 OA
BRANCH  32  34
ATOM     34  O   UNL     1       1.972   0.442   2.245  0.00  0.00    -0.461 OA
BRANCH  34  36
ATOM     35  C   UNL     1       1.796   2.644   1.264  0.00  0.00    +0.048 C 
ATOM     36  C   UNL     1       1.705   1.135   1.024  0.00  0.00    +0.229 C 
ENDBRANCH  34  36
ENDBRANCH  32  34
ENDBRANCH  26  32
ENDBRANCH   1  30
BRANCH  10  37
ATOM     37  O   UNL     1       4.572 -14.232   3.064  0.00  0.00    -0.495 OA
ATOM     38  C   UNL     1       5.064 -15.498   3.507  0.00  0.00    +0.277 C 
ENDBRANCH  10  37
TORSDOF 6
