REMARK  Name = ZINC36207634
REMARK  12 active torsions:
REMARK  status: ('A' for Active; 'I' for Inactive)
REMARK    1  A    between atoms: C_1  and  C_2
REMARK    2  A    between atoms: C_5  and  C_8
REMARK    3  A    between atoms: C_17  and  C_19
REMARK    4  A    between atoms: C_19  and  N_20
REMARK    5  A    between atoms: N_20  and  C_21
REMARK    6  A    between atoms: N_20  and  C_26
REMARK    7  A    between atoms: C_21  and  C_22
REMARK    8  A    between atoms: C_22  and  C_24
REMARK    9  A    between atoms: C_22  and  O_25
REMARK   10  A    between atoms: C_26  and  C_27
REMARK   11  A    between atoms: C_27  and  C_28
REMARK   12  A    between atoms: C_27  and  C_29
REMARK                            x       y       z     vdW  Elec       q    Type
REMARK                         _______ _______ _______ _____ _____    ______ ____
ROOT
ATOM      1  C   UNL     1       0.863  -4.944  -1.147  0.00  0.00    +0.004 A 
ATOM      2  C   UNL     1      -0.089  -5.678  -1.771  0.00  0.00    +0.056 A 
ATOM      3  S   UNL     1       0.082  -7.291  -1.033  0.00  0.00    -0.076 S 
ATOM      4  C   UNL     1       1.415  -6.946   0.086  0.00  0.00    +0.116 A 
ATOM      5  C   UNL     1       1.701  -5.590  -0.143  0.00  0.00    +0.080 A 
ATOM      6  C   UNL     1       2.764  -5.039   0.641  0.00  0.00    +0.260 A 
ATOM      7  O   UNL     1       3.082  -3.869   0.517  0.00  0.00    -0.267 OA
ATOM      8  N   UNL     1       3.406  -5.832   1.518  0.00  0.00    -0.312 N 
ATOM      9  H   UNL     1       4.128  -5.465   2.052  0.00  0.00    +0.170 HD
ATOM     10  C   UNL     1       3.065  -7.138   1.670  0.00  0.00    +0.094 A 
ATOM     11  N   UNL     1       2.093  -7.667   0.976  0.00  0.00    -0.229 NA
ENDROOT
BRANCH   1  16
ATOM     12  C   UNL     1       1.605   0.616  -2.448  0.00  0.00    +0.044 C 
ATOM     13  C   UNL     1       1.411  -0.839  -2.107  0.00  0.00    -0.050 A 
ATOM     14  C   UNL     1       1.352  -1.781  -3.118  0.00  0.00    +0.004 A 
ATOM     15  C   UNL     1       1.175  -3.115  -2.812  0.00  0.00    +0.009 A 
ATOM     16  C   UNL     1       1.055  -3.513  -1.482  0.00  0.00    -0.017 A 
ATOM     17  C   UNL     1       1.115  -2.558  -0.467  0.00  0.00    +0.009 A 
ATOM     18  C   UNL     1       1.298  -1.228  -0.784  0.00  0.00    +0.004 A 
ENDBRANCH   1  16
BRANCH  10  19
ATOM     19  C   UNL     1       3.813  -7.988   2.665  0.00  0.00    -0.003 C 
BRANCH  19  20
ATOM     20  N   UNL     1       3.353  -9.379   2.563  0.00  0.00    +0.386 N 
ATOM     21  H   UNL     1       2.348  -9.409   2.651  0.00  0.00    -0.081 HD
BRANCH  20  22
ATOM     22  C   UNL     1       3.747  -9.931   1.259  0.00  0.00    -0.047 C 
BRANCH  22  23
ATOM     23  C   UNL     1       3.162 -11.336   1.102  0.00  0.00    +0.095 C 
ATOM     24  C   UNL     1       3.673 -11.959  -0.198  0.00  0.00    +0.035 C 
BRANCH  23  25
ATOM     25  O   UNL     1       1.736 -11.257   1.064  0.00  0.00    -0.394 OA
ATOM     26  H   UNL     1       1.391 -10.721   0.336  0.00  0.00    +0.210 HD
ENDBRANCH  23  25
ENDBRANCH  22  23
ENDBRANCH  20  22
BRANCH  20  27
ATOM     27  C   UNL     1       3.962 -10.176   3.636  0.00  0.00    -0.075 C 
BRANCH  27  28
ATOM     28  C   UNL     1       3.433  -9.698   4.989  0.00  0.00    -0.034 C 
ATOM     29  C   UNL     1       1.934  -9.989   5.083  0.00  0.00    +0.005 C 
ATOM     30  C   UNL     1       4.167 -10.433   6.113  0.00  0.00    +0.005 C 
ENDBRANCH  27  28
ENDBRANCH  20  27
ENDBRANCH  19  20
ENDBRANCH  10  19
TORSDOF 8
