REMARK  Name = ZINC35987510
REMARK  9 active torsions:
REMARK  status: ('A' for Active; 'I' for Inactive)
REMARK    1  A    between atoms: C_1  and  C_2
REMARK    2  A    between atoms: C_5  and  C_8
REMARK    3  A    between atoms: C_11  and  C_30
REMARK    4  A    between atoms: C_21  and  C_23
REMARK    5  A    between atoms: C_28  and  C_29
REMARK    6  A    between atoms: N_32  and  C_33
REMARK    7  A    between atoms: C_33  and  C_34
REMARK    8  A    between atoms: C_34  and  C_35
REMARK    9  A    between atoms: C_34  and  C_36
REMARK                            x       y       z     vdW  Elec       q    Type
REMARK                         _______ _______ _______ _____ _____    ______ ____
ROOT
ATOM      1  C   UNL     1      -0.908  -3.432   0.009  0.00  0.00    +0.249 C 
ATOM      2  O   UNL     1      -1.204  -3.892  -1.077  0.00  0.00    -0.270 OA
ATOM      3  N   UNL     1      -0.488  -4.248   0.995  0.00  0.00    -0.255 N 
ATOM      4  C   UNL     1      -0.065  -3.854   2.358  0.00  0.00    +0.190 C 
ATOM      5  C   UNL     1       0.794  -5.061   2.812  0.00  0.00    +0.194 C 
ATOM      6  O   UNL     1       0.098  -6.179   2.215  0.00  0.00    -0.353 OA
ATOM      7  C   UNL     1      -0.362  -5.713   0.937  0.00  0.00    +0.142 C 
ATOM      8  C   UNL     1       0.652  -6.100  -0.140  0.00  0.00    +0.074 C 
ATOM      9  C   UNL     1       0.177  -5.572  -1.498  0.00  0.00    +0.112 C 
ATOM     10  N   UNL     1      -1.187  -6.060  -1.743  0.00  0.00    -0.297 N 
ATOM     11  C   UNL     1      -2.220  -5.809  -0.729  0.00  0.00    +0.112 C 
ATOM     12  C   UNL     1      -1.724  -6.334   0.622  0.00  0.00    +0.074 C 
ATOM     13  C   UNL     1      -1.485  -6.726  -2.877  0.00  0.00    +0.247 C 
ATOM     14  O   UNL     1      -0.648  -6.842  -3.751  0.00  0.00    -0.270 OA
ENDROOT
BRANCH   1  19
ATOM     15  C   UNL     1      -1.303   2.234   0.937  0.00  0.00    +0.044 C 
ATOM     16  C   UNL     1      -1.199   0.750   0.694  0.00  0.00    -0.050 A 
ATOM     17  C   UNL     1      -1.129   0.268  -0.601  0.00  0.00    +0.004 A 
ATOM     18  C   UNL     1      -1.034  -1.089  -0.830  0.00  0.00    +0.013 A 
ATOM     19  C   UNL     1      -1.009  -1.976   0.247  0.00  0.00    +0.037 A 
ATOM     20  C   UNL     1      -1.080  -1.483   1.551  0.00  0.00    +0.013 A 
ATOM     21  C   UNL     1      -1.169  -0.123   1.767  0.00  0.00    +0.004 A 
ENDBRANCH   1  19
BRANCH  13  22
ATOM     22  C   UNL     1      -2.829  -7.314  -3.057  0.00  0.00    +0.040 A 
ATOM     23  C   UNL     1      -3.963  -6.502  -2.998  0.00  0.00    +0.013 A 
ATOM     24  C   UNL     1      -5.215  -7.058  -3.167  0.00  0.00    +0.001 A 
ATOM     25  C   UNL     1      -5.347  -8.416  -3.395  0.00  0.00    +0.000 A 
ATOM     26  C   UNL     1      -4.227  -9.226  -3.455  0.00  0.00    +0.004 A 
ATOM     27  C   UNL     1      -2.969  -8.682  -3.293  0.00  0.00    -0.038 A 
ATOM     28  C   UNL     1      -1.750  -9.565  -3.365  0.00  0.00    +0.044 C 
ENDBRANCH  13  22
BRANCH   4  29
ATOM     29  C   UNL     1       0.757  -2.592   2.318  0.00  0.00    +0.236 C 
ATOM     30  O   UNL     1       1.272  -2.237   1.279  0.00  0.00    -0.274 OA
ATOM     31  N   UNL     1       0.920  -1.858   3.436  0.00  0.00    -0.313 N 
ATOM     32  H   UNL     1       0.508  -2.143   4.267  0.00  0.00    +0.149 HD
BRANCH  31  33
ATOM     33  C   UNL     1       1.719  -0.631   3.397  0.00  0.00    +0.107 C 
BRANCH  33  34
ATOM     34  C   UNL     1       1.745   0.005   4.788  0.00  0.00    -0.000 C 
ATOM     35  C   UNL     1       2.475  -0.923   5.761  0.00  0.00    +0.009 C 
ATOM     36  C   UNL     1       2.474   1.349   4.721  0.00  0.00    +0.009 C 
ENDBRANCH  33  34
ENDBRANCH  31  33
ENDBRANCH   4  29
TORSDOF 5
