REMARK  Name = ZINC35330523
REMARK  9 active torsions:
REMARK  status: ('A' for Active; 'I' for Inactive)
REMARK    1  A    between atoms: C_1  and  C_2
REMARK    2  A    between atoms: C_2  and  C_3
REMARK    3  A    between atoms: C_3  and  C_5
REMARK    4  A    between atoms: C_3  and  N_6
REMARK    5  A    between atoms: C_7  and  C_9
REMARK    6  A    between atoms: C_9  and  N_10
REMARK    7  A    between atoms: N_12  and  C_34
REMARK    8  A    between atoms: N_23  and  C_24
REMARK    9  A    between atoms: C_27  and  C_30
REMARK                            x       y       z     vdW  Elec       q    Type
REMARK                         _______ _______ _______ _____ _____    ______ ____
ROOT
ATOM      1  N   UNL     1       0.650   0.507  -6.016  0.00  0.00    -0.275 N 
ATOM      2  C   UNL     1       1.357   1.716  -6.436  0.00  0.00    +0.217 C 
ATOM      3  N   UNL     1       2.158   1.387  -7.621  0.00  0.00    -0.300 N 
ATOM      4  C   UNL     1       1.910  -0.035  -7.891  0.00  0.00    +0.115 C 
ATOM      5  C   UNL     1       0.953  -0.516  -6.832  0.00  0.00    +0.241 C 
ATOM      6  O   UNL     1       0.524  -1.647  -6.732  0.00  0.00    -0.273 OA
ATOM      7  C   UNL     1       1.290  -0.201  -9.278  0.00  0.00    +0.054 C 
ATOM      8  C   UNL     1       2.257   0.343 -10.335  0.00  0.00    +0.112 C 
ATOM      9  N   UNL     1       3.560  -0.315 -10.166  0.00  0.00    -0.285 N 
ATOM     10  C   UNL     1       4.204  -0.280  -8.846  0.00  0.00    +0.112 C 
ATOM     11  C   UNL     1       3.220  -0.818  -7.803  0.00  0.00    +0.054 C 
ATOM     12  C   UNL     1       4.153  -0.940 -11.203  0.00  0.00    +0.306 C 
ATOM     13  O   UNL     1       5.186  -1.558 -11.030  0.00  0.00    -0.252 OA
ATOM     14  N   UNL     1       3.601  -0.879 -12.431  0.00  0.00    -0.269 N 
ATOM     15  H   UNL     1       2.818  -0.328 -12.585  0.00  0.00    +0.156 HD
ENDROOT
BRANCH  14  16
ATOM     16  C   UNL     1       4.157  -1.613 -13.485  0.00  0.00    +0.035 A 
ATOM     17  C   UNL     1       5.334  -2.325 -13.292  0.00  0.00    +0.024 A 
ATOM     18  C   UNL     1       5.880  -3.048 -14.334  0.00  0.00    +0.014 A 
ATOM     19  C   UNL     1       5.257  -3.064 -15.569  0.00  0.00    +0.055 A 
ATOM     20  C   UNL     1       4.086  -2.356 -15.764  0.00  0.00    +0.014 A 
ATOM     21  C   UNL     1       3.531  -1.635 -14.724  0.00  0.00    +0.024 A 
BRANCH  19  22
ATOM     22  C   UNL     1       5.856  -3.854 -16.703  0.00  0.00    +0.417 C 
ATOM     23  F   UNL     1       5.342  -5.155 -16.688  0.00  0.00    -0.166 F 
ATOM     24  F   UNL     1       5.536  -3.241 -17.919  0.00  0.00    -0.166 F 
ATOM     25  F   UNL     1       7.246  -3.901 -16.556  0.00  0.00    -0.166 F 
ENDBRANCH  19  22
ENDBRANCH  14  16
BRANCH   3  26
ATOM     26  C   UNL     1       2.986   2.248  -8.344  0.00  0.00    +0.032 A 
ATOM     27  C   UNL     1       3.058   3.593  -8.003  0.00  0.00    +0.023 A 
ATOM     28  C   UNL     1       3.878   4.442  -8.720  0.00  0.00    +0.002 A 
ATOM     29  C   UNL     1       4.627   3.956  -9.776  0.00  0.00    +0.000 A 
ATOM     30  C   UNL     1       4.558   2.618 -10.118  0.00  0.00    +0.002 A 
ATOM     31  C   UNL     1       3.744   1.762  -9.402  0.00  0.00    +0.023 A 
ENDBRANCH   3  26
BRANCH   1  32
ATOM     32  C   UNL     1      -0.256   0.422  -4.867  0.00  0.00    +0.205 C 
BRANCH  32  34
ATOM     33  N   UNL     1      -0.100  -0.086  -2.451  0.00  0.00    -0.311 N 
ATOM     34  C   UNL     1       0.529   0.050  -3.636  0.00  0.00    +0.231 C 
ATOM     35  O   UNL     1       1.726  -0.127  -3.710  0.00  0.00    -0.274 OA
ATOM     36  H   UNL     1      -1.058   0.056  -2.392  0.00  0.00    +0.149 HD
BRANCH  33  37
ATOM     37  C   UNL     1       0.663  -0.448  -1.254  0.00  0.00    +0.070 C 
ATOM     38  C   UNL     1       0.811  -1.969  -1.184  0.00  0.00    +0.028 C 
BRANCH  37  40
ATOM     39  C   UNL     1      -0.113   1.581  -0.018  0.00  0.00    +0.005 C 
ATOM     40  C   UNL     1      -0.074   0.051  -0.010  0.00  0.00    +0.018 C 
ENDBRANCH  37  40
ENDBRANCH  33  37
ENDBRANCH  32  34
ENDBRANCH   1  32
TORSDOF 7
