REMARK  Name = ZINC11849561
REMARK  10 active torsions:
REMARK  status: ('A' for Active; 'I' for Inactive)
REMARK    1  A    between atoms: C_1  and  C_2
REMARK    2  A    between atoms: C_4  and  C_22
REMARK    3  A    between atoms: C_6  and  O_8
REMARK    4  A    between atoms: O_8  and  C_9
REMARK    5  A    between atoms: C_10  and  O_20
REMARK    6  A    between atoms: C_12  and  C_16
REMARK    7  A    between atoms: C_16  and  C_17
REMARK    8  A    between atoms: C_17  and  C_19
REMARK    9  A    between atoms: C_17  and  N_49
REMARK   10  A    between atoms: O_20  and  C_21
REMARK                            x       y       z     vdW  Elec       q    Type
REMARK                         _______ _______ _______ _____ _____    ______ ____
ROOT
ATOM      1  C   UNL     1       0.002  -0.004   0.002  0.00  0.00    +0.186 A 
ATOM      2  C   UNL     1      -0.017   1.388   0.010  0.00  0.00    +0.164 A 
ATOM      3  C   UNL     1       1.175   2.094   0.002  0.00  0.00    +0.053 A 
ATOM      4  C   UNL     1       2.381   1.416  -0.013  0.00  0.00    -0.044 A 
ATOM      5  C   UNL     1       2.400   0.034  -0.021  0.00  0.00    +0.022 A 
ATOM      6  C   UNL     1       1.214  -0.677  -0.013  0.00  0.00    +0.064 A 
ATOM      7 BR   UNL     1       1.245  -2.568  -0.023  0.00  0.00    -0.046 Br
ENDROOT
BRANCH   2   8
ATOM      8  O   UNL     1      -1.203   2.053   0.019  0.00  0.00    -0.491 OA
ATOM      9  C   UNL     1      -1.146   3.481   0.026  0.00  0.00    +0.277 C 
ENDBRANCH   2   8
BRANCH   1  10
ATOM     10  O   UNL     1      -1.165  -0.702   0.010  0.00  0.00    -0.433 OA
BRANCH  10  16
ATOM     11  C   UNL     1      -0.972  -0.531  -4.747  0.00  0.00    +0.088 C 
ATOM     12  C   UNL     1      -1.673  -0.964  -3.485  0.00  0.00    +0.130 A 
ATOM     13  N   UNL     1      -2.800  -1.637  -3.579  0.00  0.00    -0.232 NA
ATOM     14  C   UNL     1      -3.450  -2.038  -2.487  0.00  0.00    +0.078 A 
ATOM     15  C   UNL     1      -2.918  -1.734  -1.235  0.00  0.00    +0.096 A 
ATOM     16  C   UNL     1      -1.723  -1.022  -1.183  0.00  0.00    +0.224 A 
ATOM     17  N   UNL     1      -1.141  -0.654  -2.320  0.00  0.00    -0.198 NA
BRANCH  14  18
ATOM     18  C   UNL     1      -4.721  -2.795  -2.601  0.00  0.00    +0.001 A 
ATOM     19  C   UNL     1      -5.391  -3.215  -1.453  0.00  0.00    +0.010 A 
ATOM     20  C   UNL     1      -6.575  -3.914  -1.566  0.00  0.00    +0.001 A 
ATOM     21  C   UNL     1      -7.091  -4.209  -2.815  0.00  0.00    +0.000 A 
ATOM     22  C   UNL     1      -6.428  -3.799  -3.957  0.00  0.00    +0.001 A 
ATOM     23  C   UNL     1      -5.246  -3.094  -3.857  0.00  0.00    +0.010 A 
ENDBRANCH  14  18
ENDBRANCH  10  16
ENDBRANCH   1  10
BRANCH   4  24
ATOM     24  C   UNL     1       3.676   2.186  -0.023  0.00  0.00    +0.019 C 
BRANCH  24  25
ATOM     25  C   UNL     1       4.099   2.454  -1.468  0.00  0.00    -0.074 C 
ATOM     26  C   UNL     1       5.346   3.342  -1.478  0.00  0.00    -0.014 C 
BRANCH  25  29
ATOM     27  H   UNL     1       3.613   0.551  -2.084  0.00  0.00    -0.090 HD
ATOM     28  H   UNL     1       4.683   1.330  -3.091  0.00  0.00    -0.090 HD
ATOM     29  N   UNL     1       4.420   1.172  -2.120  0.00  0.00    +0.380 N 
ATOM     30  H   UNL     1       5.205   0.730  -1.628  0.00  0.00    -0.090 HD
ENDBRANCH  25  29
ENDBRANCH  24  25
ENDBRANCH   4  24
TORSDOF 7
