REMARK  Name = ZINC14551140
REMARK  6 active torsions:
REMARK  status: ('A' for Active; 'I' for Inactive)
REMARK    1  A    between atoms: C_4  and  C_7
REMARK    2  A    between atoms: C_7  and  C_8
REMARK    3  A    between atoms: C_8  and  C_9
REMARK    4  A    between atoms: N_11  and  C_12
REMARK    5  A    between atoms: C_25  and  C_28
REMARK    6  A    between atoms: C_31  and  N_34
REMARK                            x       y       z     vdW  Elec       q    Type
REMARK                         _______ _______ _______ _____ _____    ______ ____
ROOT
ATOM      1  C   UNL     1       0.204   0.830   4.820  0.00  0.00    +0.034 A 
ATOM      2  C   UNL     1       1.339   0.053   4.628  0.00  0.00    +0.025 A 
ATOM      3  C   UNL     1       1.986  -0.492   5.718  0.00  0.00    +0.025 A 
ATOM      4  C   UNL     1       1.495  -0.274   7.000  0.00  0.00    +0.031 A 
ATOM      5  C   UNL     1       0.360   0.492   7.199  0.00  0.00    -0.018 A 
ATOM      6  C   UNL     1      -0.283   1.045   6.100  0.00  0.00    +0.029 A 
ATOM      7  C   UNL     1      -0.221   0.755   8.562  0.00  0.00    +0.049 C 
ATOM      8  C   UNL     1      -1.643   0.208   8.564  0.00  0.00    -0.023 C 
ATOM      9  C   UNL     1      -1.669  -0.995   9.082  0.00  0.00    -0.030 C 
ATOM     10  C   UNL     1      -0.274  -1.422   9.502  0.00  0.00    +0.033 C 
ATOM     11  C   UNL     1       0.466  -0.073   9.662  0.00  0.00    +0.029 C 
ATOM     12  C   UNL     1       1.954  -0.235   9.413  0.00  0.00    +0.105 C 
ATOM     13  N   UNL     1       2.167  -0.839   8.093  0.00  0.00    -0.336 N 
ATOM     14  H   UNL     1       2.754  -1.603   7.980  0.00  0.00    +0.147 HD
ENDROOT
BRANCH  12  15
ATOM     15  C   UNL     1       2.620   1.116   9.461  0.00  0.00    -0.027 A 
ATOM     16  C   UNL     1       2.569   1.952   8.361  0.00  0.00    +0.008 A 
ATOM     17  C   UNL     1       3.176   3.192   8.407  0.00  0.00    +0.033 A 
ATOM     18  C   UNL     1       3.844   3.593   9.549  0.00  0.00    +0.126 A 
ATOM     19  C   UNL     1       3.900   2.755  10.647  0.00  0.00    +0.033 A 
ATOM     20  C   UNL     1       3.289   1.516  10.603  0.00  0.00    +0.008 A 
BRANCH  18  21
ATOM     21  N   UNL     1       4.498   4.920   9.597  0.00  0.00    +0.056 N 
ATOM     22  O   UNL     1       5.086   5.274  10.603  0.00  0.00    -0.126 OA
ATOM     23  O   UNL     1       4.448   5.659   8.629  0.00  0.00    -0.126 OA
ENDBRANCH  18  21
ENDBRANCH  12  15
BRANCH   1  26
ATOM     24  C   UNL     1       0.254   1.785   2.640  0.00  0.00    +0.218 C 
ATOM     25  O   UNL     1       1.466   1.741   2.661  0.00  0.00    -0.275 OA
ATOM     26  N   UNL     1      -0.453   1.393   3.718  0.00  0.00    -0.285 N 
ATOM     27  H   UNL     1      -1.417   1.500   3.731  0.00  0.00    +0.155 HD
BRANCH  24  28
ATOM     28  C   UNL     1      -0.461   2.280   1.409  0.00  0.00    +0.101 C 
BRANCH  28  29
ATOM     29  C   UNL     1       0.567   2.659   0.340  0.00  0.00    +0.044 C 
BRANCH  29  33
ATOM     30  C   UNL     1      -1.459   4.061  -3.150  0.00  0.00    +0.000 A 
ATOM     31  C   UNL     1      -1.098   4.951  -2.156  0.00  0.00    +0.000 A 
ATOM     32  C   UNL     1      -0.443   4.497  -1.026  0.00  0.00    +0.003 A 
ATOM     33  C   UNL     1      -0.148   3.153  -0.891  0.00  0.00    -0.047 A 
ATOM     34  C   UNL     1      -0.505   2.264  -1.887  0.00  0.00    +0.003 A 
ATOM     35  C   UNL     1      -1.165   2.717  -3.014  0.00  0.00    +0.000 A 
ENDBRANCH  29  33
ENDBRANCH  28  29
ENDBRANCH  24  28
ENDBRANCH   1  26
TORSDOF 6
