REMARK  Name = ZINC06321049
REMARK  6 active torsions:
REMARK  status: ('A' for Active; 'I' for Inactive)
REMARK    1  A    between atoms: C_1  and  C_2
REMARK    2  A    between atoms: C_6  and  C_15
REMARK    3  A    between atoms: C_13  and  C_14
REMARK    4  A    between atoms: C_15  and  C_17
REMARK    5  A    between atoms: C_15  and  N_67
REMARK    6  A    between atoms: N_21  and  C_22
REMARK                            x       y       z     vdW  Elec       q    Type
REMARK                         _______ _______ _______ _____ _____    ______ ____
ROOT
ATOM      1  C   UNL     1      -4.986   3.842   0.069  0.00  0.00    +0.039 C 
ENDROOT
BRANCH   1   7
ATOM      2  C   UNL     1       2.471   3.924  -0.001  0.00  0.00    +0.044 C 
ATOM      3  C   UNL     1       1.165   3.172   0.008  0.00  0.00    -0.047 A 
ATOM      4  C   UNL     1      -0.014   3.863   0.022  0.00  0.00    +0.013 A 
ATOM      5  C   UNL     1      -1.226   3.165   0.030  0.00  0.00    -0.001 A 
ATOM      6  C   UNL     1      -2.507   3.874   0.046  0.00  0.00    +0.017 A 
ATOM      7  C   UNL     1      -3.650   3.144   0.053  0.00  0.00    +0.011 A 
ATOM      8  C   UNL     1      -3.594   1.734   0.045  0.00  0.00    +0.251 A 
ATOM      9  O   UNL     1      -4.634   1.098   0.052  0.00  0.00    -0.268 OA
ATOM     10  N   UNL     1      -2.422   1.075   0.032  0.00  0.00    -0.322 N 
ATOM     11  H   UNL     1      -2.420   0.105   0.027  0.00  0.00    +0.169 HD
ATOM     12  C   UNL     1      -1.225   1.757   0.017  0.00  0.00    +0.049 A 
ATOM     13  C   UNL     1      -0.013   1.076   0.008  0.00  0.00    +0.030 A 
ATOM     14  C   UNL     1       1.170   1.784   0.001  0.00  0.00    -0.046 A 
ATOM     15  C   UNL     1       2.482   1.043  -0.016  0.00  0.00    +0.044 C 
ENDBRANCH   1   7
BRANCH   1  25
ATOM     16  C   UNL     1      -7.082   4.037   1.269  0.00  0.00    -0.072 C 
ATOM     17  C   UNL     1      -7.990   3.257   2.220  0.00  0.00    +0.017 C 
ATOM     18  C   UNL     1      -7.277   3.009   3.525  0.00  0.00    -0.048 A 
ATOM     19  C   UNL     1      -8.029   2.639   4.630  0.00  0.00    +0.004 A 
ATOM     20  C   UNL     1      -7.414   2.395   5.841  0.00  0.00    +0.000 A 
ATOM     21  C   UNL     1      -6.042   2.520   5.954  0.00  0.00    +0.000 A 
ATOM     22  C   UNL     1      -5.293   2.890   4.855  0.00  0.00    +0.002 A 
ATOM     23  C   UNL     1      -5.909   3.137   3.637  0.00  0.00    -0.061 A 
ATOM     24  C   UNL     1      -5.050   3.543   2.468  0.00  0.00    -0.041 C 
ATOM     25  N   UNL     1      -5.784   3.336   1.208  0.00  0.00    +0.392 N 
ATOM     26  H   UNL     1      -5.951   2.331   1.079  0.00  0.00    -0.080 HD
ENDBRANCH   1  25
BRANCH   1  27
ATOM     27  C   UNL     1      -5.721   3.550  -1.214  0.00  0.00    +0.143 A 
ATOM     28  N   UNL     1      -6.317   2.427  -1.535  0.00  0.00    -0.115 NA
ATOM     29  N   UNL     1      -6.829   2.571  -2.709  0.00  0.00    -0.023 NA
ATOM     30  N   UNL     1      -6.576   3.755  -3.144  0.00  0.00    -0.044 NA
ATOM     31  N   UNL     1      -5.899   4.391  -2.248  0.00  0.00    -0.227 N 
BRANCH  31  32
ATOM     32  C   UNL     1      -5.412   5.770  -2.342  0.00  0.00    +0.111 C 
ATOM     33  C   UNL     1      -6.599   6.720  -2.514  0.00  0.00    +0.027 C 
ATOM     34  C   UNL     1      -6.091   8.159  -2.612  0.00  0.00    +0.002 C 
ATOM     35  C   UNL     1      -5.155   8.289  -3.816  0.00  0.00    +0.000 C 
ATOM     36  C   UNL     1      -3.968   7.340  -3.643  0.00  0.00    +0.002 C 
ATOM     37  C   UNL     1      -4.476   5.900  -3.546  0.00  0.00    +0.027 C 
ENDBRANCH  31  32
ENDBRANCH   1  27
TORSDOF 4
