REMARK  Name = ZINC54200403
REMARK  6 active torsions:
REMARK  status: ('A' for Active; 'I' for Inactive)
REMARK    1  A    between atoms: C_1  and  C_2
REMARK    2  A    between atoms: C_8  and  C_13
REMARK    3  A    between atoms: C_9  and  O_12
REMARK    4  A    between atoms: C_13  and  C_15
REMARK    5  A    between atoms: C_13  and  N_21
REMARK    6  A    between atoms: N_21  and  C_22
REMARK                            x       y       z     vdW  Elec       q    Type
REMARK                         _______ _______ _______ _____ _____    ______ ____
ROOT
ATOM      1  C   UNL     1       0.086  -4.769   3.747  0.00  0.00    +0.136 C 
ENDROOT
BRANCH   1   9
ATOM      2  C   UNL     1       0.135   1.387  -0.179  0.00  0.00    +0.065 C 
ATOM      3  C   UNL     1       0.201  -0.118  -0.138  0.00  0.00    +0.039 A 
ATOM      4  C   UNL     1       0.335  -0.824  -1.332  0.00  0.00    +0.023 A 
ATOM      5  C   UNL     1       0.396  -2.189  -1.314  0.00  0.00    +0.012 A 
ATOM      6  C   UNL     1       0.320  -2.840  -0.068  0.00  0.00    +0.004 A 
ATOM      7  C   UNL     1       0.377  -4.240   0.029  0.00  0.00    +0.010 A 
ATOM      8  C   UNL     1       0.301  -4.836   1.251  0.00  0.00    +0.010 A 
ATOM      9  C   UNL     1       0.167  -4.076   2.411  0.00  0.00    +0.021 A 
ATOM     10  C   UNL     1       0.109  -2.713   2.356  0.00  0.00    +0.148 A 
ATOM     11  C   UNL     1       0.185  -2.061   1.107  0.00  0.00    +0.113 A 
ATOM     12  N   UNL     1       0.136  -0.729   1.020  0.00  0.00    -0.248 NA
BRANCH  10  13
ATOM     13  O   UNL     1      -0.022  -1.988   3.497  0.00  0.00    -0.504 OA
ATOM     14  H   UNL     1       0.819  -1.738   3.903  0.00  0.00    +0.292 HD
ENDBRANCH  10  13
ENDBRANCH   1   9
BRANCH   1  15
ATOM     15  C   UNL     1       1.467  -4.883   4.339  0.00  0.00    -0.005 A 
ATOM     16  C   UNL     1       1.886  -3.993   5.317  0.00  0.00    +0.009 A 
ATOM     17  C   UNL     1       3.165  -4.136   5.833  0.00  0.00    +0.020 A 
ATOM     18  C   UNL     1       3.974  -5.152   5.359  0.00  0.00    +0.111 A 
ATOM     19  N   UNL     1       3.541  -5.979   4.428  0.00  0.00    -0.263 NA
ATOM     20  C   UNL     1       2.329  -5.877   3.919  0.00  0.00    +0.116 A 
ENDBRANCH   1  15
BRANCH   1  21
ATOM     21  N   UNL     1      -0.481  -6.108   3.568  0.00  0.00    -0.333 N 
ATOM     22  H   UNL     1      -0.394  -6.562   2.715  0.00  0.00    +0.147 HD
BRANCH  21  23
ATOM     23  C   UNL     1      -1.144  -6.729   4.622  0.00  0.00    +0.031 A 
ATOM     24  C   UNL     1      -1.284  -6.091   5.854  0.00  0.00    +0.040 A 
ATOM     25  C   UNL     1      -1.949  -6.741   6.873  0.00  0.00    +0.084 A 
ATOM     26  N   UNL     1      -2.447  -7.950   6.693  0.00  0.00    -0.367 N 
ATOM     27  C   UNL     1      -2.334  -8.587   5.543  0.00  0.00    +0.084 A 
ATOM     28  C   UNL     1      -1.690  -8.004   4.472  0.00  0.00    +0.040 A 
ATOM     29  H   UNL     1      -2.910  -8.383   7.428  0.00  0.00    +0.165 HD
ENDBRANCH  21  23
ENDBRANCH   1  21
TORSDOF 5
