REMARK  Name = ZINC04646405
REMARK  6 active torsions:
REMARK  status: ('A' for Active; 'I' for Inactive)
REMARK    1  A    between atoms: C_1  and  C_2
REMARK    2  A    between atoms: C_2  and  C_4
REMARK    3  A    between atoms: C_2  and  N_14
REMARK    4  A    between atoms: C_15  and  C_17
REMARK    5  A    between atoms: C_23  and  O_28
REMARK    6  A    between atoms: O_28  and  C_29
REMARK                            x       y       z     vdW  Elec       q    Type
REMARK                         _______ _______ _______ _____ _____    ______ ____
ROOT
ATOM      1  N   UNL     1       2.494  -2.844  -0.038  0.00  0.00    -0.308 N 
ATOM      2  C   UNL     1       1.313  -2.196  -0.023  0.00  0.00    +0.251 C 
ATOM      3  O   UNL     1       0.273  -2.826  -0.017  0.00  0.00    -0.270 OA
ATOM      4  H   UNL     1       3.324  -2.341  -0.042  0.00  0.00    +0.149 HD
ENDROOT
BRANCH   2   5
ATOM      5  C   UNL     1       1.281  -0.723  -0.014  0.00  0.00    +0.122 A 
ATOM      6  C   UNL     1       2.457   0.007  -0.021  0.00  0.00    +0.032 A 
ATOM      7  C   UNL     1       2.380   1.423  -0.013  0.00  0.00    +0.022 A 
ATOM      8  C   UNL     1       3.553   2.193  -0.019  0.00  0.00    +0.012 A 
ATOM      9  C   UNL     1       3.474   3.556  -0.011  0.00  0.00    +0.004 A 
ATOM     10  C   UNL     1       2.240   4.190   0.004  0.00  0.00    +0.049 A 
ATOM     11  C   UNL     1       1.070   3.453   0.011  0.00  0.00    +0.163 A 
ATOM     12  C   UNL     1       1.127   2.059   0.002  0.00  0.00    +0.180 A 
ATOM     13  O   UNL     1      -0.016   1.339   0.009  0.00  0.00    -0.418 OA
ATOM     14  C   UNL     1       0.002  -0.004   0.002  0.00  0.00    +0.350 A 
ATOM     15  O   UNL     1      -1.044  -0.625   0.008  0.00  0.00    -0.244 OA
BRANCH  11  16
ATOM     16  O   UNL     1      -0.133   4.086   0.025  0.00  0.00    -0.491 OA
ATOM     17  C   UNL     1      -0.115   5.515   0.033  0.00  0.00    +0.277 C 
ENDBRANCH  11  16
ENDBRANCH   2   5
BRANCH   1  19
ATOM     18  C   UNL     1       2.425  -4.830   1.389  0.00  0.00    +0.028 C 
ATOM     19  C   UNL     1       2.526  -4.309  -0.046  0.00  0.00    +0.076 C 
BRANCH  19  20
ATOM     20  C   UNL     1       3.838  -4.787  -0.671  0.00  0.00    -0.010 C 
ATOM     21  C   UNL     1       5.016  -4.256   0.148  0.00  0.00    +0.012 C 
ATOM     22  C   UNL     1       6.328  -4.734  -0.476  0.00  0.00    -0.010 C 
ATOM     23  C   UNL     1       6.361  -6.264  -0.485  0.00  0.00    +0.007 C 
ATOM     24  C   UNL     1       5.183  -6.795  -1.305  0.00  0.00    -0.010 C 
ATOM     25  C   UNL     1       3.871  -6.316  -0.680  0.00  0.00    +0.012 C 
ATOM     26  C   UNL     1       5.285  -6.274  -2.740  0.00  0.00    +0.007 C 
ATOM     27  C   UNL     1       5.252  -4.744  -2.731  0.00  0.00    -0.010 C 
ATOM     28  C   UNL     1       6.430  -4.213  -1.911  0.00  0.00    +0.007 C 
ATOM     29  C   UNL     1       3.939  -4.266  -2.106  0.00  0.00    +0.012 C 
ENDBRANCH  19  20
ENDBRANCH   1  19
TORSDOF 4
