REMARK  Name = ZINC12052052
REMARK  5 active torsions:
REMARK  status: ('A' for Active; 'I' for Inactive)
REMARK    1  A    between atoms: C_4  and  C_7
REMARK    2  A    between atoms: C_7  and  C_8
REMARK    3  A    between atoms: C_8  and  C_15
REMARK    4  A    between atoms: C_20  and  C_21
REMARK    5  A    between atoms: C_20  and  N_58
REMARK                            x       y       z     vdW  Elec       q    Type
REMARK                         _______ _______ _______ _____ _____    ______ ____
ROOT
ATOM      1  C   UNL     1       1.064  -4.210  -1.503  0.00  0.00    +0.018 C 
ATOM      2  C   UNL     1       2.161  -4.859  -0.654  0.00  0.00    -0.013 C 
ATOM      3  C   UNL     1       2.036  -6.382  -0.746  0.00  0.00    -0.078 C 
ATOM      4  C   UNL     1       1.090  -6.229  -2.972  0.00  0.00    -0.078 C 
ATOM      5  C   UNL     1       1.187  -4.702  -2.948  0.00  0.00    -0.013 C 
ATOM      6  N   UNL     1       2.188  -6.793  -2.158  0.00  0.00    +0.382 N 
ATOM      7  H   UNL     1       3.083  -6.437  -2.514  0.00  0.00    -0.081 HD
ENDROOT
BRANCH   1   8
ATOM      8  C   UNL     1       1.221  -2.689  -1.465  0.00  0.00    +0.119 C 
ATOM      9  C   UNL     1       2.487  -2.266  -2.184  0.00  0.00    +0.244 C 
ATOM     10  O   UNL     1       3.627  -2.568  -1.900  0.00  0.00    -0.273 OA
ATOM     11  N   UNL     1       2.083  -1.484  -3.204  0.00  0.00    -0.238 N 
ATOM     12  C   UNL     1       0.751  -1.355  -3.230  0.00  0.00    +0.307 C 
ATOM     13  O   UNL     1       0.152  -0.697  -4.058  0.00  0.00    -0.252 OA
ATOM     14  N   UNL     1       0.150  -2.034  -2.236  0.00  0.00    -0.284 N 
ATOM     15  H   UNL     1       2.683  -1.065  -3.841  0.00  0.00    +0.159 HD
ATOM     16  H   UNL     1      -0.803  -2.084  -2.062  0.00  0.00    +0.151 HD
BRANCH   8  17
ATOM     17  C   UNL     1       1.229  -2.186  -0.021  0.00  0.00    +0.070 C 
BRANCH  17  21
ATOM     18  C   UNL     1       1.171   2.086   0.002  0.00  0.00    +0.000 A 
ATOM     19  C   UNL     1      -0.017   1.378   0.010  0.00  0.00    +0.000 A 
ATOM     20  C   UNL     1       0.002  -0.004   0.002  0.00  0.00    +0.004 A 
ATOM     21  C   UNL     1       1.208  -0.679  -0.013  0.00  0.00    -0.045 A 
ATOM     22  C   UNL     1       2.396   0.029  -0.021  0.00  0.00    +0.004 A 
ATOM     23  C   UNL     1       2.377   1.411  -0.015  0.00  0.00    +0.000 A 
ENDBRANCH  17  21
ENDBRANCH   8  17
ENDBRANCH   1   8
BRANCH   6  24
ATOM     24  C   UNL     1       2.184  -8.267  -2.258  0.00  0.00    -0.043 C 
BRANCH  24  25
ATOM     25  C   UNL     1       3.433  -8.800  -1.605  0.00  0.00    -0.063 A 
ATOM     26  C   UNL     1       4.591  -8.960  -2.365  0.00  0.00    +0.002 A 
ATOM     27  C   UNL     1       5.737  -9.435  -1.805  0.00  0.00    +0.009 A 
ATOM     28  C   UNL     1       5.754  -9.780  -0.443  0.00  0.00    -0.018 A 
ATOM     29  C   UNL     1       6.916 -10.278   0.170  0.00  0.00    +0.008 A 
ATOM     30  C   UNL     1       6.895 -10.603   1.491  0.00  0.00    +0.001 A 
ATOM     31  C   UNL     1       5.737 -10.447   2.250  0.00  0.00    +0.001 A 
ATOM     32  C   UNL     1       4.592  -9.969   1.691  0.00  0.00    +0.008 A 
ATOM     33  C   UNL     1       4.575  -9.623   0.329  0.00  0.00    -0.018 A 
ATOM     34  C   UNL     1       3.412  -9.124  -0.283  0.00  0.00    +0.010 A 
ENDBRANCH  24  25
ENDBRANCH   6  24
TORSDOF 5
