REMARK  Name = ZINC23881354
REMARK  3 active torsions:
REMARK  status: ('A' for Active; 'I' for Inactive)
REMARK    1  A    between atoms: C_8  and  C_10
REMARK    2  A    between atoms: C_20  and  S_23
REMARK    3  A    between atoms: S_23  and  N_26
REMARK                            x       y       z     vdW  Elec       q    Type
REMARK                         _______ _______ _______ _____ _____    ______ ____
ROOT
ATOM      1  C   UNL     1      -1.740   7.231   0.055  0.00  0.00    +0.062 C 
ATOM      2  C   UNL     1      -1.148   7.892   1.303  0.00  0.00    +0.013 C 
ATOM      3  C   UNL     1      -1.462   9.390   1.275  0.00  0.00    +0.020 C 
ATOM      4  C   UNL     1      -0.898  10.002  -0.009  0.00  0.00    +0.106 C 
ATOM      5  N   UNL     1      -1.496   9.336  -1.174  0.00  0.00    -0.315 N 
ATOM      6  C   UNL     1      -1.168   7.905  -1.194  0.00  0.00    +0.116 C 
ATOM      7  C   UNL     1      -1.105   9.954  -2.356  0.00  0.00    +0.121 A 
ATOM      8  C   UNL     1       0.249  10.096  -2.644  0.00  0.00    +0.045 A 
ATOM      9  C   UNL     1       0.624  10.708  -3.826  0.00  0.00    +0.033 A 
ATOM     10  C   UNL     1      -0.371  11.168  -4.679  0.00  0.00    +0.123 A 
ATOM     11  C   UNL     1      -1.694  10.998  -4.328  0.00  0.00    +0.141 A 
ATOM     12  N   UNL     1      -2.023  10.406  -3.195  0.00  0.00    -0.238 NA
ENDROOT
BRANCH   1  20
ATOM     13  C   UNL     1       1.176   1.792   0.001  0.00  0.00    +0.002 A 
ATOM     14  C   UNL     1      -0.013   1.076   0.008  0.00  0.00    +0.001 A 
ATOM     15  C   UNL     1      -1.215   1.757   0.017  0.00  0.00    +0.017 A 
ATOM     16  C   UNL     1      -1.212   3.130   0.030  0.00  0.00    +0.039 A 
ATOM     17  C   UNL     1      -0.017   3.886   0.022  0.00  0.00    +0.078 A 
ATOM     18  C   UNL     1       1.190   3.152   0.007  0.00  0.00    +0.029 A 
ATOM     19  N   UNL     1      -0.201   5.223   0.031  0.00  0.00    -0.244 NA
ATOM     20  C   UNL     1      -1.385   5.767   0.045  0.00  0.00    +0.084 A 
ATOM     21  S   UNL     1      -2.454   4.399   0.048  0.00  0.00    -0.072 S 
ENDBRANCH   1  20
BRANCH  10  22
ATOM     22  S   UNL     1       0.053  11.962  -6.194  0.00  0.00    +0.057 S 
ATOM     23  O   UNL     1       1.354  11.507  -6.541  0.00  0.00    -0.153 OA
ATOM     24  O   UNL     1      -1.064  11.808  -7.059  0.00  0.00    -0.153 OA
BRANCH  22  25
ATOM     25  N   UNL     1       0.186  13.582  -5.878  0.00  0.00    -0.203 NA
ATOM     26  H   UNL     1       0.451  14.115  -6.802  0.00  0.00    +0.144 HD
ATOM     27  H   UNL     1       0.970  13.745  -5.123  0.00  0.00    +0.144 HD
ENDBRANCH  22  25
ENDBRANCH  10  22
TORSDOF 3
