REMARK  Name = ZINC16045712
REMARK  9 active torsions:
REMARK  status: ('A' for Active; 'I' for Inactive)
REMARK    1  A    between atoms: C_3  and  C_6
REMARK    2  A    between atoms: C_6  and  C_8
REMARK    3  A    between atoms: C_6  and  N_54
REMARK    4  A    between atoms: C_8  and  N_9
REMARK    5  A    between atoms: C_10  and  C_12
REMARK    6  A    between atoms: C_12  and  N_13
REMARK    7  A    between atoms: N_13  and  C_14
REMARK    8  A    between atoms: C_17  and  C_23
REMARK    9  A    between atoms: C_19  and  N_20
REMARK                            x       y       z     vdW  Elec       q    Type
REMARK                         _______ _______ _______ _____ _____    ______ ____
ROOT
ATOM      1  N   UNL     1       1.408   0.988   0.766  0.00  0.00    -0.315 N 
ATOM      2  C   UNL     1       1.244   2.240   1.238  0.00  0.00    +0.230 C 
ATOM      3  O   UNL     1       0.247   2.525   1.867  0.00  0.00    -0.274 OA
ATOM      4  H   UNL     1       2.205   0.760   0.262  0.00  0.00    +0.149 HD
ENDROOT
BRANCH   1   5
ATOM      5  C   UNL     1       0.383  -0.029   1.014  0.00  0.00    +0.096 C 
BRANCH   5   6
ATOM      6  C   UNL     1       0.868  -1.381   0.490  0.00  0.00    +0.016 C 
BRANCH   6  12
ATOM      7  C   UNL     1       2.666  -2.998   0.617  0.00  0.00    -0.078 C 
ATOM      8  C   UNL     1       4.055  -3.255   1.206  0.00  0.00    -0.019 C 
ATOM      9  C   UNL     1       3.954  -3.312   2.733  0.00  0.00    -0.004 C 
ATOM     10  C   UNL     1       3.358  -1.999   3.247  0.00  0.00    -0.019 C 
ATOM     11  C   UNL     1       1.989  -1.778   2.599  0.00  0.00    -0.078 C 
ATOM     12  N   UNL     1       2.159  -1.708   1.132  0.00  0.00    +0.387 N 
ATOM     13  H   UNL     1       2.837  -0.970   0.910  0.00  0.00    -0.081 HD
ENDBRANCH   6  12
BRANCH   6  16
ATOM     14  C   UNL     1      -1.747  -3.974   0.620  0.00  0.00    +0.041 A 
ATOM     15  C   UNL     1      -0.938  -3.066  -0.101  0.00  0.00    +0.043 A 
ATOM     16  C   UNL     1      -0.160  -2.439   0.799  0.00  0.00    +0.093 A 
ATOM     17  O   UNL     1      -0.459  -2.910   2.021  0.00  0.00    -0.469 OA
ATOM     18  C   UNL     1      -1.421  -3.841   1.918  0.00  0.00    +0.195 A 
ENDBRANCH   6  16
ENDBRANCH   5   6
ENDBRANCH   1   5
BRANCH   2  19
ATOM     19  C   UNL     1       2.299   3.285   0.983  0.00  0.00    +0.197 C 
BRANCH  19  20
ATOM     20  N   UNL     1       1.888   4.552   1.593  0.00  0.00    -0.334 N 
ATOM     21  H   UNL     1       1.045   4.610   2.070  0.00  0.00    +0.147 HD
BRANCH  20  22
ATOM     22  C   UNL     1       2.710   5.676   1.489  0.00  0.00    +0.058 A 
ATOM     23  C   UNL     1       3.972   5.566   0.919  0.00  0.00    +0.026 A 
ATOM     24  C   UNL     1       4.782   6.679   0.817  0.00  0.00    +0.014 A 
ATOM     25  C   UNL     1       4.339   7.904   1.283  0.00  0.00    +0.057 A 
ATOM     26  C   UNL     1       3.084   8.018   1.851  0.00  0.00    +0.047 A 
ATOM     27  C   UNL     1       2.266   6.909   1.950  0.00  0.00    +0.147 A 
BRANCH  25  28
ATOM     28  C   UNL     1       5.226   9.117   1.170  0.00  0.00    +0.417 C 
ATOM     29  F   UNL     1       6.435   8.756   0.566  0.00  0.00    -0.166 F 
ATOM     30  F   UNL     1       4.589  10.090   0.393  0.00  0.00    -0.166 F 
ATOM     31  F   UNL     1       5.478   9.631   2.446  0.00  0.00    -0.166 F 
ENDBRANCH  25  28
BRANCH  27  32
ATOM     32  N   UNL     1       0.920   7.033   2.553  0.00  0.00    +0.058 N 
ATOM     33  O   UNL     1      -0.013   6.397   2.096  0.00  0.00    -0.126 OA
ATOM     34  O   UNL     1       0.745   7.770   3.507  0.00  0.00    -0.126 OA
ENDBRANCH  27  32
ENDBRANCH  20  22
ENDBRANCH  19  20
ENDBRANCH   2  19
TORSDOF 9
