REMARK  Name = ZINC46714833
REMARK  9 active torsions:
REMARK  status: ('A' for Active; 'I' for Inactive)
REMARK    1  A    between atoms: C_1  and  C_2
REMARK    2  A    between atoms: C_5  and  C_7
REMARK    3  A    between atoms: N_9  and  C_10
REMARK    4  A    between atoms: C_10  and  C_11
REMARK    5  A    between atoms: N_13  and  C_14
REMARK    6  A    between atoms: C_14  and  C_15
REMARK    7  A    between atoms: C_20  and  C_21
REMARK    8  A    between atoms: C_21  and  N_22
REMARK    9  A    between atoms: C_26  and  C_29
REMARK                            x       y       z     vdW  Elec       q    Type
REMARK                         _______ _______ _______ _____ _____    ______ ____
ROOT
ATOM      1  C   UNL     1       6.694  -6.402  -0.066  0.00  0.00    +0.139 C 
ENDROOT
BRANCH   1   2
ATOM      2  C   UNL     1       7.281  -7.790  -0.076  0.00  0.00    -0.029 A 
ATOM      3  C   UNL     1       7.742  -8.355   1.099  0.00  0.00    +0.005 A 
ATOM      4  C   UNL     1       8.280  -9.628   1.089  0.00  0.00    +0.000 A 
ATOM      5  C   UNL     1       8.357 -10.337  -0.096  0.00  0.00    +0.000 A 
ATOM      6  C   UNL     1       7.896  -9.773  -1.270  0.00  0.00    +0.002 A 
ATOM      7  C   UNL     1       7.353  -8.501  -1.259  0.00  0.00    -0.059 A 
BRANCH   7   8
ATOM      8  C   UNL     1       6.845  -7.888  -2.539  0.00  0.00    -0.043 C 
BRANCH   8   9
ATOM      9  N   UNL     1       7.854  -6.965  -3.074  0.00  0.00    +0.383 N 
ATOM     10  C   UNL     1       9.057  -7.720  -3.446  0.00  0.00    -0.078 C 
ATOM     11  C   UNL     1      10.141  -6.753  -3.929  0.00  0.00    -0.018 C 
ATOM     12  C   UNL     1       9.624  -5.981  -5.146  0.00  0.00    -0.001 C 
ATOM     13  C   UNL     1       8.328  -5.258  -4.767  0.00  0.00    -0.031 C 
ATOM     14  C   UNL     1       7.311  -6.279  -4.253  0.00  0.00    -0.075 C 
ATOM     15  C   UNL     1       7.762  -4.546  -5.997  0.00  0.00    +0.005 C 
ATOM     16  H   UNL     1       8.092  -6.283  -2.370  0.00  0.00    -0.081 HD
ENDBRANCH   8   9
ENDBRANCH   7   8
ENDBRANCH   1   2
BRANCH   1  19
ATOM     17  C   UNL     1       4.488  -5.366  -0.049  0.00  0.00    +0.230 C 
ATOM     18  O   UNL     1       5.030  -4.281  -0.046  0.00  0.00    -0.274 OA
ATOM     19  N   UNL     1       5.231  -6.491  -0.059  0.00  0.00    -0.310 N 
ATOM     20  H   UNL     1       4.798  -7.358  -0.062  0.00  0.00    +0.149 HD
BRANCH  17  21
ATOM     21  C   UNL     1       2.984  -5.457  -0.043  0.00  0.00    +0.200 C 
BRANCH  21  24
ATOM     22  C   UNL     1       1.076  -3.942  -0.025  0.00  0.00    +0.251 C 
ATOM     23  O   UNL     1       0.342  -4.913  -0.028  0.00  0.00    -0.270 OA
ATOM     24  N   UNL     1       2.413  -4.108  -0.033  0.00  0.00    -0.302 N 
ATOM     25  H   UNL     1       2.998  -3.334  -0.031  0.00  0.00    +0.150 HD
BRANCH  22  30
ATOM     26  C   UNL     1      -0.018   1.503   0.010  0.00  0.00    +0.051 C 
ATOM     27  C   UNL     1       0.002  -0.004   0.002  0.00  0.00    -0.013 A 
ATOM     28  C   UNL     1      -1.056  -0.852   0.002  0.00  0.00    +0.011 A 
ATOM     29  C   UNL     1      -0.827  -2.207  -0.007  0.00  0.00    +0.021 A 
ATOM     30  C   UNL     1       0.505  -2.592  -0.015  0.00  0.00    +0.074 A 
ATOM     31  S   UNL     1       1.341  -1.018  -0.017  0.00  0.00    -0.089 S 
ENDBRANCH  22  30
ENDBRANCH  21  24
ENDBRANCH  17  21
ENDBRANCH   1  19
TORSDOF 7
