REMARK  Name = ZINC12275965
REMARK  9 active torsions:
REMARK  status: ('A' for Active; 'I' for Inactive)
REMARK    1  A    between atoms: C_1  and  C_2
REMARK    2  A    between atoms: C_2  and  O_3
REMARK    3  A    between atoms: O_3  and  C_4
REMARK    4  A    between atoms: C_6  and  C_12
REMARK    5  A    between atoms: C_9  and  O_10
REMARK    6  A    between atoms: O_10  and  C_11
REMARK    7  A    between atoms: C_19  and  C_20
REMARK    8  A    between atoms: C_24  and  C_25
REMARK    9  A    between atoms: C_24  and  O_32
REMARK                            x       y       z     vdW  Elec       q    Type
REMARK                         _______ _______ _______ _____ _____    ______ ____
ROOT
ATOM      1  C   UNL     1       1.269   2.223   0.002  0.00  0.00    +0.071 C 
ATOM      2  C   UNL     1       1.066   3.542  -0.739  0.00  0.00    +0.110 C 
ATOM      3  C   UNL     1      -0.189   4.237  -0.288  0.00  0.00    +0.224 C 
ATOM      4  O   UNL     1      -0.208   5.441  -0.144  0.00  0.00    -0.275 OA
ATOM      5  N   UNL     1      -1.310   3.490  -0.042  0.00  0.00    -0.231 N 
ATOM      6  C   UNL     1      -1.190   2.109   0.019  0.00  0.00    +0.087 C 
ATOM      7  C   UNL     1      -0.017   1.428   0.010  0.00  0.00    +0.065 C 
ATOM      8  S   UNL     1      -2.833   1.460   0.133  0.00  0.00    -0.104 S 
ATOM      9  C   UNL     1      -3.767   3.035   0.224  0.00  0.00    +0.136 C 
ATOM     10  C   UNL     1      -2.628   4.066   0.153  0.00  0.00    +0.175 C 
ENDROOT
BRANCH  10  11
ATOM     11  C   UNL     1      -2.619   4.858   1.436  0.00  0.00    +0.004 A 
ATOM     12  C   UNL     1      -1.720   4.541   2.437  0.00  0.00    +0.009 A 
ATOM     13  C   UNL     1      -1.707   5.271   3.611  0.00  0.00    +0.020 A 
ATOM     14  C   UNL     1      -2.602   6.311   3.789  0.00  0.00    +0.041 A 
ATOM     15  C   UNL     1      -3.505   6.623   2.789  0.00  0.00    +0.020 A 
ATOM     16  C   UNL     1      -3.513   5.897   1.613  0.00  0.00    +0.009 A 
ATOM     17 CL   UNL     1      -2.592   7.222   5.266  0.00  0.00    -0.084 Cl
ENDBRANCH  10  11
BRANCH   1  20
ATOM     18  C   UNL     1       4.486   0.348  -0.637  0.00  0.00    +0.162 A 
ATOM     19  C   UNL     1       3.495   1.081  -0.003  0.00  0.00    +0.053 A 
ATOM     20  C   UNL     1       2.345   1.425  -0.689  0.00  0.00    -0.035 A 
ATOM     21  C   UNL     1       2.177   1.035  -2.004  0.00  0.00    +0.008 A 
ATOM     22  C   UNL     1       3.164   0.308  -2.644  0.00  0.00    +0.050 A 
ATOM     23  C   UNL     1       4.320  -0.040  -1.962  0.00  0.00    +0.162 A 
BRANCH  23  24
ATOM     24  O   UNL     1       5.289  -0.760  -2.588  0.00  0.00    -0.491 OA
ATOM     25  C   UNL     1       5.050  -1.124  -3.949  0.00  0.00    +0.277 C 
ENDBRANCH  23  24
BRANCH  18  26
ATOM     26  O   UNL     1       5.618   0.009   0.036  0.00  0.00    -0.489 OA
BRANCH  26  28
ATOM     27  C   UNL     1       7.051  -0.032   1.981  0.00  0.00    +0.048 C 
ATOM     28  C   UNL     1       5.720   0.441   1.394  0.00  0.00    +0.226 C 
ENDBRANCH  26  28
ENDBRANCH  18  26
ENDBRANCH   1  20
BRANCH   7  29
ATOM     29  C   UNL     1       0.002  -0.004   0.002  0.00  0.00    +0.098 C 
ATOM     30  N   UNL     1       0.018  -1.140  -0.004  0.00  0.00    -0.191 NA
ENDBRANCH   7  29
BRANCH  10  31
ATOM     31  O   UNL     1      -2.897   4.961  -0.928  0.00  0.00    -0.366 OA
ATOM     32  H   UNL     1      -3.761   5.392  -0.876  0.00  0.00    +0.212 HD
ENDBRANCH  10  31
TORSDOF 7
