REMARK  Name = ZINC39456900
REMARK  5 active torsions:
REMARK  status: ('A' for Active; 'I' for Inactive)
REMARK    1  A    between atoms: C_1  and  C_2
REMARK    2  A    between atoms: C_3  and  C_29
REMARK    3  A    between atoms: N_6  and  C_7
REMARK    4  A    between atoms: C_12  and  O_13
REMARK    5  A    between atoms: C_34  and  O_35
REMARK                            x       y       z     vdW  Elec       q    Type
REMARK                         _______ _______ _______ _____ _____    ______ ____
ROOT
ATOM      1  C   UNL     1      -0.018   1.503   0.010  0.00  0.00    +0.064 C 
ATOM      2  C   UNL     1       0.002  -0.004   0.002  0.00  0.00    +0.030 A 
ATOM      3  C   UNL     1       0.008  -0.802  -1.117  0.00  0.00    +0.010 A 
ATOM      4  C   UNL     1       0.038  -2.152  -0.677  0.00  0.00    -0.012 A 
ATOM      5  C   UNL     1      -0.030  -2.127   0.679  0.00  0.00    +0.075 A 
ATOM      6  N   UNL     1       0.024  -0.802   1.095  0.00  0.00    -0.308 N 
ATOM      7  C   UNL     1      -0.237  -3.200   1.585  0.00  0.00    +0.078 A 
ATOM      8  C   UNL     1      -0.151  -4.551   1.228  0.00  0.00    +0.090 A 
ATOM      9  C   UNL     1      -0.795  -5.536   2.126  0.00  0.00    +0.200 A 
ATOM     10  C   UNL     1      -1.520  -5.019   3.300  0.00  0.00    +0.046 A 
ATOM     11  C   UNL     1      -2.359  -5.838   4.055  0.00  0.00    +0.014 A 
ATOM     12  C   UNL     1      -3.009  -5.318   5.154  0.00  0.00    +0.001 A 
ATOM     13  C   UNL     1      -2.831  -3.989   5.510  0.00  0.00    +0.002 A 
ATOM     14  C   UNL     1      -2.009  -3.167   4.770  0.00  0.00    +0.026 A 
ATOM     15  C   UNL     1      -1.348  -3.670   3.655  0.00  0.00    +0.051 A 
ATOM     16  N   UNL     1      -0.538  -2.862   2.884  0.00  0.00    -0.352 N 
ATOM     17  O   UNL     1      -0.728  -6.732   1.903  0.00  0.00    -0.286 OA
ATOM     18  C   UNL     1       0.551  -5.028   0.140  0.00  0.00    +0.169 C 
ATOM     19  O   UNL     1       0.741  -6.227   0.170  0.00  0.00    -0.292 OA
ATOM     20  C   UNL     1       1.116  -4.366  -1.054  0.00  0.00    +0.084 C 
ATOM     21  C   UNL     1       0.206  -3.299  -1.638  0.00  0.00    +0.046 C 
ATOM     22  H   UNL     1      -0.175  -2.046   3.262  0.00  0.00    +0.166 HD
ENDROOT
BRANCH   6  23
ATOM     23  C   UNL     1       0.087  -0.365   2.425  0.00  0.00    +0.089 A 
ATOM     24  C   UNL     1      -1.081  -0.123   3.134  0.00  0.00    +0.030 A 
ATOM     25  C   UNL     1      -1.017   0.308   4.445  0.00  0.00    +0.002 A 
ATOM     26  C   UNL     1       0.210   0.499   5.054  0.00  0.00    +0.004 A 
ATOM     27  C   UNL     1       1.378   0.260   4.355  0.00  0.00    +0.047 A 
ATOM     28  C   UNL     1       1.322  -0.178   3.041  0.00  0.00    +0.141 A 
BRANCH  28  29
ATOM     29  O   UNL     1       2.470  -0.418   2.354  0.00  0.00    -0.505 OA
ATOM     30  H   UNL     1       2.812   0.351   1.879  0.00  0.00    +0.292 HD
ENDBRANCH  28  29
ENDBRANCH   6  23
BRANCH   3  31
ATOM     31  C   UNL     1      -0.013  -0.338  -2.526  0.00  0.00    +0.026 A 
ATOM     32  C   UNL     1       1.181  -0.102  -3.203  0.00  0.00    +0.012 A 
ATOM     33  C   UNL     1       1.156   0.329  -4.514  0.00  0.00    +0.001 A 
ATOM     34  C   UNL     1      -0.051   0.528  -5.159  0.00  0.00    +0.004 A 
ATOM     35  C   UNL     1      -1.242   0.297  -4.496  0.00  0.00    +0.046 A 
ATOM     36  C   UNL     1      -1.231  -0.142  -3.182  0.00  0.00    +0.125 A 
BRANCH  36  37
ATOM     37  O   UNL     1      -2.401  -0.375  -2.532  0.00  0.00    -0.506 OA
ATOM     38  H   UNL     1      -2.753   0.397  -2.067  0.00  0.00    +0.292 HD
ENDBRANCH  36  37
ENDBRANCH   3  31
TORSDOF 4
