REMARK  Name = ZINC02294203
REMARK  7 active torsions:
REMARK  status: ('A' for Active; 'I' for Inactive)
REMARK    1  A    between atoms: C_1  and  O_2
REMARK    2  A    between atoms: O_2  and  C_3
REMARK    3  A    between atoms: C_8  and  O_9
REMARK    4  A    between atoms: O_9  and  C_10
REMARK    5  A    between atoms: C_14  and  C_16
REMARK    6  A    between atoms: N_23  and  C_26
REMARK    7  A    between atoms: C_24  and  O_25
REMARK                            x       y       z     vdW  Elec       q    Type
REMARK                         _______ _______ _______ _____ _____    ______ ____
ROOT
ATOM      1  C   UNL     1       0.074   1.597   0.509  0.00  0.00    +0.121 A 
ATOM      2  C   UNL     1       1.191   2.249  -0.043  0.00  0.00    +0.265 A 
ATOM      3  O   UNL     1       2.270   1.683  -0.091  0.00  0.00    -0.267 OA
ATOM      4  N   UNL     1       1.062   3.503  -0.518  0.00  0.00    -0.274 N 
ATOM      5  H   UNL     1       1.855   3.969  -0.911  0.00  0.00    +0.173 HD
ATOM      6  C   UNL     1      -0.125   4.134  -0.467  0.00  0.00    +0.336 A 
ATOM      7  O   UNL     1      -0.221   5.266  -0.901  0.00  0.00    -0.246 OA
ATOM      8  N   UNL     1      -1.208   3.531   0.056  0.00  0.00    -0.232 N 
ATOM      9  C   UNL     1      -1.122   2.251   0.547  0.00  0.00    +0.214 A 
ENDROOT
BRANCH   1  19
ATOM     10  C   UNL     1       3.230  -0.282   3.993  0.00  0.00    +0.162 A 
ATOM     11  C   UNL     1       2.186   0.561   4.335  0.00  0.00    +0.050 A 
ATOM     12  C   UNL     1       1.147   0.783   3.445  0.00  0.00    +0.012 A 
ATOM     13  C   UNL     1       1.147   0.168   2.216  0.00  0.00    +0.015 A 
ATOM     14  C   UNL     1       2.193  -0.687   1.852  0.00  0.00    +0.111 A 
ATOM     15  C   UNL     1       3.242  -0.911   2.751  0.00  0.00    +0.176 A 
ATOM     16  C   UNL     1       1.920  -1.190   0.497  0.00  0.00    +0.344 C 
ATOM     17  O   UNL     1       2.635  -1.957  -0.117  0.00  0.00    -0.245 OA
ATOM     18  O   UNL     1       0.766  -0.679   0.034  0.00  0.00    -0.448 OA
ATOM     19  C   UNL     1       0.195   0.195   1.046  0.00  0.00    +0.248 C 
BRANCH  10  21
ATOM     20  C   UNL     1       4.170   0.182   6.127  0.00  0.00    +0.277 C 
ATOM     21  O   UNL     1       4.246  -0.495   4.871  0.00  0.00    -0.491 OA
ENDBRANCH  10  21
BRANCH  15  22
ATOM     22  O   UNL     1       4.265  -1.738   2.415  0.00  0.00    -0.491 OA
ATOM     23  C   UNL     1       5.388  -1.147   1.759  0.00  0.00    +0.277 C 
ENDBRANCH  15  22
ENDBRANCH   1  19
BRANCH   8  24
ATOM     24  C   UNL     1      -2.433   4.211   0.096  0.00  0.00    +0.054 A 
ATOM     25  C   UNL     1      -2.769   4.973   1.207  0.00  0.00    +0.027 A 
ATOM     26  C   UNL     1      -3.975   5.646   1.241  0.00  0.00    +0.017 A 
ATOM     27  C   UNL     1      -4.852   5.553   0.175  0.00  0.00    +0.018 A 
ATOM     28  C   UNL     1      -4.521   4.789  -0.930  0.00  0.00    +0.017 A 
ATOM     29  C   UNL     1      -3.315   4.118  -0.972  0.00  0.00    +0.027 A 
ATOM     30 BR   UNL     1      -6.505   6.469   0.229  0.00  0.00    -0.050 Br
ENDBRANCH   8  24
BRANCH   9  31
ATOM     31  O   UNL     1      -2.212   1.646   1.067  0.00  0.00    -0.493 OA
ATOM     32  H   UNL     1      -3.026   2.160   0.978  0.00  0.00    +0.294 HD
ENDBRANCH   9  31
TORSDOF 5
