REMARK  Name = ZINC13064500
REMARK  13 active torsions:
REMARK  status: ('A' for Active; 'I' for Inactive)
REMARK    1  A    between atoms: C_1  and  C_2
REMARK    2  A    between atoms: C_2  and  C_3
REMARK    3  A    between atoms: C_3  and  C_5
REMARK    4  A    between atoms: C_3  and  N_71
REMARK    5  A    between atoms: N_9  and  C_10
REMARK    6  A    between atoms: C_16  and  C_17
REMARK    7  A    between atoms: C_16  and  N_71
REMARK    8  A    between atoms: C_22  and  C_23
REMARK    9  A    between atoms: C_22  and  N_71
REMARK   10  A    between atoms: C_27  and  O_37
REMARK   11  A    between atoms: C_28  and  O_35
REMARK   12  A    between atoms: O_35  and  C_36
REMARK   13  A    between atoms: O_37  and  C_38
REMARK                            x       y       z     vdW  Elec       q    Type
REMARK                         _______ _______ _______ _____ _____    ______ ____
ROOT
ATOM      1  N   UNL     1      -5.855   3.109  -1.408  0.00  0.00    +0.392 N 
ATOM      2  H   UNL     1      -5.999   2.094  -1.355  0.00  0.00    -0.080 HD
ENDROOT
BRANCH   1   3
ATOM      3  C   UNL     1      -7.171   3.782  -1.399  0.00  0.00    +0.003 C 
BRANCH   3   4
ATOM      4  C   UNL     1      -7.006   5.268  -1.592  0.00  0.00    +0.138 A 
ATOM      5  N   UNL     1      -6.123   5.865  -2.354  0.00  0.00    -0.115 NA
ATOM      6  N   UNL     1      -6.304   7.136  -2.252  0.00  0.00    -0.023 NA
ATOM      7  N   UNL     1      -7.276   7.366  -1.439  0.00  0.00    -0.044 NA
ATOM      8  N   UNL     1      -7.735   6.239  -1.011  0.00  0.00    -0.228 N 
BRANCH   8   9
ATOM      9  C   UNL     1      -8.841   6.051  -0.069  0.00  0.00    +0.111 C 
ATOM     10  C   UNL     1     -10.152   6.486  -0.729  0.00  0.00    +0.027 C 
ATOM     11  C   UNL     1     -11.307   6.290   0.254  0.00  0.00    +0.002 C 
ATOM     12  C   UNL     1     -11.062   7.136   1.505  0.00  0.00    +0.000 C 
ATOM     13  C   UNL     1      -9.751   6.702   2.165  0.00  0.00    +0.002 C 
ATOM     14  C   UNL     1      -8.596   6.897   1.182  0.00  0.00    +0.027 C 
ENDBRANCH   8   9
ENDBRANCH   3   4
BRANCH   3  16
ATOM     15  C   UNL     1      -8.281   1.725  -2.280  0.00  0.00    +0.002 C 
ATOM     16  C   UNL     1      -8.026   3.212  -2.533  0.00  0.00    -0.011 C 
ENDBRANCH   3  16
ENDBRANCH   1   3
BRANCH   1  17
ATOM     17  C   UNL     1      -5.134   3.427  -2.659  0.00  0.00    -0.034 C 
BRANCH  17  18
ATOM     18  C   UNL     1      -4.052   2.398  -2.867  0.00  0.00    -0.027 A 
ATOM     19  C   UNL     1      -4.109   1.226  -3.545  0.00  0.00    +0.009 A 
ATOM     20  C   UNL     1      -2.979   0.432  -3.606  0.00  0.00    +0.008 A 
ATOM     21  C   UNL     1      -1.848   0.849  -2.986  0.00  0.00    +0.045 A 
ATOM     22  S   UNL     1      -2.362   2.411  -2.291  0.00  0.00    -0.103 S 
ENDBRANCH  17  18
ENDBRANCH   1  17
BRANCH   1  23
ATOM     23  C   UNL     1      -5.058   3.543  -0.241  0.00  0.00    -0.036 C 
BRANCH  23  24
ATOM     24  C   UNL     1      -5.546   2.804   0.978  0.00  0.00    +0.001 A 
ATOM     25  C   UNL     1      -4.953   1.640   1.346  0.00  0.00    +0.017 A 
ATOM     26  C   UNL     1      -5.453   0.944   2.531  0.00  0.00    +0.002 A 
ATOM     27  C   UNL     1      -4.890  -0.270   2.947  0.00  0.00    +0.059 A 
ATOM     28  C   UNL     1      -5.383  -0.901   4.067  0.00  0.00    +0.162 A 
ATOM     29  C   UNL     1      -6.441  -0.335   4.787  0.00  0.00    +0.163 A 
ATOM     30  C   UNL     1      -7.004   0.861   4.385  0.00  0.00    +0.075 A 
ATOM     31  C   UNL     1      -6.521   1.509   3.254  0.00  0.00    +0.053 A 
ATOM     32  N   UNL     1      -7.074   2.701   2.833  0.00  0.00    -0.322 N 
ATOM     33  H   UNL     1      -7.807   3.092   3.333  0.00  0.00    +0.169 HD
ATOM     34  C   UNL     1      -6.610   3.330   1.739  0.00  0.00    +0.251 A 
ATOM     35  O   UNL     1      -7.122   4.382   1.396  0.00  0.00    -0.268 OA
BRANCH  29  36
ATOM     36  O   UNL     1      -6.919  -0.968   5.890  0.00  0.00    -0.491 OA
ATOM     37  C   UNL     1      -8.000  -0.339   6.581  0.00  0.00    +0.277 C 
ENDBRANCH  29  36
BRANCH  28  38
ATOM     38  O   UNL     1      -4.839  -2.079   4.475  0.00  0.00    -0.491 OA
ATOM     39  C   UNL     1      -3.762  -2.601   3.695  0.00  0.00    +0.277 C 
ENDBRANCH  28  38
ENDBRANCH  23  24
ENDBRANCH   1  23
TORSDOF 10
