REMARK  Name = ZINC02616750
REMARK  8 active torsions:
REMARK  status: ('A' for Active; 'I' for Inactive)
REMARK    1  A    between atoms: C_3  and  S_22
REMARK    2  A    between atoms: C_6  and  C_7
REMARK    3  A    between atoms: C_7  and  C_8
REMARK    4  A    between atoms: C_8  and  N_9
REMARK    5  A    between atoms: C_10  and  C_12
REMARK    6  A    between atoms: C_12  and  O_13
REMARK    7  A    between atoms: O_13  and  C_14
REMARK    8  A    between atoms: S_22  and  N_25
REMARK                            x       y       z     vdW  Elec       q    Type
REMARK                         _______ _______ _______ _____ _____    ______ ____
ROOT
ATOM      1  C   UNL     1       0.002  -0.004   0.002  0.00  0.00    +0.109 C 
ENDROOT
BRANCH   1   2
ATOM      2  N   UNL     1      -0.018   1.461   0.010  0.00  0.00    -0.312 N 
ATOM      3  C   UNL     1       1.140   2.151   0.003  0.00  0.00    +0.251 C 
ATOM      4  O   UNL     1       2.199   1.558  -0.011  0.00  0.00    -0.272 OA
ATOM      5  H   UNL     1      -0.864   1.934   0.017  0.00  0.00    +0.149 HD
BRANCH   3   6
ATOM      6  C   UNL     1       1.120   3.657   0.011  0.00  0.00    +0.324 C 
BRANCH   6   7
ATOM      7  O   UNL     1       2.460   4.152   0.001  0.00  0.00    -0.481 OA
BRANCH   7   8
ATOM      8  C   UNL     1       2.620   5.502   0.007  0.00  0.00    +0.141 A 
ATOM      9  C   UNL     1       1.510   6.333   0.016  0.00  0.00    +0.067 A 
ATOM     10  C   UNL     1       1.675   7.705   0.026  0.00  0.00    +0.045 A 
ATOM     11  C   UNL     1       2.947   8.250   0.017  0.00  0.00    +0.021 A 
ATOM     12  C   UNL     1       4.055   7.424   0.003  0.00  0.00    +0.025 A 
ATOM     13  C   UNL     1       3.895   6.051  -0.003  0.00  0.00    +0.083 A 
ATOM     14 CL   UNL     1       5.287   5.014  -0.020  0.00  0.00    -0.080 Cl
ATOM     15 CL   UNL     1       0.285   8.746   0.044  0.00  0.00    -0.083 Cl
ENDBRANCH   7   8
ENDBRANCH   6   7
ENDBRANCH   3   6
ENDBRANCH   1   2
BRANCH   1  16
ATOM     16  C   UNL     1      -1.433  -0.534   0.013  0.00  0.00    +0.054 C 
BRANCH  16  22
ATOM     17  C   UNL     1      -1.421  -2.725  -1.196  0.00  0.00    +0.005 A 
ATOM     18  C   UNL     1      -1.397  -4.107  -1.204  0.00  0.00    +0.029 A 
ATOM     19  C   UNL     1      -1.376  -4.805  -0.011  0.00  0.00    +0.105 A 
ATOM     20  C   UNL     1      -1.373  -4.120   1.190  0.00  0.00    +0.029 A 
ATOM     21  C   UNL     1      -1.392  -2.738   1.198  0.00  0.00    +0.005 A 
ATOM     22  C   UNL     1      -1.413  -2.041   0.005  0.00  0.00    -0.046 A 
BRANCH  19  23
ATOM     23  S   UNL     1      -1.351  -6.567  -0.020  0.00  0.00    +0.056 S 
ATOM     24  O   UNL     1      -0.807  -6.958  -1.273  0.00  0.00    -0.153 OA
ATOM     25  O   UNL     1      -0.781  -6.972   1.217  0.00  0.00    -0.153 OA
BRANCH  23  26
ATOM     26  N   UNL     1      -2.925  -7.079  -0.007  0.00  0.00    -0.204 NA
ATOM     27  H   UNL     1      -3.646  -6.430   0.004  0.00  0.00    +0.144 HD
ATOM     28  H   UNL     1      -3.127  -8.028  -0.010  0.00  0.00    +0.144 HD
ENDBRANCH  23  26
ENDBRANCH  19  23
ENDBRANCH  16  22
ENDBRANCH   1  16
TORSDOF 8
