REMARK  Name = ZINC64623242
REMARK  9 active torsions:
REMARK  status: ('A' for Active; 'I' for Inactive)
REMARK    1  A    between atoms: C_1  and  C_2
REMARK    2  A    between atoms: C_2  and  O_3
REMARK    3  A    between atoms: O_3  and  C_4
REMARK    4  A    between atoms: C_4  and  C_6
REMARK    5  A    between atoms: C_10  and  N_12
REMARK    6  A    between atoms: C_21  and  O_37
REMARK    7  A    between atoms: C_28  and  C_30
REMARK    8  A    between atoms: C_33  and  C_36
REMARK    9  A    between atoms: O_37  and  C_38
REMARK                            x       y       z     vdW  Elec       q    Type
REMARK                         _______ _______ _______ _____ _____    ______ ____
ROOT
ATOM      1  N   UNL     1       1.069  -6.159   5.062  0.00  0.00    -0.269 N 
ATOM      2  C   UNL     1       2.236  -6.472   5.658  0.00  0.00    +0.307 C 
ATOM      3  O   UNL     1       2.769  -5.676   6.406  0.00  0.00    -0.252 OA
ATOM      4  N   UNL     1       2.812  -7.668   5.425  0.00  0.00    -0.276 N 
ATOM      5  C   UNL     1       2.225  -8.576   4.434  0.00  0.00    +0.114 C 
ATOM      6  C   UNL     1       3.275  -8.907   3.357  0.00  0.00    +0.052 C 
ATOM      7  C   UNL     1       4.557  -9.224   4.086  0.00  0.00    -0.035 C 
ATOM      8  C   UNL     1       5.378 -10.263   4.007  0.00  0.00    +0.003 A 
ATOM      9  C   UNL     1       5.404 -11.429   3.111  0.00  0.00    +0.055 A 
ATOM     10  C   UNL     1       6.395 -12.338   3.320  0.00  0.00    +0.121 A 
ATOM     11  C   UNL     1       7.369 -12.220   4.322  0.00  0.00    +0.047 A 
ATOM     12  C   UNL     1       7.444 -11.184   5.196  0.00  0.00    +0.029 A 
ATOM     13  C   UNL     1       6.428 -10.130   5.064  0.00  0.00    +0.043 A 
ATOM     14  N   UNL     1       6.266  -9.028   5.731  0.00  0.00    -0.375 N 
ATOM     15  C   UNL     1       5.140  -8.298   5.148  0.00  0.00    +0.131 C 
ATOM     16  C   UNL     1       4.027  -8.047   6.164  0.00  0.00    +0.134 C 
ATOM     17  H   UNL     1       0.612  -6.817   4.514  0.00  0.00    +0.156 HD
ATOM     18  H   UNL     1       6.799  -8.739   6.488  0.00  0.00    +0.160 HD
ENDROOT
BRANCH  16  19
ATOM     19  C   UNL     1       4.430  -6.929   7.091  0.00  0.00    -0.025 A 
ATOM     20  C   UNL     1       5.001  -5.779   6.581  0.00  0.00    +0.006 A 
ATOM     21  C   UNL     1       5.370  -4.754   7.432  0.00  0.00    +0.004 A 
ATOM     22  C   UNL     1       5.167  -4.879   8.793  0.00  0.00    -0.050 A 
ATOM     23  C   UNL     1       4.595  -6.029   9.304  0.00  0.00    +0.004 A 
ATOM     24  C   UNL     1       4.222  -7.053   8.453  0.00  0.00    +0.006 A 
ATOM     25  C   UNL     1       5.571  -3.763   9.721  0.00  0.00    +0.044 C 
ENDBRANCH  16  19
BRANCH   1  30
ATOM     26  C   UNL     1      -0.682  -2.993   4.351  0.00  0.00    +0.061 A 
ATOM     27  C   UNL     1      -0.576  -2.357   5.590  0.00  0.00    +0.015 A 
ATOM     28  C   UNL     1       0.070  -2.985   6.635  0.00  0.00    +0.003 A 
ATOM     29  C   UNL     1       0.615  -4.244   6.461  0.00  0.00    +0.023 A 
ATOM     30  C   UNL     1       0.515  -4.885   5.232  0.00  0.00    +0.036 A 
ATOM     31  C   UNL     1      -0.137  -4.266   4.178  0.00  0.00    +0.038 A 
BRANCH  26  32
ATOM     32  C   UNL     1      -1.374  -2.324   3.231  0.00  0.00    +0.339 C 
ATOM     33  O   UNL     1      -1.469  -2.881   2.155  0.00  0.00    -0.245 OA
BRANCH  32  34
ATOM     34  O   UNL     1      -1.899  -1.095   3.401  0.00  0.00    -0.461 OA
BRANCH  34  36
ATOM     35  C   UNL     1      -3.082   0.876   2.657  0.00  0.00    +0.048 C 
ATOM     36  C   UNL     1      -2.554  -0.508   2.275  0.00  0.00    +0.229 C 
ENDBRANCH  34  36
ENDBRANCH  32  34
ENDBRANCH  26  32
ENDBRANCH   1  30
BRANCH  10  37
ATOM     37  O   UNL     1       6.445 -13.427   2.507  0.00  0.00    -0.495 OA
ATOM     38  C   UNL     1       7.494 -14.367   2.745  0.00  0.00    +0.277 C 
ENDBRANCH  10  37
TORSDOF 6
