REMARK  Name = ZINC23220262
REMARK  3 active torsions:
REMARK  status: ('A' for Active; 'I' for Inactive)
REMARK    1  A    between atoms: C_1  and  C_2
REMARK    2  A    between atoms: N_11  and  C_15
REMARK    3  A    between atoms: C_15  and  C_16
REMARK                            x       y       z     vdW  Elec       q    Type
REMARK                         _______ _______ _______ _____ _____    ______ ____
ROOT
ATOM      1  C   UNL     1      -5.130   0.918  -2.573  0.00  0.00    +0.010 C 
ATOM      2  C   UNL     1      -4.949  -0.574  -2.288  0.00  0.00    +0.018 C 
ATOM      3  C   UNL     1      -4.532  -1.292  -3.575  0.00  0.00    +0.006 C 
ATOM      4  C   UNL     1      -4.332  -2.781  -3.284  0.00  0.00    +0.000 C 
ATOM      5  C   UNL     1      -3.232  -2.954  -2.235  0.00  0.00    +0.003 C 
ATOM      6  C   UNL     1      -3.643  -2.242  -0.944  0.00  0.00    +0.035 C 
ATOM      7  C   UNL     1      -3.872  -0.762  -1.226  0.00  0.00    +0.115 C 
ATOM      8  C   UNL     1      -2.586  -0.099  -1.662  0.00  0.00    +0.247 C 
ATOM      9  O   UNL     1      -1.921  -0.360  -2.642  0.00  0.00    -0.273 OA
ATOM     10  N   UNL     1      -2.332   0.843  -0.731  0.00  0.00    -0.224 N 
ATOM     11  C   UNL     1      -3.277   0.867   0.217  0.00  0.00    +0.309 C 
ATOM     12  O   UNL     1      -3.269   1.633   1.161  0.00  0.00    -0.252 OA
ATOM     13  N   UNL     1      -4.237  -0.053   0.007  0.00  0.00    -0.285 N 
ATOM     14  H   UNL     1      -5.152  -0.332   0.551  0.00  0.00    +0.151 HD
ENDROOT
BRANCH  10  15
ATOM     15  C   UNL     1      -1.169   1.734  -0.756  0.00  0.00    +0.124 C 
BRANCH  15  16
ATOM     16  C   UNL     1      -0.013   1.086   0.008  0.00  0.00    +0.045 C 
ATOM     17  C   UNL     1       0.484   1.792   1.271  0.00  0.00    +0.047 C 
ATOM     18  C   UNL     1       1.335   1.811  -0.001  0.00  0.00    +0.123 C 
ATOM     19 CL   UNL     1       2.825   0.797  -0.021  0.00  0.00    -0.101 Cl
ATOM     20 CL   UNL     1       1.438   3.364  -0.911  0.00  0.00    -0.101 Cl
ENDBRANCH  15  16
ENDBRANCH  10  15
TORSDOF 2
