REMARK  Name = ZINC11880192
REMARK  14 active torsions:
REMARK  status: ('A' for Active; 'I' for Inactive)
REMARK    1  A    between atoms: C_1  and  C_2
REMARK    2  A    between atoms: C_2  and  O_3
REMARK    3  A    between atoms: O_3  and  C_4
REMARK    4  A    between atoms: C_10  and  C_33
REMARK    5  A    between atoms: C_17  and  C_20
REMARK    6  A    between atoms: N_22  and  C_23
REMARK    7  A    between atoms: C_23  and  C_25
REMARK    8  A    between atoms: C_23  and  C_26
REMARK    9  A    between atoms: C_26  and  C_27
REMARK   10  A    between atoms: C_27  and  C_28
REMARK   11  A    between atoms: C_28  and  C_29
REMARK   12  A    between atoms: C_29  and  C_30
REMARK   13  A    between atoms: C_29  and  C_31
REMARK   14  A    between atoms: C_29  and  O_32
REMARK                            x       y       z     vdW  Elec       q    Type
REMARK                         _______ _______ _______ _____ _____    ______ ____
ROOT
ATOM      1  C   UNL     1      -4.236   1.823   0.154  0.00  0.00    +0.121 A 
ATOM      2  C   UNL     1      -4.838   2.274   1.333  0.00  0.00    +0.048 A 
ATOM      3  C   UNL     1      -4.104   2.479   2.461  0.00  0.00    +0.032 A 
ATOM      4  C   UNL     1      -2.720   2.251   2.441  0.00  0.00    +0.077 A 
ATOM      5  C   UNL     1      -2.107   1.798   1.244  0.00  0.00    +0.025 A 
ATOM      6  C   UNL     1      -2.891   1.586   0.101  0.00  0.00    +0.057 A 
ATOM      7  C   UNL     1      -0.718   1.572   1.248  0.00  0.00    +0.051 A 
ATOM      8  N   UNL     1      -0.048   1.799   2.358  0.00  0.00    -0.219 NA
ATOM      9  C   UNL     1      -0.655   2.229   3.463  0.00  0.00    +0.219 A 
ATOM     10  N   UNL     1      -1.953   2.453   3.520  0.00  0.00    -0.214 NA
ATOM     11  N   UNL     1       0.107   2.449   4.597  0.00  0.00    -0.300 N 
ATOM     12  C   UNL     1       1.201   3.389   4.322  0.00  0.00    +0.108 C 
ATOM     13  C   UNL     1       2.106   3.496   5.551  0.00  0.00    +0.032 C 
ATOM     14  C   UNL     1       1.279   3.980   6.746  0.00  0.00    +0.078 C 
ATOM     15  C   UNL     1       0.119   3.010   6.981  0.00  0.00    +0.032 C 
ATOM     16  C   UNL     1      -0.728   2.917   5.710  0.00  0.00    +0.108 C 
ATOM     17  C   UNL     1      -0.013   1.086   0.008  0.00  0.00    +0.066 C 
ENDROOT
BRANCH  14  18
ATOM     18  C   UNL     1       2.151   4.030   7.974  0.00  0.00    +0.216 C 
ATOM     19  O   UNL     1       1.872   3.356   8.943  0.00  0.00    -0.276 OA
ATOM     20  N   UNL     1       3.240   4.824   7.996  0.00  0.00    -0.312 N 
ATOM     21  H   UNL     1       3.463   5.363   7.221  0.00  0.00    +0.149 HD
BRANCH  20  22
ATOM     22  C   UNL     1       4.088   4.872   9.190  0.00  0.00    +0.070 C 
ATOM     23  C   UNL     1       3.512   5.883  10.183  0.00  0.00    +0.028 C 
BRANCH  22  24
ATOM     24  C   UNL     1       5.503   5.296   8.794  0.00  0.00    +0.022 C 
BRANCH  24  25
ATOM     25  C   UNL     1       6.125   4.222   7.899  0.00  0.00    +0.005 C 
BRANCH  25  26
ATOM     26  C   UNL     1       7.541   4.646   7.503  0.00  0.00    +0.034 C 
BRANCH  26  27
ATOM     27  C   UNL     1       8.163   3.572   6.608  0.00  0.00    +0.061 C 
ATOM     28  C   UNL     1       9.620   3.934   6.314  0.00  0.00    +0.041 C 
ATOM     29  C   UNL     1       8.108   2.219   7.322  0.00  0.00    +0.041 C 
BRANCH  27  30
ATOM     30  O   UNL     1       7.435   3.493   5.381  0.00  0.00    -0.389 OA
ATOM     31  H   UNL     1       7.775   2.831   4.764  0.00  0.00    +0.210 HD
ENDBRANCH  27  30
ENDBRANCH  26  27
ENDBRANCH  25  26
ENDBRANCH  24  25
ENDBRANCH  22  24
ENDBRANCH  20  22
ENDBRANCH  14  18
BRANCH   1  32
ATOM     32  O   UNL     1      -4.998   1.619  -0.953  0.00  0.00    -0.492 OA
BRANCH  32  34
ATOM     33  C   UNL     1      -7.085   1.598  -2.171  0.00  0.00    +0.048 C 
ATOM     34  C   UNL     1      -6.397   1.884  -0.835  0.00  0.00    +0.225 C 
ENDBRANCH  32  34
ENDBRANCH   1  32
TORSDOF 9
