REMARK  Name = ZINC49563874
REMARK  4 active torsions:
REMARK  status: ('A' for Active; 'I' for Inactive)
REMARK    1  A    between atoms: C_3  and  S_9
REMARK    2  A    between atoms: C_4  and  N_8
REMARK    3  A    between atoms: S_9  and  N_12
REMARK    4  A    between atoms: N_12  and  C_13
REMARK                            x       y       z     vdW  Elec       q    Type
REMARK                         _______ _______ _______ _____ _____    ______ ____
ROOT
ATOM      1  S   UNL     1       3.949   2.314   0.021  0.00  0.00    +0.060 S 
ATOM      2  O   UNL     1       4.837   1.761  -0.941  0.00  0.00    -0.153 OA
ATOM      3  O   UNL     1       3.468   3.648  -0.065  0.00  0.00    -0.153 OA
ENDROOT
BRANCH   1   6
ATOM      4  C   UNL     1       1.336  -0.634  -0.770  0.00  0.00    +0.017 A 
ATOM      5  C   UNL     1       2.448   0.187  -0.798  0.00  0.00    +0.031 A 
ATOM      6  C   UNL     1       2.531   1.269   0.057  0.00  0.00    +0.126 A 
ATOM      7  C   UNL     1       1.496   1.532   0.945  0.00  0.00    +0.052 A 
ATOM      8  C   UNL     1       0.380   0.706   0.971  0.00  0.00    +0.040 A 
ATOM      9  C   UNL     1       0.303  -0.376   0.114  0.00  0.00    +0.020 A 
ATOM     10 BR   UNL     1      -1.216  -1.502   0.147  0.00  0.00    -0.050 Br
BRANCH   7  11
ATOM     11  N   UNL     1       1.577   2.625   1.811  0.00  0.00    -0.356 N 
ATOM     12  H   UNL     1       2.326   3.238   1.749  0.00  0.00    +0.142 HD
ATOM     13  H   UNL     1       0.885   2.771   2.475  0.00  0.00    +0.142 HD
ENDBRANCH   7  11
ENDBRANCH   1   6
BRANCH   1  14
ATOM     14  N   UNL     1       4.698   2.174   1.491  0.00  0.00    -0.188 NA
ATOM     15  H   UNL     1       4.747   2.939   2.085  0.00  0.00    +0.148 HD
BRANCH  14  16
ATOM     16  C   UNL     1       5.286   0.894   1.895  0.00  0.00    +0.061 C 
ATOM     17  C   UNL     1       4.355   0.159   2.881  0.00  0.00    +0.000 C 
ATOM     18  C   UNL     1       5.309  -0.566   3.845  0.00  0.00    -0.077 C 
ATOM     19  N   UNL     1       6.629   0.066   3.730  0.00  0.00    +0.383 N 
ATOM     20  C   UNL     1       6.580   1.125   2.697  0.00  0.00    -0.050 C 
ATOM     21  C   UNL     1       6.438   2.450   3.485  0.00  0.00    -0.016 C 
ATOM     22  C   UNL     1       7.287   2.167   4.751  0.00  0.00    -0.020 C 
ATOM     23  C   UNL     1       7.025   0.665   5.015  0.00  0.00    -0.078 C 
ATOM     24  H   UNL     1       7.311  -0.624   3.454  0.00  0.00    -0.081 HD
ENDBRANCH  14  16
ENDBRANCH   1  14
TORSDOF 4
