REMARK  Name = ZINC61518760
REMARK  3 active torsions:
REMARK  status: ('A' for Active; 'I' for Inactive)
REMARK    1  A    between atoms: C_1  and  O_2
REMARK    2  A    between atoms: O_2  and  C_3
REMARK    3  A    between atoms: C_8  and  N_9
REMARK                            x       y       z     vdW  Elec       q    Type
REMARK                         _______ _______ _______ _____ _____    ______ ____
ROOT
ATOM      1  N   UNL     1       0.096  -2.777  -0.112  0.00  0.00    -0.281 N 
ATOM      2  C   UNL     1       0.557  -4.059   0.112  0.00  0.00    +0.225 A 
ATOM      3  N   UNL     1       1.606  -4.519  -0.564  0.00  0.00    -0.184 NA
ATOM      4  C   UNL     1       2.045  -5.747  -0.347  0.00  0.00    +0.228 A 
ATOM      5  N   UNL     1       1.441  -6.519   0.544  0.00  0.00    -0.187 NA
ATOM      6  C   UNL     1       0.396  -6.065   1.219  0.00  0.00    +0.228 A 
ATOM      7  N   UNL     1      -0.044  -4.836   1.010  0.00  0.00    -0.184 NA
ATOM      8 CL   UNL     1      -0.392  -7.082   2.385  0.00  0.00    -0.041 Cl
ATOM      9 CL   UNL     1       3.413  -6.347  -1.230  0.00  0.00    -0.041 Cl
ATOM     10  H   UNL     1      -0.611  -2.411   0.443  0.00  0.00    +0.155 HD
ENDROOT
BRANCH   1  16
ATOM     11  C   UNL     1       0.594  -0.614  -1.077  0.00  0.00    +0.141 A 
ATOM     12  C   UNL     1       1.148   0.146  -2.095  0.00  0.00    +0.048 A 
ATOM     13  C   UNL     1       1.748  -0.476  -3.174  0.00  0.00    +0.019 A 
ATOM     14  C   UNL     1       1.798  -1.857  -3.241  0.00  0.00    +0.020 A 
ATOM     15  C   UNL     1       1.248  -2.622  -2.230  0.00  0.00    +0.042 A 
ATOM     16  C   UNL     1       0.649  -2.004  -1.141  0.00  0.00    +0.077 A 
ATOM     17 BR   UNL     1       2.621  -2.700  -4.721  0.00  0.00    -0.050 Br
BRANCH  11  19
ATOM     18  C   UNL     1      -0.018   1.425  -0.017  0.00  0.00    +0.277 C 
ATOM     19  O   UNL     1       0.002  -0.003  -0.016  0.00  0.00    -0.493 OA
ENDBRANCH  11  19
ENDBRANCH   1  16
TORSDOF 2
