REMARK  Name = ZINC34261835
REMARK  9 active torsions:
REMARK  status: ('A' for Active; 'I' for Inactive)
REMARK    1  A    between atoms: C_1  and  C_2
REMARK    2  A    between atoms: C_3  and  C_4
REMARK    3  A    between atoms: C_4  and  N_5
REMARK    4  A    between atoms: C_10  and  C_32
REMARK    5  A    between atoms: C_13  and  C_18
REMARK    6  A    between atoms: C_13  and  C_29
REMARK    7  A    between atoms: C_18  and  C_19
REMARK    8  A    between atoms: C_37  and  O_38
REMARK    9  A    between atoms: O_38  and  C_39
REMARK                            x       y       z     vdW  Elec       q    Type
REMARK                         _______ _______ _______ _____ _____    ______ ____
ROOT
ATOM      1  N   UNL     1      -3.479  -0.406  -0.999  0.00  0.00    -0.238 N 
ATOM      2  C   UNL     1      -3.391   0.206  -2.225  0.00  0.00    +0.225 C 
ATOM      3  O   UNL     1      -2.572   1.024  -2.586  0.00  0.00    -0.275 OA
ATOM      4  C   UNL     1      -4.486  -0.339  -2.988  0.00  0.00    +0.077 C 
ATOM      5  C   UNL     1      -4.920  -0.523  -4.384  0.00  0.00    -0.023 C 
ATOM      6  N   UNL     1      -6.106  -1.433  -4.228  0.00  0.00    +0.396 N 
ATOM      7  C   UNL     1      -5.960  -2.157  -2.930  0.00  0.00    +0.052 C 
ATOM      8  C   UNL     1      -4.538  -1.825  -2.452  0.00  0.00    +0.086 C 
ATOM      9  C   UNL     1      -4.324  -1.479  -1.004  0.00  0.00    +0.225 C 
ATOM     10  O   UNL     1      -4.804  -2.038  -0.041  0.00  0.00    -0.275 OA
ATOM     11  H   UNL     1      -6.956  -0.889  -4.222  0.00  0.00    -0.083 HD
ATOM     12  H   UNL     1      -6.130  -2.097  -4.988  0.00  0.00    -0.083 HD
ENDROOT
BRANCH   5  13
ATOM     13  C   UNL     1      -5.327   0.792  -4.997  0.00  0.00    -0.019 A 
ATOM     14  C   UNL     1      -5.576   1.885  -4.189  0.00  0.00    +0.005 A 
ATOM     15  C   UNL     1      -5.950   3.091  -4.752  0.00  0.00    +0.000 A 
ATOM     16  C   UNL     1      -6.075   3.207  -6.124  0.00  0.00    +0.004 A 
ATOM     17  C   UNL     1      -5.827   2.118  -6.936  0.00  0.00    +0.046 A 
ATOM     18  C   UNL     1      -5.447   0.908  -6.375  0.00  0.00    +0.122 A 
BRANCH  18  19
ATOM     19  O   UNL     1      -5.197  -0.164  -7.172  0.00  0.00    -0.495 OA
ATOM     20  C   UNL     1      -5.340   0.028  -8.581  0.00  0.00    +0.277 C 
ENDBRANCH  18  19
ENDBRANCH   5  13
BRANCH   7  21
ATOM     21  C   UNL     1      -6.093  -3.643  -3.142  0.00  0.00    +0.347 C 
ATOM     22  O   UNL     1      -6.318  -4.081  -4.257  0.00  0.00    -0.248 OA
ATOM     23  O   UNL     1      -5.975  -4.406  -2.199  0.00  0.00    -0.248 OA
ENDBRANCH   7  21
BRANCH   1  24
ATOM     24  C   UNL     1      -2.743   0.042   0.186  0.00  0.00    +0.143 C 
BRANCH  24  27
ATOM     25  C   UNL     1      -0.372   1.553   0.353  0.00  0.00    +0.035 C 
ATOM     26  C   UNL     1      -0.305   0.048   0.318  0.00  0.00    -0.033 C 
ATOM     27  C   UNL     1      -1.408  -0.655   0.240  0.00  0.00    -0.012 C 
ENDBRANCH  24  27
ENDBRANCH   1  24
BRANCH   7  28
ATOM     28  C   UNL     1      -7.009  -1.667  -1.929  0.00  0.00    +0.037 C 
BRANCH  28  29
ATOM     29  C   UNL     1      -8.387  -1.955  -2.466  0.00  0.00    -0.023 A 
ATOM     30  C   UNL     1      -9.166  -1.111  -3.162  0.00  0.00    +0.087 A 
ATOM     31  N   UNL     1     -10.348  -1.721  -3.481  0.00  0.00    -0.360 N 
ATOM     32  H   UNL     1     -11.070  -1.310  -3.981  0.00  0.00    +0.165 HD
ATOM     33  C   UNL     1     -10.360  -3.006  -2.986  0.00  0.00    +0.047 A 
ATOM     34  C   UNL     1      -9.130  -3.211  -2.334  0.00  0.00    +0.003 A 
ATOM     35  C   UNL     1      -8.856  -4.441  -1.735  0.00  0.00    +0.010 A 
ATOM     36  C   UNL     1      -9.784  -5.443  -1.787  0.00  0.00    +0.001 A 
ATOM     37  C   UNL     1     -10.997  -5.247  -2.432  0.00  0.00    +0.002 A 
ATOM     38  C   UNL     1     -11.292  -4.038  -3.022  0.00  0.00    +0.026 A 
ENDBRANCH  28  29
ENDBRANCH   7  28
TORSDOF 7
