REMARK  Name = ZINC58581701
REMARK  7 active torsions:
REMARK  status: ('A' for Active; 'I' for Inactive)
REMARK    1  A    between atoms: C_1  and  C_2
REMARK    2  A    between atoms: N_4  and  C_5
REMARK    3  A    between atoms: C_5  and  C_7
REMARK    4  A    between atoms: C_5  and  C_18
REMARK    5  A    between atoms: C_7  and  C_8
REMARK    6  A    between atoms: N_20  and  C_21
REMARK    7  A    between atoms: C_21  and  C_22
REMARK                            x       y       z     vdW  Elec       q    Type
REMARK                         _______ _______ _______ _____ _____    ______ ____
ROOT
ATOM      1  C   UNL     1      -0.431  -2.645  -1.239  0.00  0.00    +0.234 C 
ATOM      2  O   UNL     1       0.315  -1.903  -1.842  0.00  0.00    -0.274 OA
ATOM      3  N   UNL     1      -0.628  -3.904  -1.677  0.00  0.00    -0.313 N 
ATOM      4  H   UNL     1      -1.225  -4.497  -1.194  0.00  0.00    +0.149 HD
ENDROOT
BRANCH   1   5
ATOM      5  C   UNL     1      -1.136  -2.159   0.001  0.00  0.00    +0.163 C 
BRANCH   5   9
ATOM      6  C   UNL     1      -0.018   1.503   0.010  0.00  0.00    +0.109 C 
ATOM      7  C   UNL     1       0.002  -0.004   0.002  0.00  0.00    +0.211 C 
ATOM      8  O   UNL     1       1.060  -0.596  -0.011  0.00  0.00    -0.276 OA
ATOM      9  N   UNL     1      -1.156  -0.694   0.009  0.00  0.00    -0.304 N 
ATOM     10  H   UNL     1      -2.002  -0.220   0.020  0.00  0.00    +0.149 HD
ENDBRANCH   5   9
BRANCH   5  11
ATOM     11  C   UNL     1      -0.396  -2.665   1.241  0.00  0.00    +0.069 C 
BRANCH  11  12
ATOM     12  C   UNL     1      -1.168  -2.284   2.478  0.00  0.00    -0.020 A 
ATOM     13  C   UNL     1      -0.972  -1.195   3.237  0.00  0.00    +0.087 A 
ATOM     14  N   UNL     1      -1.862  -1.183   4.276  0.00  0.00    -0.360 N 
ATOM     15  H   UNL     1      -1.914  -0.496   4.958  0.00  0.00    +0.165 HD
ATOM     16  C   UNL     1      -2.674  -2.293   4.209  0.00  0.00    +0.047 A 
ATOM     17  C   UNL     1      -2.279  -3.028   3.076  0.00  0.00    +0.003 A 
ATOM     18  C   UNL     1      -2.938  -4.215   2.750  0.00  0.00    +0.010 A 
ATOM     19  C   UNL     1      -3.968  -4.655   3.533  0.00  0.00    +0.001 A 
ATOM     20  C   UNL     1      -4.364  -3.932   4.650  0.00  0.00    +0.002 A 
ATOM     21  C   UNL     1      -3.721  -2.763   4.994  0.00  0.00    +0.026 A 
ENDBRANCH  11  12
ENDBRANCH   5  11
ENDBRANCH   1   5
BRANCH   3  22
ATOM     22  C   UNL     1       0.057  -4.376  -2.882  0.00  0.00    +0.108 C 
BRANCH  22  23
ATOM     23  C   UNL     1      -0.338  -5.828  -3.158  0.00  0.00    +0.019 C 
ATOM     24  C   UNL     1      -1.833  -5.889  -3.465  0.00  0.00    +0.018 C 
ATOM     25  C   UNL     1      -2.095  -6.472  -4.870  0.00  0.00    +0.050 C 
ATOM     26  C   UNL     1      -1.394  -7.822  -4.884  0.00  0.00    -0.036 A 
ATOM     27  C   UNL     1      -2.005  -9.015  -5.142  0.00  0.00    +0.004 A 
ATOM     28  C   UNL     1      -1.243 -10.176  -5.122  0.00  0.00    +0.000 A 
ATOM     29  C   UNL     1       0.111 -10.120  -4.845  0.00  0.00    +0.000 A 
ATOM     30  C   UNL     1       0.726  -8.902  -4.583  0.00  0.00    +0.004 A 
ATOM     31  C   UNL     1      -0.030  -7.765  -4.605  0.00  0.00    -0.036 A 
ATOM     32  C   UNL     1       0.499  -6.364  -4.339  0.00  0.00    +0.054 C 
ATOM     33  C   UNL     1       0.069  -5.543  -5.544  0.00  0.00    -0.036 A 
ATOM     34  C   UNL     1      -1.292  -5.599  -5.824  0.00  0.00    -0.036 A 
ATOM     35  C   UNL     1      -1.818  -4.910  -6.878  0.00  0.00    +0.004 A 
ATOM     36  C   UNL     1      -0.968  -4.148  -7.670  0.00  0.00    +0.000 A 
ATOM     37  C   UNL     1       0.385  -4.091  -7.392  0.00  0.00    +0.000 A 
ATOM     38  C   UNL     1       0.909  -4.795  -6.319  0.00  0.00    +0.004 A 
ENDBRANCH  22  23
ENDBRANCH   3  22
TORSDOF 6
