REMARK  Name = ZINC08985222
REMARK  13 active torsions:
REMARK  status: ('A' for Active; 'I' for Inactive)
REMARK    1  A    between atoms: C_1  and  C_2
REMARK    2  A    between atoms: C_2  and  C_3
REMARK    3  A    between atoms: C_4  and  C_30
REMARK    4  A    between atoms: C_6  and  N_13
REMARK    5  A    between atoms: C_7  and  C_8
REMARK    6  A    between atoms: C_8  and  O_10
REMARK    7  A    between atoms: O_10  and  C_11
REMARK    8  A    between atoms: C_11  and  C_12
REMARK    9  A    between atoms: C_14  and  C_16
REMARK   10  A    between atoms: C_16  and  S_17
REMARK   11  A    between atoms: S_17  and  C_18
REMARK   12  A    between atoms: C_21  and  C_24
REMARK   13  A    between atoms: N_22  and  N_23
REMARK                            x       y       z     vdW  Elec       q    Type
REMARK                         _______ _______ _______ _____ _____    ______ ____
ROOT
ATOM      1  N   UNL     1      -1.115   2.233   0.020  0.00  0.00    -0.279 N 
ATOM      2  C   UNL     1      -0.936   3.569   0.026  0.00  0.00    +0.228 C 
ATOM      3  O   UNL     1       0.186   4.030   0.023  0.00  0.00    -0.275 OA
ATOM      4  H   UNL     1      -2.011   1.864   0.022  0.00  0.00    +0.155 HD
ENDROOT
BRANCH   1   8
ATOM      5  C   UNL     1       1.301  -0.635  -0.014  0.00  0.00    -0.022 A 
ATOM      6  C   UNL     1       2.376   0.173  -0.020  0.00  0.00    -0.008 A 
ATOM      7  S   UNL     1       1.663   1.805  -0.004  0.00  0.00    -0.078 S 
ATOM      8  C   UNL     1      -0.017   1.387   0.010  0.00  0.00    +0.086 A 
ATOM      9  C   UNL     1       0.002  -0.004   0.002  0.00  0.00    +0.091 A 
ATOM     10  C   UNL     1       3.833  -0.211  -0.036  0.00  0.00    +0.052 C 
BRANCH   5  12
ATOM     11  C   UNL     1       1.480  -2.635  -1.468  0.00  0.00    +0.009 C 
ATOM     12  C   UNL     1       1.445  -2.135  -0.023  0.00  0.00    +0.033 C 
ENDBRANCH   5  12
BRANCH   9  13
ATOM     13  C   UNL     1      -1.234  -0.789   0.010  0.00  0.00    +0.342 C 
ATOM     14  O   UNL     1      -1.757  -1.110  -1.040  0.00  0.00    -0.245 OA
BRANCH  13  15
ATOM     15  O   UNL     1      -1.792  -1.157   1.182  0.00  0.00    -0.461 OA
BRANCH  15  16
ATOM     16  C   UNL     1      -3.016  -1.934   1.114  0.00  0.00    +0.229 C 
ATOM     17  C   UNL     1      -3.496  -2.255   2.531  0.00  0.00    +0.048 C 
ENDBRANCH  15  16
ENDBRANCH  13  15
ENDBRANCH   9  13
ENDBRANCH   1   8
BRANCH   2  18
ATOM     18  C   UNL     1      -2.129   4.489   0.037  0.00  0.00    +0.173 C 
BRANCH  18  19
ATOM     19  S   UNL     1      -1.565   6.209   0.044  0.00  0.00    -0.075 S 
BRANCH  19  20
ATOM     20  C   UNL     1      -3.119   7.040   0.056  0.00  0.00    +0.209 A 
ATOM     21  N   UNL     1      -4.305   6.478   0.059  0.00  0.00    -0.121 NA
ATOM     22  N   UNL     1      -5.217   7.383   0.069  0.00  0.00    -0.132 NA
ATOM     23  C   UNL     1      -4.672   8.567   0.072  0.00  0.00    +0.154 A 
ATOM     24  N   UNL     1      -3.316   8.391   0.070  0.00  0.00    -0.228 N 
BRANCH  23  25
ATOM     25  C   UNL     1      -5.402   9.886   0.082  0.00  0.00    +0.059 C 
ATOM     26  C   UNL     1      -6.274   9.976   1.336  0.00  0.00    +0.011 C 
ATOM     27  C   UNL     1      -7.015  11.315   1.347  0.00  0.00    +0.001 C 
ATOM     28  C   UNL     1      -7.899  11.418   0.102  0.00  0.00    +0.000 C 
ATOM     29  C   UNL     1      -7.027  11.328  -1.152  0.00  0.00    +0.001 C 
ATOM     30  C   UNL     1      -6.286   9.989  -1.162  0.00  0.00    +0.011 C 
ENDBRANCH  23  25
BRANCH  24  31
ATOM     31  N   UNL     1      -2.358   9.365   0.077  0.00  0.00    -0.295 N 
ATOM     32  H   UNL     1      -2.107   9.632  -0.863  0.00  0.00    +0.163 HD
ATOM     33  H   UNL     1      -2.660  10.165   0.612  0.00  0.00    +0.163 HD
ENDBRANCH  24  31
ENDBRANCH  19  20
ENDBRANCH  18  19
ENDBRANCH   2  18
TORSDOF 10
