REMARK  Name = ZINC09483347
REMARK  6 active torsions:
REMARK  status: ('A' for Active; 'I' for Inactive)
REMARK    1  A    between atoms: C_1  and  C_2
REMARK    2  A    between atoms: C_2  and  C_35
REMARK    3  A    between atoms: C_6  and  C_25
REMARK    4  A    between atoms: N_8  and  C_16
REMARK    5  A    between atoms: C_16  and  C_17
REMARK    6  A    between atoms: C_24  and  N_68
REMARK                            x       y       z     vdW  Elec       q    Type
REMARK                         _______ _______ _______ _____ _____    ______ ____
ROOT
ATOM      1  C   UNL     1       3.436   0.189  -3.680  0.00  0.00    +0.011 C 
ATOM      2  C   UNL     1       4.514  -0.106  -2.636  0.00  0.00    -0.023 C 
ATOM      3  C   UNL     1       3.891  -0.130  -1.240  0.00  0.00    +0.058 C 
ATOM      4  C   UNL     1       3.253   1.213  -0.941  0.00  0.00    +0.017 C 
ATOM      5  C   UNL     1       3.792   2.351  -1.416  0.00  0.00    +0.037 C 
ATOM      6  C   UNL     1       3.307   3.754  -1.136  0.00  0.00    +0.139 C 
ATOM      7  N   UNL     1       2.338   3.868  -0.071  0.00  0.00    -0.308 N 
ATOM      8  C   UNL     1       1.105   3.297  -0.358  0.00  0.00    +0.052 A 
ATOM      9  C   UNL     1      -0.012   4.094  -0.578  0.00  0.00    +0.025 A 
ATOM     10  C   UNL     1      -1.221   3.500  -0.893  0.00  0.00    +0.002 A 
ATOM     11  C   UNL     1      -1.322   2.125  -0.993  0.00  0.00    +0.002 A 
ATOM     12  C   UNL     1      -0.214   1.327  -0.757  0.00  0.00    +0.025 A 
ATOM     13  C   UNL     1       0.994   1.924  -0.440  0.00  0.00    +0.052 A 
ATOM     14  N   UNL     1       2.136   1.173  -0.171  0.00  0.00    -0.316 N 
ATOM     15  C   UNL     1       4.930   2.295  -2.255  0.00  0.00    +0.163 C 
ATOM     16  O   UNL     1       5.405   3.336  -2.666  0.00  0.00    -0.292 OA
ATOM     17  C   UNL     1       5.573   1.002  -2.656  0.00  0.00    +0.086 C 
ATOM     18  C   UNL     1       5.170  -1.455  -2.934  0.00  0.00    +0.011 C 
ATOM     19  H   UNL     1       2.132   0.592   0.606  0.00  0.00    +0.152 HD
ENDROOT
BRANCH   6  20
ATOM     20  C   UNL     1       4.498   4.605  -0.782  0.00  0.00    -0.022 A 
ATOM     21  C   UNL     1       5.025   4.560   0.496  0.00  0.00    +0.007 A 
ATOM     22  C   UNL     1       6.122   5.336   0.820  0.00  0.00    +0.020 A 
ATOM     23  C   UNL     1       6.685   6.168  -0.132  0.00  0.00    +0.041 A 
ATOM     24  C   UNL     1       6.154   6.218  -1.408  0.00  0.00    +0.020 A 
ATOM     25  C   UNL     1       5.061   5.436  -1.732  0.00  0.00    +0.007 A 
ATOM     26 CL   UNL     1       8.057   7.150   0.277  0.00  0.00    -0.084 Cl
ENDBRANCH   6  20
BRANCH   7  27
ATOM     27  C   UNL     1       2.184   5.266   0.353  0.00  0.00    +0.202 C 
BRANCH  27  28
ATOM     28  C   UNL     1       1.159   5.347   1.454  0.00  0.00    +0.233 C 
ATOM     29  O   UNL     1       0.700   4.331   1.932  0.00  0.00    -0.274 OA
ATOM     30  N   UNL     1       0.751   6.549   1.909  0.00  0.00    -0.304 N 
ATOM     31  C   UNL     1       1.299   7.793   1.348  0.00  0.00    +0.089 C 
ATOM     32  C   UNL     1       0.124   8.702   0.952  0.00  0.00    -0.060 C 
ATOM     33  C   UNL     1      -1.358   7.604   2.526  0.00  0.00    -0.060 C 
ATOM     34  C   UNL     1      -0.248   6.651   2.983  0.00  0.00    +0.089 C 
ATOM     35  C   UNL     1      -1.801   9.880   1.828  0.00  0.00    -0.096 C 
ATOM     36  N   UNL     1      -0.746   8.892   2.132  0.00  0.00    +0.380 N 
ATOM     37  H   UNL     1      -0.176   9.242   2.912  0.00  0.00    -0.082 HD
ENDBRANCH  27  28
ENDBRANCH   7  27
TORSDOF 3
