REMARK  Name = ZINC21251046
REMARK  12 active torsions:
REMARK  status: ('A' for Active; 'I' for Inactive)
REMARK    1  A    between atoms: C_1  and  C_2
REMARK    2  A    between atoms: C_2  and  C_3
REMARK    3  A    between atoms: C_3  and  O_4
REMARK    4  A    between atoms: O_4  and  C_5
REMARK    5  A    between atoms: C_8  and  C_13
REMARK    6  A    between atoms: C_10  and  O_11
REMARK    7  A    between atoms: O_11  and  C_12
REMARK    8  A    between atoms: C_18  and  C_23
REMARK    9  A    between atoms: C_25  and  O_31
REMARK   10  A    between atoms: C_28  and  O_29
REMARK   11  A    between atoms: O_29  and  C_30
REMARK   12  A    between atoms: O_31  and  C_32
REMARK                            x       y       z     vdW  Elec       q    Type
REMARK                         _______ _______ _______ _____ _____    ______ ____
ROOT
ATOM      1  C   UNL     1      -1.251   2.209   0.014  0.00  0.00    +0.136 C 
ATOM      2  C   UNL     1       0.084   1.508   0.086  0.00  0.00    +0.036 C 
ATOM      3  C   UNL     1       0.278   0.178   0.070  0.00  0.00    +0.017 C 
ATOM      4  C   UNL     1       1.683  -0.397   0.148  0.00  0.00    +0.060 C 
ATOM      5  C   UNL     1       2.671   0.548  -0.533  0.00  0.00    +0.036 C 
ATOM      6  C   UNL     1       2.606   1.895   0.197  0.00  0.00    +0.088 C 
ATOM      7  C   UNL     1       1.190   2.387   0.163  0.00  0.00    +0.163 C 
ATOM      8  O   UNL     1       0.984   3.585   0.204  0.00  0.00    -0.292 OA
ATOM      9  N   UNL     1      -0.712  -0.748  -0.002  0.00  0.00    -0.316 N 
ATOM     10  C   UNL     1      -1.780  -0.701  -0.889  0.00  0.00    +0.052 A 
ATOM     11  C   UNL     1      -1.960  -1.647  -1.884  0.00  0.00    +0.025 A 
ATOM     12  C   UNL     1      -3.072  -1.566  -2.704  0.00  0.00    +0.002 A 
ATOM     13  C   UNL     1      -3.996  -0.552  -2.530  0.00  0.00    +0.002 A 
ATOM     14  C   UNL     1      -3.809   0.405  -1.547  0.00  0.00    +0.025 A 
ATOM     15  C   UNL     1      -2.685   0.339  -0.739  0.00  0.00    +0.049 A 
ATOM     16  N   UNL     1      -2.396   1.341   0.187  0.00  0.00    -0.331 N 
ATOM     17  H   UNL     1      -0.705  -1.615   0.675  0.00  0.00    +0.152 HD
ATOM     18  H   UNL     1      -3.054   1.465   1.060  0.00  0.00    +0.147 HD
ENDROOT
BRANCH   1  22
ATOM     19  C   UNL     1      -1.571   4.123  -3.797  0.00  0.00    +0.162 A 
ATOM     20  C   UNL     1      -1.475   2.743  -3.717  0.00  0.00    +0.050 A 
ATOM     21  C   UNL     1      -1.366   2.127  -2.484  0.00  0.00    +0.009 A 
ATOM     22  C   UNL     1      -1.363   2.885  -1.328  0.00  0.00    -0.019 A 
ATOM     23  C   UNL     1      -1.459   4.263  -1.400  0.00  0.00    +0.055 A 
ATOM     24  C   UNL     1      -1.562   4.886  -2.633  0.00  0.00    +0.162 A 
BRANCH  24  25
ATOM     25  O   UNL     1      -1.655   6.241  -2.706  0.00  0.00    -0.491 OA
ATOM     26  C   UNL     1      -1.640   6.960  -1.471  0.00  0.00    +0.277 C 
ENDBRANCH  24  25
BRANCH  19  27
ATOM     27  O   UNL     1      -1.672   4.730  -5.010  0.00  0.00    -0.488 OA
BRANCH  27  28
ATOM     28  C   UNL     1      -1.674   3.884  -6.161  0.00  0.00    +0.229 C 
BRANCH  28  30
ATOM     29  C   UNL     1      -1.796   3.833  -8.656  0.00  0.00    +0.007 C 
ATOM     30  C   UNL     1      -1.794   4.740  -7.423  0.00  0.00    +0.038 C 
ENDBRANCH  28  30
ENDBRANCH  27  28
ENDBRANCH  19  27
ENDBRANCH   1  22
BRANCH   5  31
ATOM     31  C   UNL     1       4.065  -0.017  -0.439  0.00  0.00    +0.002 A 
ATOM     32  C   UNL     1       4.636  -0.246   0.798  0.00  0.00    +0.053 A 
ATOM     33  C   UNL     1       5.917  -0.770   0.884  0.00  0.00    +0.121 A 
ATOM     34  C   UNL     1       6.630  -1.054  -0.272  0.00  0.00    +0.049 A 
ATOM     35  C   UNL     1       6.061  -0.819  -1.508  0.00  0.00    +0.049 A 
ATOM     36  C   UNL     1       4.777  -0.300  -1.595  0.00  0.00    +0.124 A 
BRANCH  36  37
ATOM     37  O   UNL     1       4.218  -0.070  -2.812  0.00  0.00    -0.495 OA
ATOM     38  C   UNL     1       5.008  -0.386  -3.960  0.00  0.00    +0.277 C 
ENDBRANCH  36  37
BRANCH  33  39
ATOM     39  O   UNL     1       6.477  -1.001   2.102  0.00  0.00    -0.495 OA
ATOM     40  C   UNL     1       7.801  -1.536   2.116  0.00  0.00    +0.277 C 
ENDBRANCH  33  39
ENDBRANCH   5  31
TORSDOF 8
