REMARK  Name = ZINC39987328
REMARK  11 active torsions:
REMARK  status: ('A' for Active; 'I' for Inactive)
REMARK    1  A    between atoms: C_1  and  C_2
REMARK    2  A    between atoms: N_9  and  N_10
REMARK    3  A    between atoms: C_11  and  C_13
REMARK    4  A    between atoms: C_13  and  C_15
REMARK    5  A    between atoms: C_13  and  O_16
REMARK    6  A    between atoms: O_16  and  C_17
REMARK    7  A    between atoms: N_25  and  C_26
REMARK    8  A    between atoms: C_26  and  C_27
REMARK    9  A    between atoms: C_27  and  C_28
REMARK   10  A    between atoms: C_28  and  O_29
REMARK   11  A    between atoms: O_29  and  C_30
REMARK                            x       y       z     vdW  Elec       q    Type
REMARK                         _______ _______ _______ _____ _____    ______ ____
ROOT
ATOM      1  C   UNL     1       0.083   2.053   0.451  0.00  0.00    +0.044 C 
ATOM      2  C   UNL     1       0.298   0.565   0.346  0.00  0.00    -0.050 A 
ATOM      3  C   UNL     1       0.520  -0.016  -0.891  0.00  0.00    +0.005 A 
ATOM      4  C   UNL     1       0.719  -1.377  -1.002  0.00  0.00    +0.024 A 
ATOM      5  C   UNL     1       0.697  -2.181   0.132  0.00  0.00    +0.046 A 
ATOM      6  C   UNL     1       0.472  -1.589   1.381  0.00  0.00    +0.029 A 
ATOM      7  C   UNL     1       0.279  -0.216   1.484  0.00  0.00    +0.015 A 
ATOM      8  C   UNL     1       0.506  -2.686   2.376  0.00  0.00    +0.153 C 
ATOM      9  N   UNL     1       0.343  -2.592   3.674  0.00  0.00    -0.174 NA
ATOM     10  C   UNL     1       0.764  -3.908   1.588  0.00  0.00    +0.271 C 
ATOM     11  O   UNL     1       0.866  -5.037   2.030  0.00  0.00    -0.268 OA
ATOM     12  N   UNL     1       0.865  -3.552   0.296  0.00  0.00    -0.265 N 
ENDROOT
BRANCH   9  13
ATOM     13  N   UNL     1       0.407  -3.742   4.472  0.00  0.00    -0.203 N 
ATOM     14  C   UNL     1       0.240  -3.646   5.806  0.00  0.00    +0.273 C 
ATOM     15  O   UNL     1       0.033  -2.564   6.315  0.00  0.00    -0.270 OA
ATOM     16  H   UNL     1       0.572  -4.607   4.065  0.00  0.00    +0.177 HD
BRANCH  14  17
ATOM     17  C   UNL     1       0.309  -4.882   6.665  0.00  0.00    +0.257 C 
ATOM     18  C   UNL     1      -0.851  -5.814   6.311  0.00  0.00    +0.062 C 
BRANCH  17  19
ATOM     19  O   UNL     1       0.218  -4.511   8.042  0.00  0.00    -0.480 OA
BRANCH  19  20
ATOM     20  C   UNL     1       0.762  -5.364   8.949  0.00  0.00    +0.122 A 
ATOM     21  C   UNL     1       1.275  -6.585   8.533  0.00  0.00    +0.045 A 
ATOM     22  C   UNL     1       1.829  -7.450   9.456  0.00  0.00    +0.004 A 
ATOM     23  C   UNL     1       1.871  -7.102  10.794  0.00  0.00    +0.000 A 
ATOM     24  C   UNL     1       1.361  -5.887  11.210  0.00  0.00    +0.004 A 
ATOM     25  C   UNL     1       0.812  -5.015  10.290  0.00  0.00    +0.045 A 
ENDBRANCH  19  20
ENDBRANCH  17  19
ENDBRANCH  14  17
ENDBRANCH   9  13
BRANCH  12  26
ATOM     26  C   UNL     1       1.119  -4.489  -0.801  0.00  0.00    +0.117 C 
BRANCH  26  27
ATOM     27  C   UNL     1       2.628  -4.622  -1.018  0.00  0.00    +0.060 C 
BRANCH  27  28
ATOM     28  C   UNL     1       2.894  -5.600  -2.164  0.00  0.00    +0.230 C 
BRANCH  28  29
ATOM     29  O   UNL     1       4.303  -5.724  -2.367  0.00  0.00    -0.492 OA
BRANCH  29  30
ATOM     30  C   UNL     1       4.712  -6.562  -3.356  0.00  0.00    +0.121 A 
ATOM     31  C   UNL     1       3.761  -7.247  -4.118  0.00  0.00    +0.046 A 
ATOM     32  C   UNL     1       4.139  -8.092  -5.114  0.00  0.00    +0.012 A 
ATOM     33  C   UNL     1       5.506  -8.283  -5.384  0.00  0.00    -0.018 A 
ATOM     34  C   UNL     1       5.932  -9.148  -6.406  0.00  0.00    +0.008 A 
ATOM     35  C   UNL     1       7.263  -9.309  -6.641  0.00  0.00    +0.001 A 
ATOM     36  C   UNL     1       8.213  -8.627  -5.883  0.00  0.00    +0.001 A 
ATOM     37  C   UNL     1       7.838  -7.781  -4.886  0.00  0.00    +0.008 A 
ATOM     38  C   UNL     1       6.472  -7.590  -4.613  0.00  0.00    -0.014 A 
ATOM     39  C   UNL     1       6.048  -6.720  -3.595  0.00  0.00    +0.054 A 
ENDBRANCH  29  30
ENDBRANCH  28  29
ENDBRANCH  27  28
ENDBRANCH  26  27
ENDBRANCH  12  26
TORSDOF 9
