REMARK  Name = ZINC39639392
REMARK  8 active torsions:
REMARK  status: ('A' for Active; 'I' for Inactive)
REMARK    1  A    between atoms: C_1  and  C_2
REMARK    2  A    between atoms: C_5  and  C_8
REMARK    3  A    between atoms: C_8  and  C_10
REMARK    4  A    between atoms: C_8  and  N_11
REMARK    5  A    between atoms: C_12  and  C_14
REMARK    6  A    between atoms: C_25  and  C_27
REMARK    7  A    between atoms: C_29  and  C_36
REMARK    8  A    between atoms: C_31  and  C_32
REMARK                            x       y       z     vdW  Elec       q    Type
REMARK                         _______ _______ _______ _____ _____    ______ ____
ROOT
ATOM      1  C   UNL     1       2.404  -6.444   1.956  0.00  0.00    +0.100 C 
ATOM      2  C   UNL     1       1.728  -6.501   3.344  0.00  0.00    +0.121 C 
ATOM      3  N   UNL     1       1.221  -7.889   3.457  0.00  0.00    -0.296 N 
ATOM      4  C   UNL     1       2.287  -8.721   2.849  0.00  0.00    +0.115 C 
ATOM      5  C   UNL     1       2.773  -7.903   1.637  0.00  0.00    -0.004 C 
ATOM      6  C   UNL     1       4.284  -8.043   1.476  0.00  0.00    -0.010 C 
ATOM      7  C   UNL     1       4.622  -9.489   1.102  0.00  0.00    -0.082 C 
ATOM      8  N   UNL     1       3.941  -9.844  -0.150  0.00  0.00    +0.379 N 
ATOM      9  C   UNL     1       2.487  -9.796   0.040  0.00  0.00    -0.082 C 
ATOM     10  C   UNL     1       2.059  -8.363   0.370  0.00  0.00    -0.010 C 
ATOM     11  C   UNL     1       0.055  -8.302   3.992  0.00  0.00    +0.250 C 
ATOM     12  O   UNL     1      -0.772  -7.485   4.351  0.00  0.00    -0.270 OA
ATOM     13  H   UNL     1       4.206  -9.190  -0.872  0.00  0.00    -0.086 HD
ATOM     14  H   UNL     1       4.213 -10.775  -0.426  0.00  0.00    -0.086 HD
ENDROOT
BRANCH  11  15
ATOM     15  C   UNL     1      -0.217  -9.742   4.143  0.00  0.00    +0.087 A 
ATOM     16  C   UNL     1       0.715 -10.853   3.903  0.00  0.00    +0.058 A 
ATOM     17  C   UNL     1       0.029 -11.975   4.169  0.00  0.00    +0.103 A 
ATOM     18  O   UNL     1      -1.218 -11.649   4.543  0.00  0.00    -0.455 OA
ATOM     19  C   UNL     1      -1.386 -10.323   4.540  0.00  0.00    +0.220 A 
ATOM     20  C   UNL     1       0.571 -13.377   4.064  0.00  0.00    +0.086 C 
BRANCH  19  21
ATOM     21  C   UNL     1      -2.652  -9.594   4.910  0.00  0.00    +0.451 C 
ATOM     22  F   UNL     1      -3.443  -9.424   3.768  0.00  0.00    -0.163 F 
ATOM     23  F   UNL     1      -3.359 -10.338   5.860  0.00  0.00    -0.163 F 
ATOM     24  F   UNL     1      -2.330  -8.342   5.444  0.00  0.00    -0.163 F 
ENDBRANCH  19  21
ENDBRANCH  11  15
BRANCH   1  26
ATOM     25  N   UNL     1       1.909  -5.214  -0.132  0.00  0.00    -0.308 N 
ATOM     26  C   UNL     1       1.444  -5.909   0.925  0.00  0.00    +0.219 C 
ATOM     27  O   UNL     1       0.253  -6.103   1.048  0.00  0.00    -0.275 OA
ATOM     28  H   UNL     1       2.861  -5.058  -0.229  0.00  0.00    +0.149 HD
BRANCH  25  29
ATOM     29  C   UNL     1       0.975  -4.693  -1.133  0.00  0.00    +0.100 C 
ATOM     30  C   UNL     1       0.432  -3.340  -0.669  0.00  0.00    +0.033 C 
BRANCH  29  35
ATOM     31  C   UNL     1       3.725  -4.034  -6.173  0.00  0.00    +0.044 C 
ATOM     32  C   UNL     1       3.008  -4.206  -4.859  0.00  0.00    -0.050 A 
ATOM     33  C   UNL     1       1.715  -4.696  -4.835  0.00  0.00    +0.004 A 
ATOM     34  C   UNL     1       1.058  -4.854  -3.630  0.00  0.00    +0.006 A 
ATOM     35  C   UNL     1       1.693  -4.522  -2.448  0.00  0.00    -0.027 A 
ATOM     36  C   UNL     1       2.985  -4.033  -2.471  0.00  0.00    +0.006 A 
ATOM     37  C   UNL     1       3.645  -3.879  -3.676  0.00  0.00    +0.004 A 
ENDBRANCH  29  35
ENDBRANCH  25  29
ENDBRANCH   1  26
TORSDOF 5
