REMARK  Name = ZINC43254268
REMARK  10 active torsions:
REMARK  status: ('A' for Active; 'I' for Inactive)
REMARK    1  A    between atoms: C_1  and  C_2
REMARK    2  A    between atoms: C_4  and  C_10
REMARK    3  A    between atoms: C_6  and  C_9
REMARK    4  A    between atoms: C_7  and  O_8
REMARK    5  A    between atoms: N_18  and  C_21
REMARK    6  A    between atoms: C_21  and  C_22
REMARK    7  A    between atoms: N_29  and  C_30
REMARK    8  A    between atoms: C_30  and  C_31
REMARK    9  A    between atoms: C_30  and  C_32
REMARK   10  A    between atoms: C_30  and  C_33
REMARK                            x       y       z     vdW  Elec       q    Type
REMARK                         _______ _______ _______ _____ _____    ______ ____
ROOT
ATOM      1  C   UNL     1       0.028  -2.816  -2.516  0.00  0.00    +0.130 C 
ATOM      2  C   UNL     1      -1.327  -3.463  -2.768  0.00  0.00    +0.139 C 
ATOM      3  C   UNL     1      -1.069  -4.820  -2.010  0.00  0.00    +0.241 C 
ATOM      4  C   UNL     1      -2.422  -5.306  -1.820  0.00  0.00    +0.254 C 
ATOM      5  O   UNL     1      -2.794  -6.460  -1.810  0.00  0.00    -0.272 OA
ATOM      6  N   UNL     1      -3.191  -4.184  -1.654  0.00  0.00    -0.235 N 
ATOM      7  C   UNL     1      -2.536  -3.025  -2.002  0.00  0.00    +0.230 C 
ATOM      8  O   UNL     1      -2.860  -1.886  -1.742  0.00  0.00    -0.275 OA
ATOM      9  O   UNL     1       0.134  -5.230  -2.518  0.00  0.00    -0.282 OA
ATOM     10  N   UNL     1       0.972  -3.975  -2.460  0.00  0.00    -0.174 NA
ENDROOT
BRANCH   1  14
ATOM     11  C   UNL     1      -0.492   1.457   0.035  0.00  0.00    +0.047 C 
ATOM     12  C   UNL     1      -0.225  -0.026   0.014  0.00  0.00    -0.008 A 
ATOM     13  C   UNL     1      -0.221  -0.711  -1.186  0.00  0.00    +0.012 A 
ATOM     14  C   UNL     1       0.024  -2.071  -1.206  0.00  0.00    -0.026 A 
ATOM     15  C   UNL     1       0.266  -2.750  -0.026  0.00  0.00    +0.012 A 
ATOM     16  C   UNL     1       0.263  -2.070   1.177  0.00  0.00    -0.008 A 
ATOM     17  C   UNL     1       0.023  -0.704   1.199  0.00  0.00    +0.123 A 
ATOM     18  C   UNL     1       0.526  -2.811   2.462  0.00  0.00    +0.047 C 
BRANCH  17  19
ATOM     19  O   UNL     1       0.025  -0.032   2.380  0.00  0.00    -0.506 OA
ATOM     20  H   UNL     1      -0.839   0.006   2.813  0.00  0.00    +0.292 HD
ENDBRANCH  17  19
ENDBRANCH   1  14
BRANCH  10  21
ATOM     21  C   UNL     1       1.926  -3.932  -3.577  0.00  0.00    +0.039 C 
ATOM     22  C   UNL     1       2.736  -2.636  -3.506  0.00  0.00    +0.030 C 
ATOM     23  C   UNL     1       2.872  -5.131  -3.486  0.00  0.00    +0.030 C 
ATOM     24  C   UNL     1       1.162  -3.985  -4.902  0.00  0.00    +0.030 C 
ENDBRANCH  10  21
BRANCH   6  25
ATOM     25  C   UNL     1      -4.573  -4.213  -1.168  0.00  0.00    +0.151 C 
BRANCH  25  26
ATOM     26  C   UNL     1      -4.580  -4.100   0.335  0.00  0.00    -0.030 A 
ATOM     27  C   UNL     1      -4.521  -5.240   1.114  0.00  0.00    +0.005 A 
ATOM     28  C   UNL     1      -4.527  -5.136   2.492  0.00  0.00    +0.000 A 
ATOM     29  C   UNL     1      -4.592  -3.892   3.091  0.00  0.00    +0.000 A 
ATOM     30  C   UNL     1      -4.650  -2.752   2.312  0.00  0.00    +0.000 A 
ATOM     31  C   UNL     1      -4.640  -2.855   0.934  0.00  0.00    +0.005 A 
ENDBRANCH  25  26
ENDBRANCH   6  25
TORSDOF 5
