REMARK  Name = ZINC64237504
REMARK  6 active torsions:
REMARK  status: ('A' for Active; 'I' for Inactive)
REMARK    1  A    between atoms: C_1  and  C_2
REMARK    2  A    between atoms: C_5  and  C_8
REMARK    3  A    between atoms: C_8  and  C_9
REMARK    4  A    between atoms: C_8  and  N_25
REMARK    5  A    between atoms: C_9  and  N_10
REMARK    6  A    between atoms: N_16  and  C_19
REMARK                            x       y       z     vdW  Elec       q    Type
REMARK                         _______ _______ _______ _____ _____    ______ ____
ROOT
ATOM      1  N   UNL     1      -1.111  -6.397   0.211  0.00  0.00    -0.300 N 
ATOM      2  C   UNL     1      -2.181  -7.205   0.351  0.00  0.00    +0.302 C 
ATOM      3  O   UNL     1      -3.273  -6.730   0.598  0.00  0.00    -0.253 OA
ATOM      4  N   UNL     1      -2.041  -8.539   0.218  0.00  0.00    -0.283 N 
ATOM      5  C   UNL     1      -0.711  -9.136   0.033  0.00  0.00    +0.128 C 
ATOM      6  C   UNL     1      -0.494 -10.194   1.122  0.00  0.00    +0.124 C 
ATOM      7  N   UNL     1      -1.668 -11.078   1.158  0.00  0.00    -0.327 N 
ATOM      8  C   UNL     1      -2.998 -10.480   1.343  0.00  0.00    +0.124 C 
ATOM      9  C   UNL     1      -3.214  -9.422   0.260  0.00  0.00    +0.128 C 
ATOM     10  H   UNL     1      -0.229  -6.779   0.086  0.00  0.00    +0.150 HD
ENDROOT
BRANCH   7  11
ATOM     11  C   UNL     1      -1.523 -12.455   1.020  0.00  0.00    +0.033 A 
ATOM     12  C   UNL     1      -2.639 -13.286   0.924  0.00  0.00    +0.040 A 
ATOM     13  C   UNL     1      -2.452 -14.645   0.788  0.00  0.00    +0.084 A 
ATOM     14  N   UNL     1      -1.238 -15.161   0.749  0.00  0.00    -0.367 N 
ATOM     15  C   UNL     1      -0.157 -14.408   0.837  0.00  0.00    +0.084 A 
ATOM     16  C   UNL     1      -0.257 -13.040   0.969  0.00  0.00    +0.040 A 
ATOM     17  H   UNL     1      -1.136 -16.121   0.652  0.00  0.00    +0.165 HD
ENDBRANCH   7  11
BRANCH   1  18
ATOM     18  C   UNL     1      -1.282  -4.942   0.248  0.00  0.00    +0.095 C 
BRANCH  18  19
ATOM     19  C   UNL     1       0.054  -4.264  -0.062  0.00  0.00    -0.020 C 
BRANCH  19  24
ATOM     20  C   UNL     1       1.650  -5.535  -5.468  0.00  0.00    +0.044 C 
ATOM     21  C   UNL     1       1.234  -5.204  -4.058  0.00  0.00    -0.050 A 
ATOM     22  C   UNL     1       1.790  -5.889  -2.994  0.00  0.00    +0.003 A 
ATOM     23  C   UNL     1       1.408  -5.585  -1.701  0.00  0.00    +0.002 A 
ATOM     24  C   UNL     1       0.471  -4.595  -1.472  0.00  0.00    -0.059 A 
ATOM     25  C   UNL     1      -0.085  -3.909  -2.535  0.00  0.00    +0.002 A 
ATOM     26  C   UNL     1       0.300  -4.210  -3.829  0.00  0.00    +0.003 A 
ENDBRANCH  19  24
BRANCH  19  27
ATOM     27  N   UNL     1      -0.092  -2.809   0.077  0.00  0.00    +0.385 N 
ATOM     28  C   UNL     1      -0.328  -2.451   1.499  0.00  0.00    -0.078 C 
ATOM     29  C   UNL     1       0.100  -0.964   1.567  0.00  0.00    -0.020 C 
ATOM     30  C   UNL     1       1.323  -0.913   0.623  0.00  0.00    -0.020 C 
ATOM     31  C   UNL     1       1.166  -2.132  -0.305  0.00  0.00    -0.078 C 
ATOM     32  H   UNL     1      -0.853  -2.479  -0.497  0.00  0.00    -0.081 HD
ENDBRANCH  19  27
ENDBRANCH  18  19
ENDBRANCH   1  18
TORSDOF 5
