REMARK  Name = ZINC35745185
REMARK  17 active torsions:
REMARK  status: ('A' for Active; 'I' for Inactive)
REMARK    1  A    between atoms: C_1  and  O_2
REMARK    2  A    between atoms: O_2  and  C_3
REMARK    3  A    between atoms: C_6  and  C_9
REMARK    4  A    between atoms: C_9  and  C_10
REMARK    5  A    between atoms: C_9  and  C_18
REMARK    6  A    between atoms: C_9  and  O_39
REMARK    7  A    between atoms: C_13  and  O_16
REMARK    8  A    between atoms: O_16  and  C_17
REMARK    9  A    between atoms: C_21  and  C_23
REMARK   10  A    between atoms: C_23  and  N_24
REMARK   11  A    between atoms: N_24  and  C_25
REMARK   12  A    between atoms: N_24  and  C_36
REMARK   13  A    between atoms: C_25  and  C_26
REMARK   14  A    between atoms: C_30  and  O_34
REMARK   15  A    between atoms: C_31  and  O_32
REMARK   16  A    between atoms: O_32  and  C_33
REMARK   17  A    between atoms: O_34  and  C_35
REMARK                            x       y       z     vdW  Elec       q    Type
REMARK                         _______ _______ _______ _____ _____    ______ ____
ROOT
ATOM      1  C   UNL     1       1.935  -2.920  -5.861  0.00  0.00    +0.146 A 
ATOM      2  C   UNL     1       2.390  -2.860  -7.126  0.00  0.00    +0.048 A 
ATOM      3  C   UNL     1       1.340  -3.307  -7.961  0.00  0.00    +0.043 A 
ATOM      4  C   UNL     1       0.306  -3.613  -7.157  0.00  0.00    +0.089 A 
ATOM      5  O   UNL     1       0.674  -3.382  -5.886  0.00  0.00    -0.463 OA
ENDROOT
BRANCH   1   6
ATOM      6  C   UNL     1       2.710  -2.539  -4.627  0.00  0.00    +0.174 C 
BRANCH   6  10
ATOM      7  C   UNL     1       0.010  -1.134  -1.627  0.00  0.00    +0.120 A 
ATOM      8  C   UNL     1       0.974  -0.283  -2.147  0.00  0.00    +0.046 A 
ATOM      9  C   UNL     1       1.846  -0.739  -3.117  0.00  0.00    +0.011 A 
ATOM     10  C   UNL     1       1.758  -2.043  -3.569  0.00  0.00    -0.004 A 
ATOM     11  C   UNL     1       0.798  -2.893  -3.051  0.00  0.00    +0.011 A 
ATOM     12  C   UNL     1      -0.072  -2.443  -2.078  0.00  0.00    +0.046 A 
BRANCH   7  14
ATOM     13  C   UNL     1      -0.706   0.672  -0.257  0.00  0.00    +0.277 C 
ATOM     14  O   UNL     1      -0.849  -0.687  -0.673  0.00  0.00    -0.495 OA
ENDBRANCH   7  14
ENDBRANCH   6  10
BRANCH   6  15
ATOM     15  C   UNL     1       3.454  -3.743  -4.109  0.00  0.00    -0.004 A 
ATOM     16  C   UNL     1       2.840  -4.982  -4.100  0.00  0.00    +0.011 A 
ATOM     17  C   UNL     1       3.520  -6.087  -3.626  0.00  0.00    +0.046 A 
ATOM     18  C   UNL     1       4.819  -5.953  -3.159  0.00  0.00    +0.120 A 
ATOM     19  C   UNL     1       5.433  -4.709  -3.168  0.00  0.00    +0.046 A 
ATOM     20  C   UNL     1       4.751  -3.607  -3.649  0.00  0.00    +0.011 A 
BRANCH  18  21
ATOM     21  O   UNL     1       5.490  -7.039  -2.692  0.00  0.00    -0.495 OA
ATOM     22  C   UNL     1       6.824  -6.826  -2.226  0.00  0.00    +0.277 C 
ENDBRANCH  18  21
ENDBRANCH   6  15
BRANCH   6  23
ATOM     23  O   UNL     1       3.643  -1.505  -4.950  0.00  0.00    -0.372 OA
ATOM     24  H   UNL     1       3.233  -0.698  -5.290  0.00  0.00    +0.212 HD
ENDBRANCH   6  23
ENDBRANCH   1   6
BRANCH   4  25
ATOM     25  C   UNL     1      -1.035  -4.132  -7.605  0.00  0.00    -0.002 C 
BRANCH  25  26
ATOM     26  N   UNL     1      -1.042  -5.599  -7.532  0.00  0.00    +0.389 N 
ATOM     27  H   UNL     1      -1.947  -5.946  -7.814  0.00  0.00    -0.080 HD
BRANCH  26  28
ATOM     28  C   UNL     1      -0.765  -6.022  -6.152  0.00  0.00    -0.068 C 
ATOM     29  C   UNL     1      -1.654  -7.114  -5.555  0.00  0.00    -0.017 C 
ATOM     30  C   UNL     1      -1.800  -5.666  -5.083  0.00  0.00    -0.017 C 
ENDBRANCH  26  28
BRANCH  26  31
ATOM     31  C   UNL     1      -0.009  -6.139  -8.426  0.00  0.00    -0.038 C 
BRANCH  31  32
ATOM     32  C   UNL     1      -0.097  -7.644  -8.444  0.00  0.00    -0.019 A 
ATOM     33  C   UNL     1       0.773  -8.396  -7.677  0.00  0.00    +0.005 A 
ATOM     34  C   UNL     1       0.695  -9.776  -7.692  0.00  0.00    +0.004 A 
ATOM     35  C   UNL     1      -0.253 -10.410  -8.474  0.00  0.00    +0.049 A 
ATOM     36  C   UNL     1      -1.128  -9.662  -9.244  0.00  0.00    +0.162 A 
ATOM     37  C   UNL     1      -1.054  -8.272  -9.225  0.00  0.00    +0.163 A 
BRANCH  37  38
ATOM     38  O   UNL     1      -1.914  -7.533  -9.976  0.00  0.00    -0.491 OA
ATOM     39  C   UNL     1      -1.505  -7.217 -11.308  0.00  0.00    +0.277 C 
ENDBRANCH  37  38
BRANCH  36  40
ATOM     40  O   UNL     1      -2.061 -10.284 -10.014  0.00  0.00    -0.491 OA
ATOM     41  C   UNL     1      -2.083 -11.712  -9.980  0.00  0.00    +0.277 C 
ENDBRANCH  36  40
ENDBRANCH  31  32
ENDBRANCH  26  31
ENDBRANCH  25  26
ENDBRANCH   4  25
TORSDOF 13
