REMARK  Name = ZINC25943154
REMARK  7 active torsions:
REMARK  status: ('A' for Active; 'I' for Inactive)
REMARK    1  A    between atoms: C_1  and  C_2
REMARK    2  A    between atoms: N_5  and  C_8
REMARK    3  A    between atoms: C_8  and  C_9
REMARK    4  A    between atoms: C_15  and  C_17
REMARK    5  A    between atoms: N_22  and  C_24
REMARK    6  A    between atoms: C_27  and  S_30
REMARK    7  A    between atoms: S_30  and  C_31
REMARK                            x       y       z     vdW  Elec       q    Type
REMARK                         _______ _______ _______ _____ _____    ______ ____
ROOT
ATOM      1  C   UNL     1       2.169   0.727  -0.086  0.00  0.00    +0.034 A 
ATOM      2  C   UNL     1       1.723   2.007  -0.082  0.00  0.00    +0.070 A 
ATOM      3  S   UNL     1      -0.044   1.743  -0.050  0.00  0.00    -0.060 S 
ATOM      4  C   UNL     1      -0.012   0.006  -0.045  0.00  0.00    +0.165 A 
ATOM      5  N   UNL     1       1.282  -0.248  -0.067  0.00  0.00    -0.231 NA
ATOM      6  N   UNL     1      -1.078  -0.886  -0.024  0.00  0.00    -0.264 N 
ATOM      7  C   UNL     1      -2.344  -0.424  -0.003  0.00  0.00    +0.224 C 
ATOM      8  O   UNL     1      -2.553   0.770  -0.003  0.00  0.00    -0.275 OA
ATOM      9  H   UNL     1      -0.887  -1.970  -0.024  0.00  0.00    +0.157 HD
ENDROOT
BRANCH   7  10
ATOM     10  C   UNL     1      -3.498  -1.392   0.020  0.00  0.00    +0.102 C 
ATOM     11  C   UNL     1      -3.546  -2.165   1.359  0.00  0.00    +0.110 C 
ATOM     12  C   UNL     1      -4.486  -1.353   2.222  0.00  0.00    +0.221 C 
ATOM     13  O   UNL     1      -4.583  -1.452   3.427  0.00  0.00    -0.275 OA
ATOM     14  N   UNL     1      -5.199  -0.505   1.460  0.00  0.00    -0.271 N 
ATOM     15  C   UNL     1      -4.848  -0.641   0.041  0.00  0.00    +0.127 C 
BRANCH  14  16
ATOM     16  C   UNL     1      -6.152   0.394   1.956  0.00  0.00    +0.036 A 
ATOM     17  C   UNL     1      -6.503   0.362   3.300  0.00  0.00    +0.024 A 
ATOM     18  C   UNL     1      -7.439   1.250   3.790  0.00  0.00    +0.016 A 
ATOM     19  C   UNL     1      -8.038   2.170   2.937  0.00  0.00    +0.008 A 
ATOM     20  C   UNL     1      -7.690   2.198   1.592  0.00  0.00    +0.016 A 
ATOM     21  C   UNL     1      -6.750   1.312   1.104  0.00  0.00    +0.024 A 
BRANCH  19  22
ATOM     22  S   UNL     1      -9.237   3.300   3.561  0.00  0.00    -0.129 S 
ATOM     23  C   UNL     1      -9.352   2.888   5.324  0.00  0.00    +0.090 C 
ENDBRANCH  19  22
ENDBRANCH  14  16
ENDBRANCH   7  10
BRANCH   1  24
ATOM     24  C   UNL     1       3.645   0.425  -0.111  0.00  0.00    -0.022 C 
BRANCH  24  29
ATOM     25  C   UNL     1       6.176   0.255   5.011  0.00  0.00    +0.007 C 
ATOM     26  C   UNL     1       5.824   0.604   3.564  0.00  0.00    -0.018 C 
ATOM     27  C   UNL     1       5.909  -0.655   2.698  0.00  0.00    -0.016 C 
ATOM     28  C   UNL     1       5.496  -0.312   1.265  0.00  0.00    -0.078 C 
ATOM     29  N   UNL     1       4.125   0.214   1.262  0.00  0.00    +0.383 N 
ATOM     30  C   UNL     1       4.029   1.450   2.049  0.00  0.00    -0.078 C 
ATOM     31  C   UNL     1       4.398   1.160   3.505  0.00  0.00    -0.016 C 
ATOM     32  H   UNL     1       3.477  -0.537   1.736  0.00  0.00    -0.081 HD
ENDBRANCH  24  29
ENDBRANCH   1  24
TORSDOF 5
