REMARK  Name = ZINC49118781
REMARK  3 active torsions:
REMARK  status: ('A' for Active; 'I' for Inactive)
REMARK    1  A    between atoms: C_6  and  N_7
REMARK    2  A    between atoms: N_7  and  C_8
REMARK    3  A    between atoms: C_13  and  N_14
REMARK                            x       y       z     vdW  Elec       q    Type
REMARK                         _______ _______ _______ _____ _____    ______ ____
ROOT
ATOM      1  C   UNL     1      -1.180  -2.119  -0.103  0.00  0.00    +0.054 A 
ATOM      2  C   UNL     1       0.040  -2.788  -0.112  0.00  0.00    +0.026 A 
ATOM      3  C   UNL     1       0.061  -4.166  -0.224  0.00  0.00    +0.019 A 
ATOM      4  C   UNL     1      -1.123  -4.858  -0.324  0.00  0.00    +0.041 A 
ATOM      5  C   UNL     1      -2.381  -4.217  -0.319  0.00  0.00    +0.101 A 
ATOM      6  C   UNL     1      -2.376  -2.807  -0.199  0.00  0.00    +0.073 A 
ATOM      7  N   UNL     1      -3.419  -5.072  -0.428  0.00  0.00    -0.246 NA
ATOM      8  C   UNL     1      -3.251  -6.358  -0.527  0.00  0.00    +0.157 A 
ATOM      9  S   UNL     1      -1.581  -6.565  -0.481  0.00  0.00    -0.075 S 
ENDROOT
BRANCH   6  10
ATOM     10  N   UNL     1      -3.588  -2.105  -0.182  0.00  0.00    -0.355 N 
ATOM     11  H   UNL     1      -3.587  -1.138  -0.103  0.00  0.00    +0.142 HD
ATOM     12  H   UNL     1      -4.428  -2.586  -0.249  0.00  0.00    +0.142 HD
ENDBRANCH   6  10
BRANCH   1  13
ATOM     13  N   UNL     1      -1.198  -0.720   0.010  0.00  0.00    -0.313 N 
ATOM     14  H   UNL     1      -2.040  -0.254   0.130  0.00  0.00    +0.152 HD
BRANCH  13  20
ATOM     15  C   UNL     1       0.965  -0.333  -0.989  0.00  0.00    +0.025 A 
ATOM     16  C   UNL     1       2.147   0.381  -1.046  0.00  0.00    +0.025 A 
ATOM     17  C   UNL     1       2.368   1.427  -0.169  0.00  0.00    +0.076 A 
ATOM     18  C   UNL     1       1.405   1.763   0.770  0.00  0.00    +0.143 A 
ATOM     19  C   UNL     1       0.221   1.052   0.831  0.00  0.00    +0.063 A 
ATOM     20  C   UNL     1      -0.002   0.001  -0.049  0.00  0.00    +0.034 A 
ATOM     21  F   UNL     1       1.624   2.786   1.625  0.00  0.00    -0.204 F 
ATOM     22 CL   UNL     1       3.854   2.322  -0.245  0.00  0.00    -0.081 Cl
ENDBRANCH  13  20
ENDBRANCH   1  13
TORSDOF 3
