REMARK  Name = ZINC40799861
REMARK  6 active torsions:
REMARK  status: ('A' for Active; 'I' for Inactive)
REMARK    1  A    between atoms: C_3  and  O_23
REMARK    2  A    between atoms: C_6  and  N_7
REMARK    3  A    between atoms: C_9  and  N_22
REMARK    4  A    between atoms: C_10  and  O_14
REMARK    5  A    between atoms: O_14  and  C_15
REMARK    6  A    between atoms: O_23  and  C_24
REMARK                            x       y       z     vdW  Elec       q    Type
REMARK                         _______ _______ _______ _____ _____    ______ ____
ROOT
ATOM      1  N   UNL     1      -1.196  -0.721  -0.015  0.00  0.00    -0.298 N 
ATOM      2  C   UNL     1      -1.181  -2.106  -0.128  0.00  0.00    +0.151 A 
ATOM      3  C   UNL     1      -2.377  -2.824  -0.218  0.00  0.00    +0.128 A 
ATOM      4  C   UNL     1      -2.305  -4.211  -0.330  0.00  0.00    +0.246 A 
ATOM      5  N   UNL     1      -1.111  -4.795  -0.347  0.00  0.00    -0.199 NA
ATOM      6  C   UNL     1      -0.006  -4.083  -0.260  0.00  0.00    +0.227 A 
ATOM      7  N   UNL     1      -0.028  -2.769  -0.158  0.00  0.00    -0.218 NA
ATOM      8  H   UNL     1      -2.038  -0.252   0.096  0.00  0.00    +0.154 HD
ENDROOT
BRANCH   1  14
ATOM      9  C   UNL     1       1.101  -0.522  -0.736  0.00  0.00    +0.027 A 
ATOM     10  C   UNL     1       2.284   0.188  -0.781  0.00  0.00    +0.048 A 
ATOM     11  C   UNL     1       2.378   1.420  -0.151  0.00  0.00    +0.130 A 
ATOM     12  C   UNL     1       1.284   1.941   0.524  0.00  0.00    +0.048 A 
ATOM     13  C   UNL     1       0.100   1.232   0.570  0.00  0.00    +0.027 A 
ATOM     14  C   UNL     1       0.004  -0.002  -0.060  0.00  0.00    +0.033 A 
BRANCH  11  15
ATOM     15  O   UNL     1       3.545   2.119  -0.195  0.00  0.00    -0.406 OA
BRANCH  15  16
ATOM     16  C   UNL     1       3.571   3.381   0.475  0.00  0.00    +0.575 C 
ATOM     17  F   UNL     1       3.296   3.193   1.834  0.00  0.00    -0.133 F 
ATOM     18  F   UNL     1       4.836   3.959   0.330  0.00  0.00    -0.133 F 
ATOM     19  F   UNL     1       2.605   4.225  -0.084  0.00  0.00    -0.133 F 
ENDBRANCH  15  16
ENDBRANCH  11  15
ENDBRANCH   1  14
BRANCH   3  20
ATOM     20  N   UNL     1      -3.616  -2.165  -0.195  0.00  0.00    -0.351 N 
ATOM     21  H   UNL     1      -3.651  -1.199  -0.117  0.00  0.00    +0.143 HD
ATOM     22  H   UNL     1      -4.438  -2.677  -0.258  0.00  0.00    +0.143 HD
ENDBRANCH   3  20
BRANCH   4  23
ATOM     23  O   UNL     1      -3.437  -4.954  -0.419  0.00  0.00    -0.436 OA
BRANCH  23  24
ATOM     24  C   UNL     1      -3.313  -6.308  -0.420  0.00  0.00    +0.130 A 
ATOM     25  C   UNL     1      -2.844  -6.963   0.709  0.00  0.00    +0.047 A 
ATOM     26  C   UNL     1      -2.719  -8.338   0.706  0.00  0.00    +0.019 A 
ATOM     27  C   UNL     1      -3.061  -9.063  -0.422  0.00  0.00    +0.018 A 
ATOM     28  C   UNL     1      -3.529  -8.411  -1.549  0.00  0.00    +0.019 A 
ATOM     29  C   UNL     1      -3.661  -7.036  -1.548  0.00  0.00    +0.047 A 
ATOM     30 BR   UNL     1      -2.888 -10.946  -0.423  0.00  0.00    -0.050 Br
ENDBRANCH  23  24
ENDBRANCH   4  23
TORSDOF 6
