REMARK  Name = ZINC02918757
REMARK  4 active torsions:
REMARK  status: ('A' for Active; 'I' for Inactive)
REMARK    1  A    between atoms: C_6  and  C_7
REMARK    2  A    between atoms: C_9  and  C_17
REMARK    3  A    between atoms: C_22  and  O_23
REMARK    4  A    between atoms: O_23  and  C_24
REMARK                            x       y       z     vdW  Elec       q    Type
REMARK                         _______ _______ _______ _____ _____    ______ ____
ROOT
ATOM      1  C   UNL     1      -1.260  -0.760   0.011  0.00  0.00    +0.055 C 
ATOM      2  C   UNL     1      -1.200  -2.262   0.008  0.00  0.00    +0.088 C 
ATOM      3  C   UNL     1      -2.363  -2.864   0.804  0.00  0.00    +0.150 C 
ATOM      4  N   UNL     1      -3.575  -2.114   0.475  0.00  0.00    -0.222 N 
ATOM      5  C   UNL     1      -3.551  -0.794   0.117  0.00  0.00    +0.249 A 
ATOM      6  N   UNL     1      -4.789  -0.421  -0.095  0.00  0.00    -0.198 NA
ATOM      7  C   UNL     1      -5.609  -1.454   0.105  0.00  0.00    +0.247 A 
ATOM      8  N   UNL     1      -4.908  -2.509   0.452  0.00  0.00    -0.156 NA
ATOM      9  N   UNL     1      -2.386  -0.100   0.025  0.00  0.00    -0.215 NA
ENDROOT
BRANCH   1  15
ATOM     10  C   UNL     1      -0.017   1.395   0.010  0.00  0.00    +0.011 A 
ATOM     11  C   UNL     1       1.169   2.097   0.002  0.00  0.00    +0.016 A 
ATOM     12  C   UNL     1       2.378   1.420  -0.013  0.00  0.00    +0.018 A 
ATOM     13  C   UNL     1       2.405   0.035  -0.021  0.00  0.00    +0.016 A 
ATOM     14  C   UNL     1       1.227  -0.680  -0.013  0.00  0.00    +0.011 A 
ATOM     15  C   UNL     1       0.002  -0.004   0.002  0.00  0.00    -0.003 A 
ATOM     16 BR   UNL     1       4.000   2.393  -0.024  0.00  0.00    -0.050 Br
ENDBRANCH   1  15
BRANCH   3  17
ATOM     17  C   UNL     1      -2.080  -2.755   2.280  0.00  0.00    +0.021 A 
ATOM     18  C   UNL     1      -1.899  -1.513   2.859  0.00  0.00    +0.029 A 
ATOM     19  C   UNL     1      -1.640  -1.412   4.214  0.00  0.00    +0.042 A 
ATOM     20  C   UNL     1      -1.561  -2.553   4.993  0.00  0.00    +0.023 A 
ATOM     21  C   UNL     1      -1.741  -3.796   4.418  0.00  0.00    +0.047 A 
ATOM     22  C   UNL     1      -2.007  -3.899   3.060  0.00  0.00    +0.132 A 
ATOM     23 CL   UNL     1      -1.412   0.149   4.939  0.00  0.00    -0.084 Cl
BRANCH  22  24
ATOM     24  O   UNL     1      -2.191  -5.121   2.494  0.00  0.00    -0.434 OA
BRANCH  24  25
ATOM     25  C   UNL     1      -2.101  -6.256   3.357  0.00  0.00    +0.541 C 
ATOM     26  F   UNL     1      -0.830  -6.300   3.941  0.00  0.00    -0.166 F 
ATOM     27  F   UNL     1      -3.072  -6.157   4.360  0.00  0.00    -0.166 F 
ENDBRANCH  24  25
ENDBRANCH  22  24
ENDBRANCH   3  17
TORSDOF 4
