REMARK  Name = ZINC39912725
REMARK  18 active torsions:
REMARK  status: ('A' for Active; 'I' for Inactive)
REMARK    1  A    between atoms: C_1  and  C_2
REMARK    2  A    between atoms: C_2  and  O_3
REMARK    3  A    between atoms: O_3  and  C_4
REMARK    4  A    between atoms: C_7  and  C_13
REMARK    5  A    between atoms: C_9  and  O_10
REMARK    6  A    between atoms: O_10  and  C_11
REMARK    7  A    between atoms: C_11  and  C_12
REMARK    8  A    between atoms: C_16  and  C_31
REMARK    9  A    between atoms: N_23  and  C_24
REMARK   10  A    between atoms: C_24  and  C_25
REMARK   11  A    between atoms: C_25  and  C_26
REMARK   12  A    between atoms: C_26  and  O_27
REMARK   13  A    between atoms: O_27  and  C_28
REMARK   14  A    between atoms: C_28  and  C_29
REMARK   15  A    between atoms: C_28  and  C_30
REMARK   16  A    between atoms: C_33  and  C_39
REMARK   17  A    between atoms: C_35  and  C_38
REMARK   18  A    between atoms: C_36  and  O_37
REMARK                            x       y       z     vdW  Elec       q    Type
REMARK                         _______ _______ _______ _____ _____    ______ ____
ROOT
ATOM      1  C   UNL     1       1.803  -5.892  -1.280  0.00  0.00    +0.141 C 
ATOM      2  C   UNL     1       2.987  -6.197  -0.403  0.00  0.00    +0.035 A 
ATOM      3  C   UNL     1       4.343  -5.981  -0.135  0.00  0.00    +0.102 A 
ATOM      4  N   UNL     1       4.654  -6.698   0.927  0.00  0.00    -0.173 NA
ATOM      5  N   UNL     1       3.629  -7.345   1.356  0.00  0.00    -0.272 N 
ATOM      6  H   UNL     1       3.625  -7.935   2.126  0.00  0.00    +0.189 HD
ATOM      7  C   UNL     1       2.546  -7.076   0.567  0.00  0.00    +0.126 A 
ATOM      8  C   UNL     1       1.122  -7.345   0.342  0.00  0.00    +0.265 C 
ATOM      9  O   UNL     1       0.437  -8.081   1.026  0.00  0.00    -0.268 OA
ATOM     10  N   UNL     1       0.679  -6.662  -0.731  0.00  0.00    -0.285 N 
ENDROOT
BRANCH   3  11
ATOM     11  C   UNL     1       5.262  -5.107  -0.905  0.00  0.00    +0.044 A 
ATOM     12  C   UNL     1       4.832  -4.506  -2.085  0.00  0.00    +0.017 A 
ATOM     13  C   UNL     1       5.690  -3.694  -2.798  0.00  0.00    -0.049 A 
ATOM     14  C   UNL     1       6.979  -3.474  -2.344  0.00  0.00    +0.010 A 
ATOM     15  C   UNL     1       7.417  -4.066  -1.175  0.00  0.00    -0.008 A 
ATOM     16  C   UNL     1       6.562  -4.879  -0.446  0.00  0.00    +0.129 A 
ATOM     17  C   UNL     1       8.822  -3.823  -0.687  0.00  0.00    +0.047 C 
ATOM     18  C   UNL     1       5.223  -3.045  -4.075  0.00  0.00    +0.044 C 
BRANCH  16  19
ATOM     19  O   UNL     1       6.989  -5.456   0.707  0.00  0.00    -0.506 OA
ATOM     20  H   UNL     1       7.397  -6.325   0.585  0.00  0.00    +0.292 HD
ENDBRANCH  16  19
ENDBRANCH   3  11
BRANCH   1  24
ATOM     21  C   UNL     1       0.922  -1.709  -1.165  0.00  0.00    +0.162 A 
ATOM     22  C   UNL     1       1.428  -2.282  -2.321  0.00  0.00    +0.050 A 
ATOM     23  C   UNL     1       1.712  -3.634  -2.355  0.00  0.00    +0.009 A 
ATOM     24  C   UNL     1       1.492  -4.418  -1.238  0.00  0.00    -0.019 A 
ATOM     25  C   UNL     1       0.988  -3.853  -0.081  0.00  0.00    +0.055 A 
ATOM     26  C   UNL     1       0.706  -2.497  -0.039  0.00  0.00    +0.162 A 
BRANCH  21  27
ATOM     27  O   UNL     1       0.642  -0.378  -1.130  0.00  0.00    -0.489 OA
BRANCH  27  29
ATOM     28  C   UNL     1       0.517   1.834  -2.094  0.00  0.00    +0.048 C 
ATOM     29  C   UNL     1       0.889   0.368  -2.324  0.00  0.00    +0.226 C 
ENDBRANCH  27  29
ENDBRANCH  21  27
BRANCH  26  30
ATOM     30  O   UNL     1       0.216  -1.938   1.100  0.00  0.00    -0.489 OA
BRANCH  30  31
ATOM     31  C   UNL     1       0.063  -2.798   2.231  0.00  0.00    +0.226 C 
ATOM     32  C   UNL     1      -0.439  -1.984   3.426  0.00  0.00    +0.048 C 
ENDBRANCH  30  31
ENDBRANCH  26  30
ENDBRANCH   1  24
BRANCH  10  33
ATOM     33  C   UNL     1      -0.687  -6.681  -1.260  0.00  0.00    +0.111 C 
BRANCH  33  34
ATOM     34  C   UNL     1      -0.817  -7.800  -2.296  0.00  0.00    +0.047 C 
BRANCH  34  35
ATOM     35  C   UNL     1      -2.244  -7.820  -2.847  0.00  0.00    +0.161 C 
BRANCH  35  36
ATOM     36  O   UNL     1      -2.366  -8.864  -3.815  0.00  0.00    -0.377 OA
BRANCH  36  37
ATOM     37  C   UNL     1      -3.667  -8.970  -4.395  0.00  0.00    +0.112 C 
ATOM     38  C   UNL     1      -3.742  -8.089  -5.644  0.00  0.00    +0.037 C 
ATOM     39  C   UNL     1      -3.936 -10.426  -4.782  0.00  0.00    +0.037 C 
ENDBRANCH  36  37
ENDBRANCH  35  36
ENDBRANCH  34  35
ENDBRANCH  33  34
ENDBRANCH  10  33
TORSDOF 12
