REMARK  Name = ZINC16904637
REMARK  4 active torsions:
REMARK  status: ('A' for Active; 'I' for Inactive)
REMARK    1  A    between atoms: C_1  and  C_2
REMARK    2  A    between atoms: C_5  and  N_9
REMARK    3  A    between atoms: C_6  and  O_8
REMARK    4  A    between atoms: C_15  and  C_16
REMARK                            x       y       z     vdW  Elec       q    Type
REMARK                         _______ _______ _______ _____ _____    ______ ____
ROOT
ATOM      1  N   UNL     1       1.158  -1.189   0.481  0.00  0.00    -0.222 NA
ATOM      2  C   UNL     1       0.934   0.034   0.056  0.00  0.00    +0.166 C 
ATOM      3  N   UNL     1       1.751   1.145   0.143  0.00  0.00    -0.260 N 
ATOM      4  C   UNL     1       1.348   2.304  -0.348  0.00  0.00    +0.256 C 
ATOM      5  O   UNL     1       2.058   3.291  -0.279  0.00  0.00    -0.269 OA
ATOM      6  C   UNL     1       0.061   2.370  -0.960  0.00  0.00    +0.078 C 
ATOM      7  C   UNL     1      -0.566   3.433  -1.534  0.00  0.00    +0.030 C 
ATOM      8  S   UNL     1      -0.504   0.684  -0.780  0.00  0.00    -0.049 S 
ATOM      9  H   UNL     1       2.621   1.073   0.564  0.00  0.00    +0.157 HD
ENDROOT
BRANCH   7  10
ATOM     10  C   UNL     1      -1.843   3.243  -2.224  0.00  0.00    +0.001 A 
ATOM     11  C   UNL     1      -2.381   2.058  -2.639  0.00  0.00    +0.091 A 
ATOM     12  N   UNL     1      -3.579   2.284  -3.237  0.00  0.00    -0.360 N 
ATOM     13  H   UNL     1      -4.150   1.594  -3.611  0.00  0.00    +0.165 HD
ATOM     14  C   UNL     1      -3.866   3.633  -3.244  0.00  0.00    +0.047 A 
ATOM     15  C   UNL     1      -2.800   4.296  -2.615  0.00  0.00    +0.007 A 
ATOM     16  C   UNL     1      -2.822   5.681  -2.479  0.00  0.00    +0.010 A 
ATOM     17  C   UNL     1      -3.893   6.398  -2.966  0.00  0.00    +0.001 A 
ATOM     18  C   UNL     1      -4.947   5.745  -3.587  0.00  0.00    +0.002 A 
ATOM     19  C   UNL     1      -4.939   4.374  -3.728  0.00  0.00    +0.026 A 
ENDBRANCH   7  10
BRANCH   1  24
ATOM     20  C   UNL     1      -2.921  -5.083   0.141  0.00  0.00    +0.044 C 
ATOM     21  C   UNL     1      -1.831  -4.046   0.232  0.00  0.00    -0.047 A 
ATOM     22  C   UNL     1      -2.101  -2.811   0.794  0.00  0.00    +0.005 A 
ATOM     23  C   UNL     1      -1.110  -1.854   0.880  0.00  0.00    +0.032 A 
ATOM     24  C   UNL     1       0.170  -2.134   0.399  0.00  0.00    +0.108 A 
ATOM     25  C   UNL     1       0.437  -3.384  -0.174  0.00  0.00    +0.142 A 
ATOM     26  C   UNL     1      -0.566  -4.334  -0.248  0.00  0.00    +0.051 A 
BRANCH  25  27
ATOM     27  O   UNL     1       1.679  -3.665  -0.651  0.00  0.00    -0.505 OA
ATOM     28  H   UNL     1       2.272  -4.059   0.004  0.00  0.00    +0.292 HD
ENDBRANCH  25  27
ENDBRANCH   1  24
TORSDOF 3
