REMARK  Name = ZINC59730357
REMARK  7 active torsions:
REMARK  status: ('A' for Active; 'I' for Inactive)
REMARK    1  A    between atoms: C_2  and  C_3
REMARK    2  A    between atoms: C_3  and  O_4
REMARK    3  A    between atoms: O_4  and  C_5
REMARK    4  A    between atoms: C_5  and  C_7
REMARK    5  A    between atoms: C_7  and  N_18
REMARK    6  A    between atoms: C_8  and  C_9
REMARK    7  A    between atoms: C_19  and  C_21
REMARK                            x       y       z     vdW  Elec       q    Type
REMARK                         _______ _______ _______ _____ _____    ______ ____
ROOT
ATOM      1  C   UNL     1       2.471  -3.709   1.926  0.00  0.00    +0.119 C 
ATOM      2  C   UNL     1       3.442  -4.630   2.138  0.00  0.00    +0.038 C 
ENDROOT
BRANCH   2   3
ATOM      3  C   UNL     1       4.713  -4.540   1.407  0.00  0.00    -0.019 A 
ATOM      4  C   UNL     1       5.191  -3.296   0.981  0.00  0.00    +0.012 A 
ATOM      5  C   UNL     1       6.384  -3.215   0.296  0.00  0.00    +0.050 A 
ATOM      6  C   UNL     1       7.115  -4.364   0.026  0.00  0.00    +0.166 A 
ATOM      7  C   UNL     1       6.645  -5.608   0.448  0.00  0.00    +0.167 A 
ATOM      8  C   UNL     1       5.453  -5.698   1.140  0.00  0.00    +0.057 A 
ATOM      9  O   UNL     1       7.540  -6.565   0.063  0.00  0.00    -0.453 OA
ATOM     10  C   UNL     1       8.352  -5.945  -0.952  0.00  0.00    +0.466 C 
ATOM     11  O   UNL     1       8.302  -4.544  -0.622  0.00  0.00    -0.453 OA
ENDBRANCH   2   3
BRANCH   1  12
ATOM     12  N   UNL     1       1.338  -3.684   2.747  0.00  0.00    -0.273 N 
ATOM     13  C   UNL     1       0.314  -2.857   2.458  0.00  0.00    +0.284 C 
ATOM     14  O   UNL     1       0.337  -2.194   1.437  0.00  0.00    -0.266 OA
ATOM     15  H   UNL     1       1.290  -4.262   3.525  0.00  0.00    +0.155 HD
BRANCH  13  16
ATOM     16  C   UNL     1      -0.827  -2.756   3.371  0.00  0.00    +0.191 A 
ATOM     17  C   UNL     1      -1.927  -1.966   3.197  0.00  0.00    +0.056 A 
ATOM     18  C   UNL     1      -2.760  -2.182   4.305  0.00  0.00    +0.058 A 
ATOM     19  C   UNL     1      -2.139  -3.085   5.099  0.00  0.00    +0.171 A 
ATOM     20  O   UNL     1      -0.977  -3.432   4.530  0.00  0.00    -0.444 OA
ATOM     21 BR   UNL     1      -2.805  -3.752   6.738  0.00  0.00    -0.008 Br
ENDBRANCH  13  16
ENDBRANCH   1  12
BRANCH   1  22
ATOM     22  C   UNL     1       2.609  -2.737   0.836  0.00  0.00    +0.354 C 
ATOM     23  O   UNL     1       2.596  -1.545   1.079  0.00  0.00    -0.244 OA
BRANCH  22  24
ATOM     24  O   UNL     1       2.749  -3.165  -0.435  0.00  0.00    -0.456 OA
BRANCH  24  25
ATOM     25  C   UNL     1       2.878  -2.163  -1.446  0.00  0.00    +0.259 C 
BRANCH  25  27
ATOM     26  C   UNL     1       2.339  -2.381  -3.818  0.00  0.00    +0.007 C 
ATOM     27  C   UNL     1       3.023  -2.824  -2.793  0.00  0.00    +0.006 C 
ENDBRANCH  25  27
ENDBRANCH  24  25
ENDBRANCH  22  24
ENDBRANCH   1  22
TORSDOF 7
