REMARK  Name = ZINC13639854
REMARK  5 active torsions:
REMARK  status: ('A' for Active; 'I' for Inactive)
REMARK    1  A    between atoms: C_3  and  C_9
REMARK    2  A    between atoms: C_4  and  O_8
REMARK    3  A    between atoms: C_6  and  O_7
REMARK    4  A    between atoms: C_20  and  S_25
REMARK    5  A    between atoms: S_25  and  N_28
REMARK                            x       y       z     vdW  Elec       q    Type
REMARK                         _______ _______ _______ _____ _____    ______ ____
ROOT
ATOM      1  C   UNL     1      -1.212  -2.051   0.484  0.00  0.00    +0.108 C 
ATOM      2  C   UNL     1      -0.654  -3.279  -0.241  0.00  0.00    +0.029 C 
ATOM      3  C   UNL     1      -1.076  -4.530   0.566  0.00  0.00    +0.033 C 
ATOM      4  C   UNL     1      -0.041  -4.586   1.674  0.00  0.00    -0.030 C 
ATOM      5  C   UNL     1       1.040  -3.933   1.325  0.00  0.00    -0.023 C 
ATOM      6  C   UNL     1       0.875  -3.348  -0.057  0.00  0.00    +0.049 C 
ATOM      7  C   UNL     1       1.538  -2.012  -0.169  0.00  0.00    -0.018 A 
ATOM      8  C   UNL     1       2.922  -1.961  -0.258  0.00  0.00    +0.034 A 
ATOM      9  C   UNL     1       3.574  -0.749  -0.367  0.00  0.00    +0.106 A 
ATOM     10  C   UNL     1       2.853   0.431  -0.389  0.00  0.00    +0.030 A 
ATOM     11  C   UNL     1       1.476   0.393  -0.300  0.00  0.00    +0.025 A 
ATOM     12  C   UNL     1       0.819  -0.827  -0.189  0.00  0.00    +0.031 A 
ATOM     13  N   UNL     1      -0.576  -0.849  -0.095  0.00  0.00    -0.336 N 
ATOM     14  H   UNL     1      -1.105  -0.088  -0.382  0.00  0.00    +0.147 HD
ENDROOT
BRANCH   1  17
ATOM     15  C   UNL     1       0.574  -1.820   3.802  0.00  0.00    +0.046 A 
ATOM     16  C   UNL     1       0.300  -1.724   2.451  0.00  0.00    +0.012 A 
ATOM     17  C   UNL     1      -0.916  -2.157   1.958  0.00  0.00    +0.015 A 
ATOM     18  C   UNL     1      -1.868  -2.685   2.819  0.00  0.00    +0.125 A 
ATOM     19  C   UNL     1      -1.593  -2.788   4.174  0.00  0.00    +0.091 A 
ATOM     20  C   UNL     1      -0.372  -2.353   4.667  0.00  0.00    +0.120 A 
BRANCH  20  21
ATOM     21  O   UNL     1      -0.102  -2.448   5.995  0.00  0.00    -0.507 OA
ATOM     22  H   UNL     1      -0.362  -1.669   6.506  0.00  0.00    +0.292 HD
ENDBRANCH  20  21
BRANCH  18  23
ATOM     23  O   UNL     1      -3.066  -3.105   2.334  0.00  0.00    -0.506 OA
ATOM     24  H   UNL     1      -3.108  -4.055   2.162  0.00  0.00    +0.292 HD
ENDBRANCH  18  23
ENDBRANCH   1  17
BRANCH   9  25
ATOM     25  S   UNL     1       5.332  -0.706  -0.479  0.00  0.00    +0.061 S 
ATOM     26  O   UNL     1       5.736   0.579  -0.024  0.00  0.00    -0.153 OA
ATOM     27  O   UNL     1       5.806  -1.907   0.113  0.00  0.00    -0.153 OA
BRANCH  25  28
ATOM     28  N   UNL     1       5.722  -0.783  -2.086  0.00  0.00    -0.177 NA
ATOM     29  C   UNL     1       5.941  -2.079  -2.742  0.00  0.00    +0.109 C 
ATOM     30  C   UNL     1       5.035  -2.159  -3.981  0.00  0.00    +0.017 C 
ATOM     31  C   UNL     1       5.300  -0.948  -4.878  0.00  0.00    +0.003 C 
ATOM     32  C   UNL     1       4.963   0.336  -4.118  0.00  0.00    +0.017 C 
ATOM     33  C   UNL     1       5.863   0.444  -2.882  0.00  0.00    +0.109 C 
ENDBRANCH  25  28
ENDBRANCH   9  25
TORSDOF 5
