REMARK  Name = ZINC37390780
REMARK  6 active torsions:
REMARK  status: ('A' for Active; 'I' for Inactive)
REMARK    1  A    between atoms: C_1  and  C_2
REMARK    2  A    between atoms: C_5  and  C_11
REMARK    3  A    between atoms: C_7  and  N_8
REMARK    4  A    between atoms: N_12  and  N_13
REMARK    5  A    between atoms: C_14  and  C_16
REMARK    6  A    between atoms: C_16  and  C_17
REMARK                            x       y       z     vdW  Elec       q    Type
REMARK                         _______ _______ _______ _____ _____    ______ ____
ROOT
ATOM      1  C   UNL     1       0.535  -4.163  -0.145  0.00  0.00    +0.138 C 
ATOM      2  N   UNL     1       0.592  -4.742  -1.305  0.00  0.00    -0.188 NA
ENDROOT
BRANCH   1   7
ATOM      3  C   UNL     1      -2.575   0.629   0.526  0.00  0.00    +0.046 C 
ATOM      4  C   UNL     1      -1.760  -0.627   0.350  0.00  0.00    -0.020 A 
ATOM      5  C   UNL     1      -2.014  -1.468  -0.719  0.00  0.00    +0.006 A 
ATOM      6  C   UNL     1      -1.272  -2.619  -0.886  0.00  0.00    +0.010 A 
ATOM      7  C   UNL     1      -0.263  -2.934   0.026  0.00  0.00    -0.003 A 
ATOM      8  C   UNL     1      -0.012  -2.080   1.103  0.00  0.00    +0.042 A 
ATOM      9  C   UNL     1      -0.758  -0.929   1.254  0.00  0.00    +0.130 A 
BRANCH   9  10
ATOM     10  N   UNL     1      -0.490  -0.020   2.391  0.00  0.00    +0.057 N 
ATOM     11  O   UNL     1      -0.571   1.177   2.239  0.00  0.00    -0.126 OA
ATOM     12  O   UNL     1      -0.190  -0.473   3.470  0.00  0.00    -0.126 OA
ENDBRANCH   9  10
ENDBRANCH   1   7
BRANCH   2  13
ATOM     13  N   UNL     1       0.222  -4.038  -2.459  0.00  0.00    -0.207 N 
ATOM     14  C   UNL     1       0.140  -4.679  -3.642  0.00  0.00    +0.237 C 
ATOM     15  O   UNL     1       0.385  -5.865  -3.707  0.00  0.00    -0.274 OA
ATOM     16  H   UNL     1       0.026  -3.090  -2.406  0.00  0.00    +0.177 HD
BRANCH  14  17
ATOM     17  C   UNL     1      -0.258  -3.922  -4.883  0.00  0.00    +0.132 C 
BRANCH  17  18
ATOM     18  C   UNL     1      -0.275  -4.862  -6.061  0.00  0.00    -0.039 A 
ATOM     19  C   UNL     1       0.870  -5.047  -6.813  0.00  0.00    +0.005 A 
ATOM     20  C   UNL     1       0.855  -5.909  -7.893  0.00  0.00    +0.015 A 
ATOM     21  C   UNL     1      -0.305  -6.587  -8.221  0.00  0.00    +0.018 A 
ATOM     22  C   UNL     1      -1.450  -6.402  -7.468  0.00  0.00    +0.015 A 
ATOM     23  C   UNL     1      -1.433  -5.543  -6.385  0.00  0.00    +0.005 A 
ATOM     24 BR   UNL     1      -0.326  -7.766  -9.699  0.00  0.00    -0.050 Br
ENDBRANCH  17  18
ENDBRANCH  14  17
ENDBRANCH   2  13
TORSDOF 5
