REMARK  Name = ZINC15962503
REMARK  4 active torsions:
REMARK  status: ('A' for Active; 'I' for Inactive)
REMARK    1  A    between atoms: N_21  and  N_22
REMARK    2  A    between atoms: N_22  and  C_23
REMARK    3  A    between atoms: C_23  and  N_25
REMARK    4  A    between atoms: N_25  and  C_26
REMARK                            x       y       z     vdW  Elec       q    Type
REMARK                         _______ _______ _______ _____ _____    ______ ____
ROOT
ATOM      1  C   UNL     1      -0.017   1.379   0.010  0.00  0.00    +0.000 A 
ATOM      2  C   UNL     1       1.168   2.095   0.002  0.00  0.00    +0.001 A 
ATOM      3  C   UNL     1       2.377   1.430  -0.024  0.00  0.00    +0.010 A 
ATOM      4  C   UNL     1       2.401   0.038  -0.048  0.00  0.00    +0.004 A 
ATOM      5  C   UNL     1       1.205  -0.680  -0.016  0.00  0.00    -0.037 A 
ATOM      6  C   UNL     1       0.002  -0.004   0.002  0.00  0.00    +0.004 A 
ATOM      7  C   UNL     1       1.230  -2.184   0.029  0.00  0.00    +0.047 C 
ATOM      8  C   UNL     1       2.392  -2.727  -0.796  0.00  0.00    +0.007 C 
ATOM      9  C   UNL     1       2.529  -4.244  -0.563  0.00  0.00    +0.012 C 
ATOM     10  C   UNL     1       1.740  -4.880  -1.735  0.00  0.00    +0.001 C 
ATOM     11  C   UNL     1       2.075  -3.942  -2.922  0.00  0.00    +0.001 C 
ATOM     12  C   UNL     1       2.104  -2.533  -2.294  0.00  0.00    +0.012 C 
ATOM     13  C   UNL     1       3.679  -2.042  -0.433  0.00  0.00    +0.049 A 
ATOM     14  C   UNL     1       3.683  -0.700  -0.089  0.00  0.00    +0.084 A 
ATOM     15  N   UNL     1       4.838  -0.091   0.204  0.00  0.00    -0.214 NA
ATOM     16  C   UNL     1       5.976  -0.755   0.195  0.00  0.00    +0.213 A 
ATOM     17  N   UNL     1       6.023  -2.080  -0.113  0.00  0.00    -0.294 N 
ATOM     18  H   UNL     1       6.872  -2.549  -0.101  0.00  0.00    +0.172 HD
ATOM     19  C   UNL     1       4.892  -2.744  -0.436  0.00  0.00    +0.257 A 
ATOM     20  O   UNL     1       4.926  -3.929  -0.725  0.00  0.00    -0.267 OA
ATOM     21  N   UNL     1       7.137  -0.098   0.502  0.00  0.00    -0.235 N 
ATOM     22  H   UNL     1       7.981  -0.577   0.499  0.00  0.00    +0.173 HD
ENDROOT
BRANCH  21  23
ATOM     23  N   UNL     1       7.106   1.266   0.822  0.00  0.00    -0.246 N 
ATOM     24  H   UNL     1       6.263   1.745   0.825  0.00  0.00    +0.172 HD
BRANCH  23  25
ATOM     25  C   UNL     1       8.249   1.913   1.124  0.00  0.00    +0.147 C 
ATOM     26  S   UNL     1       8.212   3.579   1.514  0.00  0.00    -0.017 S 
BRANCH  25  27
ATOM     27  N   UNL     1       9.422   1.248   1.120  0.00  0.00    -0.323 N 
ATOM     28  H   UNL     1       9.443   0.304   0.899  0.00  0.00    +0.148 HD
BRANCH  27  29
ATOM     29  C   UNL     1      10.664   1.951   1.449  0.00  0.00    +0.072 C 
ATOM     30  C   UNL     1      11.213   2.631   0.193  0.00  0.00    +0.022 C 
ATOM     31  C   UNL     1      12.511   3.365   0.536  0.00  0.00    +0.002 C 
ATOM     32  C   UNL     1      13.539   2.364   1.065  0.00  0.00    +0.000 C 
ATOM     33  C   UNL     1      12.990   1.684   2.321  0.00  0.00    +0.002 C 
ATOM     34  C   UNL     1      11.693   0.949   1.977  0.00  0.00    +0.022 C 
ENDBRANCH  27  29
ENDBRANCH  25  27
ENDBRANCH  23  25
ENDBRANCH  21  23
TORSDOF 4
