REMARK  Name = ZINC63654918
REMARK  7 active torsions:
REMARK  status: ('A' for Active; 'I' for Inactive)
REMARK    1  A    between atoms: C_1  and  C_2
REMARK    2  A    between atoms: C_5  and  C_8
REMARK    3  A    between atoms: C_10  and  S_18
REMARK    4  A    between atoms: S_18  and  C_19
REMARK    5  A    between atoms: C_19  and  C_20
REMARK    6  A    between atoms: C_20  and  N_21
REMARK    7  A    between atoms: C_22  and  C_24
REMARK                            x       y       z     vdW  Elec       q    Type
REMARK                         _______ _______ _______ _____ _____    ______ ____
ROOT
ATOM      1  C   UNL     1       0.067  -4.302  -0.043  0.00  0.00    +0.147 C 
ATOM      2  C   UNL     1      -1.321  -4.832   0.241  0.00  0.00    +0.021 C 
ATOM      3  C   UNL     1      -1.205  -5.586   1.404  0.00  0.00    +0.010 A 
ATOM      4  C   UNL     1      -2.143  -6.323   2.160  0.00  0.00    +0.011 A 
ATOM      5  C   UNL     1      -1.742  -6.977   3.280  0.00  0.00    +0.001 A 
ATOM      6  C   UNL     1      -0.414  -6.942   3.710  0.00  0.00    +0.002 A 
ATOM      7  C   UNL     1       0.539  -6.254   3.033  0.00  0.00    +0.026 A 
ATOM      8  C   UNL     1       0.195  -5.546   1.854  0.00  0.00    +0.044 A 
ATOM      9  N   UNL     1       0.925  -4.815   1.030  0.00  0.00    -0.373 N 
ATOM     10  H   UNL     1       1.875  -4.644   1.120  0.00  0.00    +0.161 HD
ENDROOT
BRANCH   1  15
ATOM     11  C   UNL     1       0.039   1.476   0.018  0.00  0.00    +0.044 C 
ATOM     12  C   UNL     1       0.046  -0.031   0.002  0.00  0.00    -0.050 A 
ATOM     13  C   UNL     1       0.034  -0.709  -1.202  0.00  0.00    +0.004 A 
ATOM     14  C   UNL     1       0.041  -2.091  -1.217  0.00  0.00    +0.006 A 
ATOM     15  C   UNL     1       0.061  -2.795  -0.027  0.00  0.00    -0.020 A 
ATOM     16  C   UNL     1       0.074  -2.117   1.177  0.00  0.00    +0.006 A 
ATOM     17  C   UNL     1       0.071  -0.735   1.192  0.00  0.00    +0.004 A 
ENDBRANCH   1  15
BRANCH   2  18
ATOM     18  S   UNL     1      -2.697  -4.569  -0.650  0.00  0.00    -0.125 S 
BRANCH  18  19
ATOM     19  C   UNL     1      -3.945  -5.612   0.151  0.00  0.00    +0.093 C 
BRANCH  19  20
ATOM     20  C   UNL     1      -5.240  -5.574  -0.663  0.00  0.00    +0.115 C 
BRANCH  20  21
ATOM     21  N   UNL     1      -6.249  -6.417  -0.015  0.00  0.00    -0.314 N 
ATOM     22  C   UNL     1      -7.476  -6.537  -0.559  0.00  0.00    +0.219 C 
ATOM     23  O   UNL     1      -7.746  -5.947  -1.584  0.00  0.00    -0.275 OA
ATOM     24  H   UNL     1      -6.033  -6.889   0.804  0.00  0.00    +0.149 HD
BRANCH  22  25
ATOM     25  C   UNL     1      -8.514  -7.404   0.107  0.00  0.00    +0.048 C 
ATOM     26  C   UNL     1      -8.784  -6.882   1.520  0.00  0.00    +0.019 C 
ATOM     27  C   UNL     1      -9.837  -7.762   2.196  0.00  0.00    -0.009 C 
ATOM     28  C   UNL     1     -11.132  -7.724   1.382  0.00  0.00    +0.007 C 
ATOM     29  C   UNL     1     -10.861  -8.246  -0.031  0.00  0.00    -0.009 C 
ATOM     30  C   UNL     1      -9.808  -7.367  -0.707  0.00  0.00    +0.019 C 
ATOM     31  C   UNL     1     -10.350  -9.686   0.047  0.00  0.00    +0.007 C 
ATOM     32  C   UNL     1      -9.055  -9.724   0.861  0.00  0.00    -0.009 C 
ATOM     33  C   UNL     1      -9.325  -9.201   2.274  0.00  0.00    +0.007 C 
ATOM     34  C   UNL     1      -8.001  -8.844   0.185  0.00  0.00    +0.019 C 
ENDBRANCH  22  25
ENDBRANCH  20  21
ENDBRANCH  19  20
ENDBRANCH  18  19
ENDBRANCH   2  18
TORSDOF 6
