REMARK  Name = ZINC25082619
REMARK  8 active torsions:
REMARK  status: ('A' for Active; 'I' for Inactive)
REMARK    1  A    between atoms: C_4  and  N_7
REMARK    2  A    between atoms: C_8  and  C_10
REMARK    3  A    between atoms: C_10  and  N_11
REMARK    4  A    between atoms: C_14  and  N_17
REMARK    5  A    between atoms: C_18  and  C_20
REMARK    6  A    between atoms: C_25  and  S_26
REMARK    7  A    between atoms: S_26  and  C_27
REMARK    8  A    between atoms: C_27  and  C_28
REMARK                            x       y       z     vdW  Elec       q    Type
REMARK                         _______ _______ _______ _____ _____    ______ ____
ROOT
ATOM      1  N   UNL     1      -0.110   1.460  -0.337  0.00  0.00    +0.386 N 
ATOM      2  C   UNL     1      -0.850   1.802  -1.559  0.00  0.00    -0.076 C 
ATOM      3  C   UNL     1      -1.025   3.320  -1.642  0.00  0.00    +0.004 C 
ATOM      4  C   UNL     1       0.353   3.988  -1.654  0.00  0.00    +0.070 C 
ATOM      5  C   UNL     1       1.121   3.576  -0.395  0.00  0.00    +0.004 C 
ATOM      6  C   UNL     1       1.234   2.051  -0.348  0.00  0.00    -0.076 C 
ATOM      7  H   UNL     1      -0.657   1.885   0.517  0.00  0.00    -0.081 HD
ENDROOT
BRANCH   4   8
ATOM      8  N   UNL     1       0.191   5.444  -1.675  0.00  0.00    -0.309 N 
ATOM      9  C   UNL     1       0.020   6.086  -2.848  0.00  0.00    +0.245 C 
ATOM     10  O   UNL     1       0.000   5.457  -3.888  0.00  0.00    -0.270 OA
ATOM     11  H   UNL     1       0.209   6.013  -0.734  0.00  0.00    +0.149 HD
BRANCH   9  12
ATOM     12  C   UNL     1      -0.143   7.550  -2.869  0.00  0.00    +0.050 A 
ATOM     13  C   UNL     1      -0.121   8.278  -1.676  0.00  0.00    +0.014 A 
ATOM     14  C   UNL     1      -0.273   9.646  -1.702  0.00  0.00    +0.001 A 
ATOM     15  C   UNL     1      -0.448  10.309  -2.908  0.00  0.00    +0.001 A 
ATOM     16  C   UNL     1      -0.472   9.606  -4.094  0.00  0.00    +0.015 A 
ATOM     17  C   UNL     1      -0.315   8.225  -4.089  0.00  0.00    +0.020 A 
BRANCH  17  18
ATOM     18  S   UNL     1      -0.338   7.324  -5.603  0.00  0.00    -0.120 S 
BRANCH  18  19
ATOM     19  C   UNL     1      -0.581   8.601  -6.869  0.00  0.00    +0.110 C 
BRANCH  19  20
ATOM     20  C   UNL     1      -0.620   7.957  -8.231  0.00  0.00    -0.030 A 
ATOM     21  C   UNL     1       0.542   7.791  -8.962  0.00  0.00    +0.012 A 
ATOM     22  C   UNL     1       0.472   7.203 -10.181  0.00  0.00    +0.045 A 
ATOM     23  S   UNL     1      -1.276   6.874 -10.334  0.00  0.00    -0.105 S 
ATOM     24  C   UNL     1      -1.795   7.536  -8.759  0.00  0.00    +0.049 A 
ENDBRANCH  19  20
ENDBRANCH  18  19
ENDBRANCH  17  18
ENDBRANCH   9  12
ENDBRANCH   4   8
BRANCH   1  25
ATOM     25  C   UNL     1      -0.043   0.004  -0.153  0.00  0.00    +0.019 C 
BRANCH  25  27
ATOM     26  N   UNL     1      -1.612  -1.855   0.297  0.00  0.00    -0.287 N 
ATOM     27  C   UNL     1      -1.428  -0.535   0.098  0.00  0.00    +0.201 C 
ATOM     28  O   UNL     1      -2.377   0.220   0.121  0.00  0.00    -0.278 OA
ATOM     29  H   UNL     1      -0.766  -2.550   0.191  0.00  0.00    +0.155 HD
BRANCH  26  33
ATOM     30  C   UNL     1      -5.383  -3.303   1.315  0.00  0.00    +0.000 A 
ATOM     31  C   UNL     1      -4.535  -4.073   0.540  0.00  0.00    +0.002 A 
ATOM     32  C   UNL     1      -3.284  -3.596   0.201  0.00  0.00    +0.023 A 
ATOM     33  C   UNL     1      -2.879  -2.342   0.639  0.00  0.00    +0.033 A 
ATOM     34  C   UNL     1      -3.731  -1.574   1.421  0.00  0.00    +0.023 A 
ATOM     35  C   UNL     1      -4.983  -2.054   1.752  0.00  0.00    +0.002 A 
ENDBRANCH  26  33
ENDBRANCH  25  27
ENDBRANCH   1  25
TORSDOF 8
