REMARK  Name = ZINC06263576
REMARK  5 active torsions:
REMARK  status: ('A' for Active; 'I' for Inactive)
REMARK    1  A    between atoms: C_1  and  C_2
REMARK    2  A    between atoms: C_5  and  C_7
REMARK    3  A    between atoms: C_5  and  O_11
REMARK    4  A    between atoms: C_14  and  C_22
REMARK    5  A    between atoms: C_16  and  C_18
REMARK                            x       y       z     vdW  Elec       q    Type
REMARK                         _______ _______ _______ _____ _____    ______ ____
ROOT
ATOM      1  C   UNL     1      -4.892   7.165   0.052  0.00  0.00    +0.062 C 
ATOM      2  C   UNL     1      -4.204   5.825   0.052  0.00  0.00    +0.039 C 
ATOM      3  N   UNL     1      -2.958   5.643   0.217  0.00  0.00    -0.184 NA
ATOM      4  N   UNL     1      -2.558   4.309   0.173  0.00  0.00    -0.152 N 
ATOM      5  C   UNL     1      -3.746   3.467  -0.048  0.00  0.00    +0.239 C 
ATOM      6  C   UNL     1      -4.894   4.493  -0.135  0.00  0.00    +0.116 C 
ATOM      7  C   UNL     1      -1.260   3.850   0.321  0.00  0.00    +0.242 A 
ATOM      8  N   UNL     1      -0.302   4.712   0.623  0.00  0.00    -0.210 NA
ATOM      9  C   UNL     1       0.958   4.301   0.771  0.00  0.00    +0.112 A 
ATOM     10  C   UNL     1       1.252   2.942   0.601  0.00  0.00    +0.064 A 
ATOM     11  C   UNL     1       0.219   2.080   0.285  0.00  0.00    +0.149 A 
ATOM     12  N   UNL     1      -1.008   2.560   0.149  0.00  0.00    -0.209 NA
ENDROOT
BRANCH   9  13
ATOM     13  C   UNL     1       2.026   5.263   1.108  0.00  0.00    +0.153 A 
ATOM     14  C   UNL     1       1.866   6.601   1.292  0.00  0.00    +0.051 A 
ATOM     15  C   UNL     1       3.137   7.123   1.598  0.00  0.00    +0.042 A 
ATOM     16  C   UNL     1       4.004   6.090   1.577  0.00  0.00    +0.196 A 
ATOM     17  O   UNL     1       3.329   4.969   1.281  0.00  0.00    -0.461 OA
ENDBRANCH   9  13
BRANCH   5  18
ATOM     18  C   UNL     1      -3.960   2.515   1.130  0.00  0.00    +0.369 C 
ATOM     19  F   UNL     1      -2.900   1.603   1.192  0.00  0.00    -0.182 F 
ATOM     20  F   UNL     1      -4.013   3.249   2.320  0.00  0.00    -0.182 F 
ATOM     21 CL   UNL     1      -5.510   1.621   0.906  0.00  0.00    -0.043 Cl
ENDBRANCH   5  18
BRANCH  11  22
ATOM     22  C   UNL     1       0.487   0.609   0.093  0.00  0.00    +0.434 C 
ATOM     23  F   UNL     1       0.351  -0.054   1.317  0.00  0.00    -0.164 F 
ATOM     24  F   UNL     1      -0.429   0.085  -0.825  0.00  0.00    -0.164 F 
ATOM     25  F   UNL     1       1.787   0.431  -0.392  0.00  0.00    -0.164 F 
ENDBRANCH  11  22
BRANCH   5  26
ATOM     26  O   UNL     1      -3.625   2.736  -1.270  0.00  0.00    -0.364 OA
ATOM     27  H   UNL     1      -2.873   2.129  -1.292  0.00  0.00    +0.212 HD
ENDBRANCH   5  26
TORSDOF 4
