REMARK  Name = ZINC10000337
REMARK  11 active torsions:
REMARK  status: ('A' for Active; 'I' for Inactive)
REMARK    1  A    between atoms: C_1  and  C_2
REMARK    2  A    between atoms: C_2  and  C_3
REMARK    3  A    between atoms: C_2  and  C_4
REMARK    4  A    between atoms: C_4  and  C_6
REMARK    5  A    between atoms: C_4  and  N_25
REMARK    6  A    between atoms: N_8  and  N_9
REMARK    7  A    between atoms: C_10  and  C_11
REMARK    8  A    between atoms: C_20  and  O_21
REMARK    9  A    between atoms: O_21  and  C_22
REMARK   10  A    between atoms: C_22  and  C_23
REMARK   11  A    between atoms: C_26  and  C_28
REMARK                            x       y       z     vdW  Elec       q    Type
REMARK                         _______ _______ _______ _____ _____    ______ ____
ROOT
ATOM      1  C   UNL     1       5.004   5.840  -0.271  0.00  0.00    +0.253 C 
ATOM      2  O   UNL     1       3.907   6.123  -0.704  0.00  0.00    -0.272 OA
ATOM      3  N   UNL     1       6.005   6.741  -0.328  0.00  0.00    -0.205 N 
ATOM      4  H   UNL     1       6.860   6.542   0.083  0.00  0.00    +0.177 HD
ENDROOT
BRANCH   3   5
ATOM      5  N   UNL     1       5.809   7.965  -0.981  0.00  0.00    -0.188 NA
ATOM      6  C   UNL     1       6.774   8.834  -1.036  0.00  0.00    +0.142 C 
BRANCH   6   7
ATOM      7  C   UNL     1       6.568  10.118  -1.721  0.00  0.00    +0.044 A 
ATOM      8  C   UNL     1       7.642  11.106  -1.792  0.00  0.00    -0.006 A 
ATOM      9  C   UNL     1       8.895  10.867  -1.215  0.00  0.00    +0.009 A 
ATOM     10  C   UNL     1       9.871  11.815  -1.304  0.00  0.00    +0.001 A 
ATOM     11  C   UNL     1       9.638  13.020  -1.962  0.00  0.00    +0.001 A 
ATOM     12  C   UNL     1       8.432  13.285  -2.535  0.00  0.00    +0.008 A 
ATOM     13  C   UNL     1       7.403  12.331  -2.462  0.00  0.00    -0.017 A 
ATOM     14  C   UNL     1       6.144  12.569  -3.041  0.00  0.00    +0.012 A 
ATOM     15  C   UNL     1       5.156  11.639  -2.965  0.00  0.00    +0.047 A 
ATOM     16  C   UNL     1       5.346  10.417  -2.322  0.00  0.00    +0.131 A 
BRANCH  16  17
ATOM     17  O   UNL     1       4.332   9.515  -2.275  0.00  0.00    -0.479 OA
BRANCH  17  18
ATOM     18  C   UNL     1       3.106   9.883  -2.910  0.00  0.00    +0.317 C 
BRANCH  18  19
ATOM     19  C   UNL     1       2.129   8.792  -2.760  0.00  0.00    -0.065 C 
ATOM     20  C   UNL     1       1.350   7.922  -2.640  0.00  0.00    +0.007 C 
ENDBRANCH  18  19
ENDBRANCH  17  18
ENDBRANCH  16  17
ENDBRANCH   6   7
ENDBRANCH   3   5
BRANCH   1  21
ATOM     21  C   UNL     1       5.248   4.480   0.331  0.00  0.00    +0.163 C 
BRANCH  21  22
ATOM     22  N   UNL     1       4.194   3.558  -0.101  0.00  0.00    -0.300 N 
ATOM     23  C   UNL     1       4.431   2.232  -0.134  0.00  0.00    +0.245 C 
ATOM     24  O   UNL     1       5.519   1.800   0.195  0.00  0.00    -0.270 OA
ATOM     25  H   UNL     1       3.326   3.902  -0.364  0.00  0.00    +0.150 HD
BRANCH  23  26
ATOM     26  C   UNL     1       3.369   1.302  -0.571  0.00  0.00    +0.038 A 
ATOM     27  C   UNL     1       2.119   1.795  -0.950  0.00  0.00    +0.014 A 
ATOM     28  C   UNL     1       1.130   0.923  -1.355  0.00  0.00    +0.022 A 
ATOM     29  C   UNL     1       1.376  -0.440  -1.388  0.00  0.00    +0.059 A 
ATOM     30  C   UNL     1       2.615  -0.936  -1.014  0.00  0.00    +0.060 A 
ATOM     31  C   UNL     1       3.611  -0.072  -0.606  0.00  0.00    +0.034 A 
ATOM     32 CL   UNL     1       2.914  -2.645  -1.059  0.00  0.00    -0.082 Cl
ATOM     33 CL   UNL     1       0.127  -1.531  -1.900  0.00  0.00    -0.082 Cl
ENDBRANCH  23  26
ENDBRANCH  21  22
BRANCH  21  35
ATOM     34  C   UNL     1       3.840   5.005   2.328  0.00  0.00    +0.009 C 
ATOM     35  C   UNL     1       5.235   4.588   1.857  0.00  0.00    +0.012 C 
ATOM     36  C   UNL     1       5.596   3.232   2.468  0.00  0.00    +0.009 C 
ENDBRANCH  21  35
ENDBRANCH   1  21
TORSDOF 9
