REMARK  Name = ZINC34863236
REMARK  13 active torsions:
REMARK  status: ('A' for Active; 'I' for Inactive)
REMARK    1  A    between atoms: C_1  and  C_2
REMARK    2  A    between atoms: C_2  and  O_3
REMARK    3  A    between atoms: O_3  and  C_4
REMARK    4  A    between atoms: C_4  and  C_6
REMARK    5  A    between atoms: C_7  and  C_30
REMARK    6  A    between atoms: C_8  and  C_13
REMARK    7  A    between atoms: C_11  and  C_12
REMARK    8  A    between atoms: C_13  and  C_15
REMARK    9  A    between atoms: C_15  and  C_17
REMARK   10  A    between atoms: C_15  and  N_18
REMARK   11  A    between atoms: N_18  and  C_19
REMARK   12  A    between atoms: C_24  and  C_29
REMARK   13  A    between atoms: C_26  and  C_28
REMARK                            x       y       z     vdW  Elec       q    Type
REMARK                         _______ _______ _______ _____ _____    ______ ____
ROOT
ATOM      1  C   UNL     1       1.530  -3.901   5.924  0.00  0.00    +0.165 C 
ATOM      2  O   UNL     1       0.505  -4.011   6.565  0.00  0.00    -0.292 OA
ENDROOT
BRANCH   1   5
ATOM      3  C   UNL     1       0.747  -2.846   2.553  0.00  0.00    +0.083 A 
ATOM      4  C   UNL     1       0.335  -3.199   3.856  0.00  0.00    -0.008 A 
ATOM      5  C   UNL     1       1.477  -3.497   4.568  0.00  0.00    +0.084 A 
ATOM      6  N   UNL     1       2.560  -3.333   3.728  0.00  0.00    -0.355 N 
ATOM      7  H   UNL     1       3.487  -3.477   3.973  0.00  0.00    +0.166 HD
ATOM      8  C   UNL     1       2.127  -2.948   2.519  0.00  0.00    +0.028 A 
ATOM      9  C   UNL     1       2.999  -2.670   1.321  0.00  0.00    +0.064 C 
ATOM     10  C   UNL     1      -1.081  -3.240   4.371  0.00  0.00    +0.047 C 
BRANCH   3  11
ATOM     11  C   UNL     1      -0.128  -2.450   1.437  0.00  0.00    +0.341 C 
ATOM     12  O   UNL     1      -0.571  -3.293   0.683  0.00  0.00    -0.245 OA
BRANCH  11  13
ATOM     13  O   UNL     1      -0.439  -1.151   1.252  0.00  0.00    -0.461 OA
BRANCH  13  15
ATOM     14  C   UNL     1      -1.530   0.672   0.101  0.00  0.00    +0.048 C 
ATOM     15  C   UNL     1      -1.292  -0.839   0.150  0.00  0.00    +0.229 C 
ENDBRANCH  13  15
ENDBRANCH  11  13
ENDBRANCH   3  11
ENDBRANCH   1   5
BRANCH   1  16
ATOM     16  C   UNL     1       2.859  -4.194   6.572  0.00  0.00    -0.000 C 
ATOM     17  C   UNL     1       3.379  -5.545   6.077  0.00  0.00    -0.006 C 
BRANCH  16  18
ATOM     18  N   UNL     1       2.693  -4.237   8.031  0.00  0.00    +0.388 N 
ATOM     19  H   UNL     1       1.961  -4.890   8.267  0.00  0.00    -0.084 HD
ATOM     20  H   UNL     1       3.558  -4.532   8.458  0.00  0.00    -0.084 HD
BRANCH  18  21
ATOM     21  C   UNL     1       2.335  -2.900   8.522  0.00  0.00    -0.068 C 
ATOM     22  C   UNL     1       3.509  -1.944   8.302  0.00  0.00    -0.015 C 
ATOM     23  C   UNL     1       3.136  -0.551   8.814  0.00  0.00    -0.001 C 
ATOM     24  C   UNL     1       2.813  -0.627  10.308  0.00  0.00    +0.003 C 
ATOM     25  C   UNL     1       1.639  -1.583  10.528  0.00  0.00    -0.013 C 
ATOM     26  C   UNL     1       2.012  -2.976  10.016  0.00  0.00    -0.025 C 
ATOM     27  C   UNL     1       3.236  -3.488  10.777  0.00  0.00    +0.006 C 
ATOM     28  C   UNL     1       1.316  -1.659  12.022  0.00  0.00    +0.008 C 
ENDBRANCH  18  21
ENDBRANCH  16  18
ENDBRANCH   1  16
TORSDOF 7
