REMARK  Name = ZINC65406963
REMARK  3 active torsions:
REMARK  status: ('A' for Active; 'I' for Inactive)
REMARK    1  A    between atoms: C_6  and  C_11
REMARK    2  A    between atoms: C_17  and  O_19
REMARK    3  A    between atoms: C_22  and  C_25
REMARK                            x       y       z     vdW  Elec       q    Type
REMARK                         _______ _______ _______ _____ _____    ______ ____
ROOT
ATOM      1  C   UNL     1       5.008  -2.700  -0.060  0.00  0.00    +0.051 C 
ATOM      2  C   UNL     1       5.096  -3.571  -1.315  0.00  0.00    +0.029 C 
ATOM      3  C   UNL     1       6.454  -4.279  -1.347  0.00  0.00    +0.108 C 
ATOM      4  N   UNL     1       6.633  -5.015  -0.088  0.00  0.00    -0.307 N 
ATOM      5  C   UNL     1       6.480  -4.292   1.181  0.00  0.00    +0.139 C 
ATOM      6  C   UNL     1       5.121  -3.584   1.184  0.00  0.00    +0.139 C 
ATOM      7  C   UNL     1       6.940  -6.366  -0.098  0.00  0.00    +0.161 A 
ATOM      8  N   UNL     1       7.119  -7.170  -1.125  0.00  0.00    -0.220 NA
ATOM      9  C   UNL     1       7.413  -8.461  -0.950  0.00  0.00    +0.134 A 
ATOM     10  C   UNL     1       7.529  -8.949   0.327  0.00  0.00    +0.081 A 
ATOM     11  S   UNL     1       7.204  -7.472   1.280  0.00  0.00    -0.060 S 
ENDROOT
BRANCH   1  17
ATOM     12  C   UNL     1      -0.016   1.357   0.009  0.00  0.00    +0.001 A 
ATOM     13  C   UNL     1       1.169   2.091   0.002  0.00  0.00    +0.001 A 
ATOM     14  C   UNL     1       2.378   1.468  -0.013  0.00  0.00    +0.008 A 
ATOM     15  C   UNL     1       2.438   0.063  -0.021  0.00  0.00    -0.018 A 
ATOM     16  C   UNL     1       3.668  -0.615  -0.036  0.00  0.00    +0.012 A 
ATOM     17  C   UNL     1       3.687  -1.976  -0.043  0.00  0.00    -0.041 A 
ATOM     18  C   UNL     1       2.502  -2.710  -0.036  0.00  0.00    +0.004 A 
ATOM     19  C   UNL     1       1.292  -2.087  -0.021  0.00  0.00    +0.009 A 
ATOM     20  C   UNL     1       1.233  -0.683  -0.013  0.00  0.00    -0.018 A 
ATOM     21  C   UNL     1       0.002  -0.004   0.002  0.00  0.00    +0.008 A 
ENDBRANCH   1  17
BRANCH   9  22
ATOM     22  C   UNL     1       7.609  -9.346  -2.109  0.00  0.00    +0.260 C 
ATOM     23  O   UNL     1       7.877 -10.521  -1.939  0.00  0.00    -0.269 OA
ATOM     24  N   UNL     1       7.492  -8.856  -3.359  0.00  0.00    -0.324 N 
ATOM     25  H   UNL     1       7.279  -7.920  -3.495  0.00  0.00    +0.145 HD
ATOM     26  H   UNL     1       7.622  -9.440  -4.123  0.00  0.00    +0.145 HD
ENDBRANCH   9  22
BRANCH   6  27
ATOM     27  O   UNL     1       5.008  -2.774   2.356  0.00  0.00    -0.390 OA
ATOM     28  H   UNL     1       5.071  -3.269   3.184  0.00  0.00    +0.210 HD
ENDBRANCH   6  27
TORSDOF 3
