REMARK  Name = ZINC00645476
REMARK  4 active torsions:
REMARK  status: ('A' for Active; 'I' for Inactive)
REMARK    1  A    between atoms: C_1  and  C_2
REMARK    2  A    between atoms: C_7  and  N_8
REMARK    3  A    between atoms: N_8  and  C_9
REMARK    4  A    between atoms: N_13  and  C_16
REMARK                            x       y       z     vdW  Elec       q    Type
REMARK                         _______ _______ _______ _____ _____    ______ ____
ROOT
ATOM      1  C   UNL     1       1.129   2.735   0.129  0.00  0.00    +0.118 C 
ATOM      2  C   UNL     1      -0.055   2.071   0.154  0.00  0.00    +0.129 C 
ATOM      3  C   UNL     1      -1.105   3.084   0.312  0.00  0.00    +0.267 C 
ATOM      4  O   UNL     1      -2.299   2.861   0.370  0.00  0.00    -0.269 OA
ATOM      5  N   UNL     1      -0.531   4.297   0.385  0.00  0.00    -0.229 N 
ATOM      6  C   UNL     1       0.805   4.178   0.280  0.00  0.00    +0.269 C 
ATOM      7  O   UNL     1       1.605   5.089   0.304  0.00  0.00    -0.268 OA
ATOM      8 CL   UNL     1      -0.283   0.356   0.017  0.00  0.00    -0.076 Cl
ENDROOT
BRANCH   5   9
ATOM      9  C   UNL     1      -1.253   5.561   0.548  0.00  0.00    +0.085 C 
ATOM     10  C   UNL     1      -2.042   5.532   1.859  0.00  0.00    +0.023 C 
ATOM     11  C   UNL     1      -2.796   6.852   2.029  0.00  0.00    +0.002 C 
ATOM     12  C   UNL     1      -3.761   7.045   0.857  0.00  0.00    +0.000 C 
ATOM     13  C   UNL     1      -2.971   7.074  -0.453  0.00  0.00    +0.002 C 
ATOM     14  C   UNL     1      -2.217   5.753  -0.624  0.00  0.00    +0.023 C 
ENDBRANCH   5   9
BRANCH   1  15
ATOM     15  N   UNL     1       2.385   2.181  -0.008  0.00  0.00    -0.309 N 
ATOM     16  H   UNL     1       2.694   1.515   0.626  0.00  0.00    +0.152 HD
BRANCH  15  23
ATOM     17  C   UNL     1       5.049   1.184  -0.070  0.00  0.00    +0.046 C 
ATOM     18  C   UNL     1       4.520   2.115  -1.131  0.00  0.00    -0.028 A 
ATOM     19  C   UNL     1       5.335   2.509  -2.174  0.00  0.00    +0.025 A 
ATOM     20  C   UNL     1       4.851   3.363  -3.148  0.00  0.00    +0.041 A 
ATOM     21  C   UNL     1       3.547   3.825  -3.082  0.00  0.00    +0.022 A 
ATOM     22  C   UNL     1       2.726   3.431  -2.044  0.00  0.00    +0.025 A 
ATOM     23  C   UNL     1       3.212   2.577  -1.061  0.00  0.00    +0.034 A 
ATOM     24 CL   UNL     1       5.878   3.856  -4.458  0.00  0.00    -0.084 Cl
ENDBRANCH  15  23
ENDBRANCH   1  15
TORSDOF 3
