REMARK  Name = ZINC44873588
REMARK  10 active torsions:
REMARK  status: ('A' for Active; 'I' for Inactive)
REMARK    1  A    between atoms: C_4  and  S_7
REMARK    2  A    between atoms: S_7  and  N_10
REMARK    3  A    between atoms: N_10  and  C_11
REMARK    4  A    between atoms: N_10  and  C_29
REMARK    5  A    between atoms: C_11  and  C_12
REMARK    6  A    between atoms: N_14  and  C_15
REMARK    7  A    between atoms: C_15  and  C_16
REMARK    8  A    between atoms: C_19  and  C_22
REMARK    9  A    between atoms: C_22  and  N_23
REMARK   10  A    between atoms: C_32  and  N_35
REMARK                            x       y       z     vdW  Elec       q    Type
REMARK                         _______ _______ _______ _____ _____    ______ ____
ROOT
ATOM      1  C   UNL     1       4.036  -2.346   2.186  0.00  0.00    +0.227 C 
ENDROOT
BRANCH   1   2
ATOM      2  C   UNL     1       5.096  -3.371   1.877  0.00  0.00    +0.232 C 
ATOM      3  O   UNL     1       6.044  -3.072   1.182  0.00  0.00    -0.274 OA
ATOM      4  N   UNL     1       4.991  -4.620   2.373  0.00  0.00    -0.310 N 
ATOM      5  H   UNL     1       4.233  -4.859   2.929  0.00  0.00    +0.149 HD
BRANCH   4   6
ATOM      6  C   UNL     1       6.022  -5.616   2.072  0.00  0.00    +0.139 C 
BRANCH   6   7
ATOM      7  C   UNL     1       5.671  -6.920   2.741  0.00  0.00    -0.030 A 
ATOM      8  C   UNL     1       6.114  -7.180   4.025  0.00  0.00    +0.005 A 
ATOM      9  C   UNL     1       5.791  -8.376   4.639  0.00  0.00    +0.002 A 
ATOM     10  C   UNL     1       5.026  -9.312   3.969  0.00  0.00    -0.064 A 
ATOM     11  C   UNL     1       4.582  -9.052   2.686  0.00  0.00    +0.002 A 
ATOM     12  C   UNL     1       4.901  -7.854   2.074  0.00  0.00    +0.005 A 
BRANCH  10  13
ATOM     13  C   UNL     1       4.675 -10.616   4.638  0.00  0.00    -0.043 C 
BRANCH  13  14
ATOM     14  N   UNL     1       3.410 -10.467   5.369  0.00  0.00    +0.382 N 
ATOM     15  C   UNL     1       3.588  -9.498   6.458  0.00  0.00    -0.078 C 
ATOM     16  C   UNL     1       2.253  -9.278   7.173  0.00  0.00    -0.019 C 
ATOM     17  C   UNL     1       1.762 -10.610   7.747  0.00  0.00    -0.004 C 
ATOM     18  C   UNL     1       1.651 -11.634   6.614  0.00  0.00    -0.019 C 
ATOM     19  C   UNL     1       3.008 -11.767   5.920  0.00  0.00    -0.078 C 
ATOM     20  H   UNL     1       2.695 -10.134   4.739  0.00  0.00    -0.081 HD
ENDBRANCH  13  14
ENDBRANCH  10  13
ENDBRANCH   6   7
ENDBRANCH   4   6
ENDBRANCH   1   2
BRANCH   1  21
ATOM     21  N   UNL     1       4.378  -1.079   1.536  0.00  0.00    -0.194 N 
BRANCH  21  22
ATOM     22  C   UNL     1       5.241  -0.180   2.167  0.00  0.00    +0.052 A 
ATOM     23  C   UNL     1       4.914   0.340   3.413  0.00  0.00    +0.027 A 
ATOM     24  C   UNL     1       5.770   1.228   4.035  0.00  0.00    +0.034 A 
ATOM     25  C   UNL     1       6.951   1.599   3.418  0.00  0.00    +0.126 A 
ATOM     26  C   UNL     1       7.279   1.084   2.178  0.00  0.00    +0.034 A 
ATOM     27  C   UNL     1       6.430   0.191   1.553  0.00  0.00    +0.027 A 
BRANCH  25  28
ATOM     28  N   UNL     1       7.865   2.551   4.088  0.00  0.00    +0.056 N 
ATOM     29  O   UNL     1       7.580   3.003   5.172  0.00  0.00    -0.126 OA
ATOM     30  O   UNL     1       8.898   2.877   3.550  0.00  0.00    -0.126 OA
ENDBRANCH  25  28
ENDBRANCH  21  22
BRANCH  21  31
ATOM     31  S   UNL     1       3.741  -0.711   0.052  0.00  0.00    +0.075 S 
ATOM     32  O   UNL     1       3.524  -1.947  -0.615  0.00  0.00    -0.150 OA
ATOM     33  O   UNL     1       4.554   0.317  -0.496  0.00  0.00    -0.150 OA
BRANCH  31  37
ATOM     34  C   UNL     1      -0.343   1.109   0.759  0.00  0.00    +0.000 A 
ATOM     35  C   UNL     1       0.776   1.920   0.709  0.00  0.00    +0.002 A 
ATOM     36  C   UNL     1       2.023   1.364   0.493  0.00  0.00    +0.029 A 
ATOM     37  C   UNL     1       2.151  -0.003   0.328  0.00  0.00    +0.109 A 
ATOM     38  C   UNL     1       1.033  -0.813   0.379  0.00  0.00    +0.029 A 
ATOM     39  C   UNL     1      -0.215  -0.257   0.594  0.00  0.00    +0.002 A 
ENDBRANCH  31  37
ENDBRANCH  21  31
ENDBRANCH   1  21
TORSDOF 10
