REMARK  Name = ZINC08971014
REMARK  11 active torsions:
REMARK  status: ('A' for Active; 'I' for Inactive)
REMARK    1  A    between atoms: C_1  and  C_2
REMARK    2  A    between atoms: C_12  and  C_21
REMARK    3  A    between atoms: C_15  and  C_17
REMARK    4  A    between atoms: C_17  and  C_18
REMARK    5  A    between atoms: C_18  and  C_19
REMARK    6  A    between atoms: C_18  and  C_20
REMARK    7  A    between atoms: N_23  and  C_24
REMARK    8  A    between atoms: C_26  and  O_32
REMARK    9  A    between atoms: C_29  and  O_30
REMARK   10  A    between atoms: O_30  and  C_31
REMARK   11  A    between atoms: O_32  and  C_33
REMARK                            x       y       z     vdW  Elec       q    Type
REMARK                         _______ _______ _______ _____ _____    ______ ____
ROOT
ATOM      1  C   UNL     1      -2.319  -5.111   3.749  0.00  0.00    +0.046 C 
ATOM      2  C   UNL     1      -3.440  -4.385   3.051  0.00  0.00    -0.028 A 
ATOM      3  C   UNL     1      -4.709  -4.399   3.591  0.00  0.00    +0.025 A 
ATOM      4  C   UNL     1      -5.745  -3.736   2.958  0.00  0.00    +0.042 A 
ATOM      5  C   UNL     1      -5.506  -3.055   1.775  0.00  0.00    +0.024 A 
ATOM      6  C   UNL     1      -4.240  -3.040   1.234  0.00  0.00    -0.026 A 
ATOM      7  C   UNL     1      -3.191  -3.703   1.863  0.00  0.00    +0.039 A 
ATOM      8  N   UNL     1      -2.013  -3.546   1.130  0.00  0.00    -0.286 N 
ATOM      9  C   UNL     1      -2.198  -2.804   0.022  0.00  0.00    +0.211 C 
ATOM     10  O   UNL     1      -1.356  -2.506  -0.797  0.00  0.00    -0.277 OA
ATOM     11  C   UNL     1      -3.654  -2.415  -0.003  0.00  0.00    +0.049 C 
ATOM     12  C   UNL     1      -3.814  -0.890   0.020  0.00  0.00    +0.076 C 
ATOM     13  C   UNL     1      -4.589  -0.553  -1.276  0.00  0.00    -0.004 C 
ATOM     14  C   UNL     1      -4.310  -1.783  -2.177  0.00  0.00    -0.069 C 
ATOM     15 CL   UNL     1      -7.340  -3.756   3.643  0.00  0.00    -0.084 Cl
ATOM     16  H   UNL     1      -1.159  -3.927   1.389  0.00  0.00    +0.155 HD
ATOM     17  N   UNL     1      -4.304  -2.895  -1.214  0.00  0.00    +0.394 N 
ATOM     18  H   UNL     1      -5.267  -3.183  -1.005  0.00  0.00    -0.083 HD
ATOM     19  H   UNL     1      -3.784  -3.692  -1.600  0.00  0.00    -0.083 HD
ENDROOT
BRANCH  12  20
ATOM     20  C   UNL     1      -2.463  -0.221   0.013  0.00  0.00    +0.220 C 
ATOM     21  O   UNL     1      -1.937   0.072  -1.039  0.00  0.00    -0.275 OA
ATOM     22  N   UNL     1      -1.841   0.051   1.177  0.00  0.00    -0.282 N 
ATOM     23  H   UNL     1      -2.231  -0.241   2.016  0.00  0.00    +0.155 HD
BRANCH  22  24
ATOM     24  C   UNL     1      -0.629   0.756   1.175  0.00  0.00    +0.079 A 
ATOM     25  C   UNL     1       0.279   0.574   0.143  0.00  0.00    +0.072 A 
ATOM     26  C   UNL     1       1.473   1.277   0.140  0.00  0.00    +0.122 A 
ATOM     27  C   UNL     1       1.763   2.158   1.172  0.00  0.00    +0.049 A 
ATOM     28  C   UNL     1       0.862   2.337   2.205  0.00  0.00    +0.051 A 
ATOM     29  C   UNL     1      -0.333   1.636   2.213  0.00  0.00    +0.141 A 
BRANCH  29  30
ATOM     30  O   UNL     1      -1.219   1.812   3.230  0.00  0.00    -0.493 OA
ATOM     31  C   UNL     1      -0.852   2.735   4.258  0.00  0.00    +0.277 C 
ENDBRANCH  29  30
BRANCH  26  32
ATOM     32  O   UNL     1       2.361   1.103  -0.875  0.00  0.00    -0.495 OA
ATOM     33  C   UNL     1       3.572   1.860  -0.813  0.00  0.00    +0.277 C 
ENDBRANCH  26  32
ENDBRANCH  22  24
ENDBRANCH  12  20
BRANCH  14  34
ATOM     34  C   UNL     1      -5.419  -1.952  -3.218  0.00  0.00    -0.013 C 
BRANCH  34  35
ATOM     35  C   UNL     1      -5.056  -3.094  -4.169  0.00  0.00    -0.019 C 
ATOM     36  C   UNL     1      -5.024  -4.413  -3.394  0.00  0.00    +0.007 C 
ATOM     37  C   UNL     1      -6.101  -3.182  -5.283  0.00  0.00    +0.007 C 
ENDBRANCH  34  35
ENDBRANCH  14  34
TORSDOF 6
