REMARK  Name = ZINC19720774
REMARK  7 active torsions:
REMARK  status: ('A' for Active; 'I' for Inactive)
REMARK    1  A    between atoms: C_9  and  N_13
REMARK    2  A    between atoms: N_13  and  C_14
REMARK    3  A    between atoms: C_14  and  C_15
REMARK    4  A    between atoms: C_15  and  C_16
REMARK    5  A    between atoms: N_24  and  C_25
REMARK    6  A    between atoms: C_25  and  C_26
REMARK    7  A    between atoms: C_26  and  O_27
REMARK                            x       y       z     vdW  Elec       q    Type
REMARK                         _______ _______ _______ _____ _____    ______ ____
ROOT
ATOM      1  C   UNL     1       0.767   1.841   5.136  0.00  0.00    +0.203 A 
ATOM      2  N   UNL     1      -0.469   2.213   4.884  0.00  0.00    -0.230 NA
ATOM      3  C   UNL     1      -0.894   2.108   3.628  0.00  0.00    +0.116 A 
ATOM      4  C   UNL     1      -0.099   1.625   2.566  0.00  0.00    +0.076 A 
ATOM      5  C   UNL     1      -0.732   1.580   1.260  0.00  0.00    -0.023 A 
ATOM      6  C   UNL     1      -2.018   2.005   1.189  0.00  0.00    -0.006 A 
ATOM      7  S   UNL     1      -2.441   2.479   2.847  0.00  0.00    -0.073 S 
ATOM      8  C   UNL     1      -2.890   2.062  -0.027  0.00  0.00    +0.027 C 
ATOM      9  C   UNL     1      -2.239   1.219  -1.132  0.00  0.00    -0.067 C 
ATOM     10  C   UNL     1      -0.757   1.595  -1.227  0.00  0.00    -0.011 C 
ATOM     11  C   UNL     1      -0.013   1.086   0.008  0.00  0.00    +0.035 C 
ATOM     12  C   UNL     1       1.244   1.230   2.885  0.00  0.00    +0.262 A 
ATOM     13  O   UNL     1       2.011   0.799   2.041  0.00  0.00    -0.267 OA
ATOM     14  N   UNL     1       1.604   1.366   4.183  0.00  0.00    -0.297 N 
ENDROOT
BRANCH   9  15
ATOM     15  N   UNL     1      -2.899   1.493  -2.416  0.00  0.00    +0.381 N 
ATOM     16  H   UNL     1      -3.208   2.548  -2.451  0.00  0.00    -0.086 HD
ATOM     17  H   UNL     1      -2.200   1.288  -3.239  0.00  0.00    -0.086 HD
BRANCH  15  18
ATOM     18  C   UNL     1      -4.089   0.648  -2.586  0.00  0.00    -0.078 C 
BRANCH  18  19
ATOM     19  C   UNL     1      -4.748   0.962  -3.931  0.00  0.00    +0.011 C 
BRANCH  19  20
ATOM     20  C   UNL     1      -5.968   0.095  -4.106  0.00  0.00    -0.075 C 
ATOM     21  C   UNL     1      -7.116   0.587  -3.765  0.00  0.00    -0.028 C 
ATOM     22  C   UNL     1      -8.415  -0.158  -3.872  0.00  0.00    +0.027 C 
ATOM     23  C   UNL     1      -8.258  -1.361  -4.805  0.00  0.00    +0.004 C 
ATOM     24  C   UNL     1      -7.010  -2.145  -4.379  0.00  0.00    +0.005 C 
ATOM     25  C   UNL     1      -5.778  -1.283  -4.670  0.00  0.00    +0.030 C 
ENDBRANCH  19  20
ENDBRANCH  18  19
ENDBRANCH  15  18
ENDBRANCH   9  15
BRANCH  14  26
ATOM     26  C   UNL     1       2.962   0.981   4.575  0.00  0.00    +0.154 C 
BRANCH  26  27
ATOM     27  C   UNL     1       3.892   2.188   4.444  0.00  0.00    +0.177 C 
BRANCH  27  28
ATOM     28  O   UNL     1       3.500   3.196   5.379  0.00  0.00    -0.393 OA
ATOM     29  H   UNL     1       4.056   4.144   5.432  0.00  0.00    +0.209 HD
ENDBRANCH  27  28
ENDBRANCH  26  27
ENDBRANCH  14  26
TORSDOF 7
