REMARK  Name = ZINC36274304
REMARK  7 active torsions:
REMARK  status: ('A' for Active; 'I' for Inactive)
REMARK    1  A    between atoms: C_1  and  C_2
REMARK    2  A    between atoms: C_5  and  C_30
REMARK    3  A    between atoms: N_8  and  C_10
REMARK    4  A    between atoms: C_10  and  C_11
REMARK    5  A    between atoms: C_12  and  C_21
REMARK    6  A    between atoms: C_17  and  N_20
REMARK    7  A    between atoms: C_24  and  N_27
REMARK                            x       y       z     vdW  Elec       q    Type
REMARK                         _______ _______ _______ _____ _____    ______ ____
ROOT
ATOM      1  C   UNL     1       2.948  -1.937   2.002  0.00  0.00    +0.035 A 
ATOM      2  C   UNL     1       3.983  -2.772   1.704  0.00  0.00    +0.091 A 
ATOM      3  N   UNL     1       5.131  -2.137   1.989  0.00  0.00    -0.228 NA
ATOM      4  C   UNL     1       4.853  -0.929   2.458  0.00  0.00    +0.138 A 
ATOM      5  N   UNL     1       3.492  -0.775   2.471  0.00  0.00    -0.303 N 
ATOM      6  C   UNL     1       2.930   0.394   2.907  0.00  0.00    +0.115 A 
ATOM      7  C   UNL     1       3.711   1.417   3.329  0.00  0.00    +0.041 A 
ATOM      8  C   UNL     1       5.114   1.286   3.322  0.00  0.00    +0.028 A 
ATOM      9  C   UNL     1       5.680   0.125   2.899  0.00  0.00    +0.048 A 
ENDROOT
BRANCH   2  10
ATOM     10  C   UNL     1       3.862  -4.147   1.158  0.00  0.00    +0.002 A 
ATOM     11  C   UNL     1       4.704  -4.567   0.130  0.00  0.00    +0.012 A 
ATOM     12  C   UNL     1       4.587  -5.847  -0.373  0.00  0.00    +0.033 A 
ATOM     13  C   UNL     1       3.637  -6.711   0.141  0.00  0.00    +0.126 A 
ATOM     14  C   UNL     1       2.800  -6.299   1.161  0.00  0.00    +0.033 A 
ATOM     15  C   UNL     1       2.911  -5.023   1.676  0.00  0.00    +0.012 A 
BRANCH  13  16
ATOM     16  N   UNL     1       3.516  -8.083  -0.404  0.00  0.00    +0.056 N 
ATOM     17  O   UNL     1       4.247  -8.446  -1.297  0.00  0.00    -0.126 OA
ATOM     18  O   UNL     1       2.687  -8.841   0.043  0.00  0.00    -0.126 OA
ENDBRANCH  13  16
ENDBRANCH   2  10
BRANCH   7  19
ATOM     19  N   UNL     1       3.122   2.609   3.772  0.00  0.00    -0.357 N 
ATOM     20  H   UNL     1       2.157   2.701   3.777  0.00  0.00    +0.142 HD
ATOM     21  H   UNL     1       3.680   3.343   4.074  0.00  0.00    +0.142 HD
ENDBRANCH   7  19
BRANCH   1  22
ATOM     22  C   UNL     1       1.480  -2.238   1.839  0.00  0.00    -0.022 C 
BRANCH  22  28
ATOM     23  C   UNL     1       1.038   1.206  -1.613  0.00  0.00    +0.005 C 
ATOM     24  C   UNL     1       0.887  -0.286  -1.312  0.00  0.00    -0.031 C 
ATOM     25  C   UNL     1      -0.558  -0.718  -1.581  0.00  0.00    +0.003 C 
ATOM     26  C   UNL     1      -0.718  -2.194  -1.203  0.00  0.00    -0.031 C 
ATOM     27  C   UNL     1      -0.319  -2.385   0.262  0.00  0.00    -0.075 C 
ATOM     28  N   UNL     1       1.079  -1.979   0.450  0.00  0.00    +0.384 N 
ATOM     29  C   UNL     1       1.227  -0.548   0.157  0.00  0.00    -0.075 C 
ATOM     30  C   UNL     1       0.183  -3.051  -2.094  0.00  0.00    +0.005 C 
ATOM     31  H   UNL     1       1.669  -2.511  -0.173  0.00  0.00    -0.081 HD
ENDBRANCH  22  28
ENDBRANCH   1  22
TORSDOF 5
