REMARK  Name = ZINC35545709
REMARK  9 active torsions:
REMARK  status: ('A' for Active; 'I' for Inactive)
REMARK    1  A    between atoms: C_1  and  C_2
REMARK    2  A    between atoms: C_2  and  O_3
REMARK    3  A    between atoms: O_3  and  C_4
REMARK    4  A    between atoms: C_4  and  C_6
REMARK    5  A    between atoms: C_13  and  C_15
REMARK    6  A    between atoms: C_21  and  O_40
REMARK    7  A    between atoms: N_28  and  C_31
REMARK    8  A    between atoms: C_31  and  C_32
REMARK    9  A    between atoms: O_40  and  C_41
REMARK                            x       y       z     vdW  Elec       q    Type
REMARK                         _______ _______ _______ _____ _____    ______ ____
ROOT
ATOM      1  C   UNL     1       2.491  -5.760  -5.668  0.00  0.00    +0.098 C 
ATOM      2  C   UNL     1       3.754  -6.449  -5.195  0.00  0.00    +0.051 C 
ATOM      3  C   UNL     1       3.486  -7.841  -4.703  0.00  0.00    -0.025 A 
ATOM      4  C   UNL     1       4.293  -8.389  -3.721  0.00  0.00    +0.009 A 
ATOM      5  C   UNL     1       4.058  -9.670  -3.262  0.00  0.00    +0.046 A 
ATOM      6  C   UNL     1       3.010 -10.415  -3.786  0.00  0.00    +0.122 A 
ATOM      7  C   UNL     1       2.200  -9.871  -4.768  0.00  0.00    +0.069 A 
ATOM      8  C   UNL     1       2.436  -8.580  -5.228  0.00  0.00    +0.037 A 
ATOM      9  N   UNL     1       1.615  -8.033  -6.205  0.00  0.00    -0.329 N 
ATOM     10  C   UNL     1       1.597  -6.615  -6.523  0.00  0.00    +0.069 C 
ATOM     11  C   UNL     1       1.881  -6.439  -8.015  0.00  0.00    -0.055 C 
ATOM     12  N   UNL     1       0.915  -7.238  -8.783  0.00  0.00    +0.388 N 
ATOM     13  C   UNL     1       1.072  -8.665  -8.478  0.00  0.00    -0.059 C 
ATOM     14  C   UNL     1       0.741  -8.914  -7.006  0.00  0.00    +0.087 C 
ATOM     15  H   UNL     1      -0.022  -6.948  -8.544  0.00  0.00    -0.081 HD
ENDROOT
BRANCH   1  22
ATOM     16  C   UNL     1       0.785  -2.212  -3.047  0.00  0.00    +0.115 C 
ATOM     17  C   UNL     1       2.031  -1.374  -3.340  0.00  0.00    +0.018 C 
ATOM     18  C   UNL     1       2.756  -1.943  -4.562  0.00  0.00    +0.020 C 
ATOM     19  C   UNL     1       3.199  -3.379  -4.264  0.00  0.00    +0.108 C 
ATOM     20  N   UNL     1       2.027  -4.157  -3.841  0.00  0.00    -0.300 N 
ATOM     21  C   UNL     1       1.205  -3.652  -2.733  0.00  0.00    +0.122 C 
ATOM     22  C   UNL     1       1.711  -5.313  -4.459  0.00  0.00    +0.221 C 
ATOM     23  O   UNL     1       0.798  -5.994  -4.041  0.00  0.00    -0.275 OA
BRANCH  16  24
ATOM     24  C   UNL     1       0.055  -1.632  -1.864  0.00  0.00    +0.312 C 
ATOM     25  O   UNL     1      -0.115  -2.300  -0.872  0.00  0.00    -0.250 OA
BRANCH  24  26
ATOM     26  O   UNL     1      -0.408  -0.373  -1.913  0.00  0.00    -0.465 OA
BRANCH  26  28
ATOM     27  C   UNL     1      -1.541   1.555  -0.996  0.00  0.00    +0.048 C 
ATOM     28  C   UNL     1      -1.091   0.112  -0.755  0.00  0.00    +0.229 C 
ENDBRANCH  26  28
ENDBRANCH  24  26
ENDBRANCH  16  24
ENDBRANCH   1  22
BRANCH   6  29
ATOM     29  O   UNL     1       2.780 -11.677  -3.336  0.00  0.00    -0.495 OA
ATOM     30  C   UNL     1       3.656 -12.174  -2.322  0.00  0.00    +0.277 C 
ENDBRANCH   6  29
BRANCH  12  31
ATOM     31  C   UNL     1       1.138  -7.021 -10.218  0.00  0.00    +0.019 C 
BRANCH  31  32
ATOM     32  C   UNL     1       0.074  -7.741 -11.006  0.00  0.00    +0.199 C 
ATOM     33  O   UNL     1      -0.786  -8.372 -10.429  0.00  0.00    -0.278 OA
ATOM     34  N   UNL     1       0.077  -7.683 -12.353  0.00  0.00    -0.299 N 
ATOM     35  C   UNL     1       1.113  -6.928 -13.076  0.00  0.00    +0.136 C 
ATOM     36  C   UNL     1       1.710  -7.838 -14.156  0.00  0.00    +0.179 C 
ATOM     37  O   UNL     1       0.652  -8.383 -14.948  0.00  0.00    -0.377 OA
ATOM     38  C   UNL     1      -0.257  -9.212 -14.220  0.00  0.00    +0.179 C 
ATOM     39  C   UNL     1      -0.951  -8.377 -13.144  0.00  0.00    +0.136 C 
ENDBRANCH  31  32
ENDBRANCH  12  31
TORSDOF 7
