REMARK  Name = ZINC06670368
REMARK  11 active torsions:
REMARK  status: ('A' for Active; 'I' for Inactive)
REMARK    1  A    between atoms: C_1  and  C_2
REMARK    2  A    between atoms: C_2  and  C_29
REMARK    3  A    between atoms: C_7  and  N_13
REMARK    4  A    between atoms: C_8  and  C_9
REMARK    5  A    between atoms: C_9  and  O_11
REMARK    6  A    between atoms: O_11  and  C_12
REMARK    7  A    between atoms: N_16  and  C_17
REMARK    8  A    between atoms: N_16  and  C_20
REMARK    9  A    between atoms: C_17  and  C_18
REMARK   10  A    between atoms: C_18  and  O_19
REMARK   11  A    between atoms: C_20  and  C_21
REMARK                            x       y       z     vdW  Elec       q    Type
REMARK                         _______ _______ _______ _____ _____    ______ ____
ROOT
ATOM      1  N   UNL     1      -3.127  -5.367  -0.055  0.00  0.00    -0.263 N 
ATOM      2  C   UNL     1      -2.744  -6.612  -0.401  0.00  0.00    +0.307 C 
ATOM      3  O   UNL     1      -1.639  -6.799  -0.872  0.00  0.00    -0.252 OA
ATOM      4  N   UNL     1      -3.587  -7.649  -0.225  0.00  0.00    -0.279 N 
ATOM      5  H   UNL     1      -4.008  -5.217   0.321  0.00  0.00    +0.157 HD
ENDROOT
BRANCH   1  12
ATOM      6  C   UNL     1      -0.019   1.526   0.010  0.00  0.00    +0.041 C 
ATOM      7  C   UNL     1       0.002  -0.004   0.002  0.00  0.00    +0.068 C 
ATOM      8  C   UNL     1      -1.436  -0.532   0.020  0.00  0.00    +0.071 C 
ATOM      9  C   UNL     1      -1.390  -2.034  -0.233  0.00  0.00    -0.016 A 
ATOM     10  C   UNL     1      -0.279  -2.593  -0.764  0.00  0.00    +0.021 A 
ATOM     11  S   UNL     1      -0.652  -4.317  -0.882  0.00  0.00    -0.075 S 
ATOM     12  C   UNL     1      -2.261  -4.300  -0.236  0.00  0.00    +0.088 A 
ATOM     13  C   UNL     1      -2.471  -2.957   0.056  0.00  0.00    +0.091 A 
ATOM     14  C   UNL     1       0.972  -1.869  -1.154  0.00  0.00    +0.203 C 
ATOM     15  O   UNL     1       0.677  -0.463  -1.172  0.00  0.00    -0.368 OA
ATOM     16  C   UNL     1       0.743  -0.508   1.242  0.00  0.00    +0.041 C 
BRANCH  13  17
ATOM     17  C   UNL     1      -3.734  -2.493   0.632  0.00  0.00    +0.342 C 
ATOM     18  O   UNL     1      -4.646  -2.150  -0.096  0.00  0.00    -0.245 OA
BRANCH  17  19
ATOM     19  O   UNL     1      -3.887  -2.446   1.972  0.00  0.00    -0.464 OA
ATOM     20  C   UNL     1      -5.166  -1.975   2.473  0.00  0.00    +0.280 C 
ENDBRANCH  17  19
ENDBRANCH  13  17
ENDBRANCH   1  12
BRANCH   4  21
ATOM     21  C   UNL     1      -4.918  -7.423   0.343  0.00  0.00    +0.137 C 
BRANCH  21  22
ATOM     22  C   UNL     1      -5.912  -7.139  -0.785  0.00  0.00    +0.175 C 
BRANCH  22  23
ATOM     23  O   UNL     1      -6.044  -8.300  -1.607  0.00  0.00    -0.393 OA
ATOM     24  H   UNL     1      -6.660  -8.192  -2.345  0.00  0.00    +0.209 HD
ENDBRANCH  22  23
ENDBRANCH  21  22
ENDBRANCH   4  21
BRANCH   4  25
ATOM     25  C   UNL     1      -3.171  -9.002  -0.601  0.00  0.00    +0.144 C 
BRANCH  25  26
ATOM     26  C   UNL     1      -2.506  -9.669   0.576  0.00  0.00    -0.030 A 
ATOM     27  C   UNL     1      -1.140  -9.554   0.754  0.00  0.00    +0.005 A 
ATOM     28  C   UNL     1      -0.530 -10.161   1.836  0.00  0.00    +0.000 A 
ATOM     29  C   UNL     1      -1.286 -10.892   2.734  0.00  0.00    +0.000 A 
ATOM     30  C   UNL     1      -2.651 -11.011   2.553  0.00  0.00    +0.000 A 
ATOM     31  C   UNL     1      -3.261 -10.400   1.474  0.00  0.00    +0.005 A 
ENDBRANCH  25  26
ENDBRANCH   4  25
TORSDOF 8
