REMARK  Name = ZINC01984250
REMARK  13 active torsions:
REMARK  status: ('A' for Active; 'I' for Inactive)
REMARK    1  A    between atoms: C_1  and  C_2
REMARK    2  A    between atoms: C_9  and  N_14
REMARK    3  A    between atoms: C_10  and  C_11
REMARK    4  A    between atoms: C_15  and  C_17
REMARK    5  A    between atoms: C_18  and  C_19
REMARK    6  A    between atoms: C_22  and  O_27
REMARK    7  A    between atoms: C_23  and  O_25
REMARK    8  A    between atoms: O_25  and  C_26
REMARK    9  A    between atoms: O_27  and  C_28
REMARK   10  A    between atoms: C_28  and  C_29
REMARK   11  A    between atoms: C_29  and  C_30
REMARK   12  A    between atoms: C_30  and  C_31
REMARK   13  A    between atoms: C_30  and  C_32
REMARK                            x       y       z     vdW  Elec       q    Type
REMARK                         _______ _______ _______ _____ _____    ______ ____
ROOT
ATOM      1  N   UNL     1       0.696  -5.846   2.434  0.00  0.00    -0.276 N 
ATOM      2  C   UNL     1       1.677  -6.093   3.324  0.00  0.00    +0.241 C 
ATOM      3  O   UNL     1       2.385  -5.185   3.718  0.00  0.00    -0.270 OA
ATOM      4  H   UNL     1       0.132  -6.569   2.120  0.00  0.00    +0.156 HD
ENDROOT
BRANCH   1  12
ATOM      5  C   UNL     1      -0.019   1.526   0.010  0.00  0.00    +0.008 C 
ATOM      6  C   UNL     1       0.002  -0.004   0.002  0.00  0.00    -0.009 C 
ATOM      7  C   UNL     1      -1.434  -0.537   0.019  0.00  0.00    +0.008 C 
ATOM      8  C   UNL     1      -1.433  -2.045  -0.237  0.00  0.00    +0.037 C 
ATOM      9  C   UNL     1      -0.464  -2.704   0.734  0.00  0.00    -0.023 A 
ATOM     10  C   UNL     1       0.485  -1.986   1.374  0.00  0.00    -0.004 A 
ATOM     11  S   UNL     1       1.343  -3.167   2.373  0.00  0.00    -0.077 S 
ATOM     12  C   UNL     1       0.493  -4.557   1.968  0.00  0.00    +0.085 A 
ATOM     13  C   UNL     1      -0.459  -4.119   1.061  0.00  0.00    +0.068 A 
ATOM     14  C   UNL     1       0.739  -0.515   1.248  0.00  0.00    +0.046 C 
BRANCH  13  15
ATOM     15  C   UNL     1      -1.421  -5.045   0.456  0.00  0.00    +0.244 C 
ATOM     16  O   UNL     1      -1.149  -5.611  -0.587  0.00  0.00    -0.270 OA
ATOM     17  N   UNL     1      -2.607  -5.271   1.055  0.00  0.00    -0.325 N 
ATOM     18  H   UNL     1      -2.824  -4.821   1.886  0.00  0.00    +0.145 HD
ATOM     19  H   UNL     1      -3.244  -5.884   0.655  0.00  0.00    +0.145 HD
ENDBRANCH  13  15
ENDBRANCH   1  12
BRANCH   2  20
ATOM     20  C   UNL     1       1.892  -7.453   3.816  0.00  0.00    +0.068 C 
ATOM     21  C   UNL     1       2.875  -7.702   4.707  0.00  0.00    +0.013 C 
BRANCH  21  22
ATOM     22  C   UNL     1       3.091  -9.069   5.202  0.00  0.00    -0.021 A 
ATOM     23  C   UNL     1       2.281 -10.116   4.746  0.00  0.00    +0.012 A 
ATOM     24  C   UNL     1       2.486 -11.396   5.210  0.00  0.00    +0.050 A 
ATOM     25  C   UNL     1       3.493 -11.652   6.131  0.00  0.00    +0.162 A 
ATOM     26  C   UNL     1       4.303 -10.614   6.591  0.00  0.00    +0.162 A 
ATOM     27  C   UNL     1       4.109  -9.329   6.126  0.00  0.00    +0.057 A 
BRANCH  26  28
ATOM     28  O   UNL     1       5.288 -10.870   7.493  0.00  0.00    -0.491 OA
ATOM     29  C   UNL     1       6.080  -9.759   7.921  0.00  0.00    +0.277 C 
ENDBRANCH  26  28
BRANCH  25  30
ATOM     30  O   UNL     1       3.689 -12.917   6.586  0.00  0.00    -0.488 OA
BRANCH  30  31
ATOM     31  C   UNL     1       2.824 -13.932   6.075  0.00  0.00    +0.229 C 
BRANCH  31  32
ATOM     32  C   UNL     1       3.194 -15.280   6.697  0.00  0.00    +0.044 C 
BRANCH  32  33
ATOM     33  C   UNL     1       2.267 -16.367   6.149  0.00  0.00    -0.014 C 
ATOM     34  C   UNL     1       2.510 -16.534   4.648  0.00  0.00    +0.007 C 
ATOM     35  C   UNL     1       2.555 -17.689   6.863  0.00  0.00    +0.007 C 
ENDBRANCH  32  33
ENDBRANCH  31  32
ENDBRANCH  30  31
ENDBRANCH  25  30
ENDBRANCH  21  22
ENDBRANCH   2  20
TORSDOF 9
