REMARK  Name = ZINC04302214
REMARK  6 active torsions:
REMARK  status: ('A' for Active; 'I' for Inactive)
REMARK    1  A    between atoms: C_1  and  C_2
REMARK    2  A    between atoms: C_10  and  C_11
REMARK    3  A    between atoms: C_21  and  C_27
REMARK    4  A    between atoms: C_22  and  C_23
REMARK    5  A    between atoms: C_23  and  O_25
REMARK    6  A    between atoms: O_25  and  C_26
REMARK                            x       y       z     vdW  Elec       q    Type
REMARK                         _______ _______ _______ _____ _____    ______ ____
ROOT
ATOM      1  C   UNL     1      -1.882  -3.378   0.003  0.00  0.00    +0.099 C 
ATOM      2  C   UNL     1      -1.665  -4.228   1.230  0.00  0.00    +0.024 C 
ATOM      3  C   UNL     1      -1.034  -5.418   1.141  0.00  0.00    +0.015 C 
ATOM      4  C   UNL     1      -0.816  -6.275   2.363  0.00  0.00    +0.051 C 
ATOM      5  C   UNL     1      -0.671  -5.383   3.598  0.00  0.00    +0.014 C 
ATOM      6  C   UNL     1      -1.937  -4.530   3.732  0.00  0.00    +0.080 C 
ATOM      7  C   UNL     1      -2.136  -3.746   2.464  0.00  0.00    +0.162 C 
ATOM      8  O   UNL     1      -2.712  -2.678   2.507  0.00  0.00    -0.292 OA
ATOM      9  N   UNL     1      -0.580  -5.875  -0.067  0.00  0.00    -0.321 N 
ATOM     10  C   UNL     1      -1.083  -5.373  -1.235  0.00  0.00    +0.016 C 
ATOM     11  C   UNL     1      -1.716  -4.187  -1.250  0.00  0.00    +0.066 C 
ATOM     12  C   UNL     1      -0.927  -6.154  -2.514  0.00  0.00    +0.061 C 
ATOM     13  H   UNL     1       0.196  -6.653  -0.104  0.00  0.00    +0.152 HD
ENDROOT
BRANCH   1  23
ATOM     14  C   UNL     1      -2.535  -0.412   0.025  0.00  0.00    +0.045 C 
ATOM     15  C   UNL     1      -1.121  -0.931   0.008  0.00  0.00    -0.032 A 
ATOM     16  C   UNL     1       0.002  -0.004   0.002  0.00  0.00    -0.008 A 
ATOM     17  C   UNL     1      -0.017   1.411   0.010  0.00  0.00    +0.009 A 
ATOM     18  C   UNL     1       1.142   2.122   0.003  0.00  0.00    +0.001 A 
ATOM     19  C   UNL     1       2.379   1.492  -0.014  0.00  0.00    +0.001 A 
ATOM     20  C   UNL     1       2.441   0.113  -0.021  0.00  0.00    +0.015 A 
ATOM     21  C   UNL     1       1.273  -0.619  -0.013  0.00  0.00    +0.020 A 
ATOM     22  S   UNL     1       0.897  -2.353  -0.019  0.00  0.00    -0.092 S 
ATOM     23  C   UNL     1      -0.883  -2.250  -0.001  0.00  0.00    +0.006 A 
ENDBRANCH   1  23
BRANCH  11  24
ATOM     24  C   UNL     1      -2.236  -3.693  -2.469  0.00  0.00    +0.337 C 
ATOM     25  O   UNL     1      -2.108  -4.340  -3.491  0.00  0.00    -0.245 OA
BRANCH  24  26
ATOM     26  O   UNL     1      -2.874  -2.505  -2.498  0.00  0.00    -0.465 OA
ATOM     27  C   UNL     1      -3.373  -2.067  -3.764  0.00  0.00    +0.280 C 
ENDBRANCH  24  26
ENDBRANCH  11  24
TORSDOF 3
