REMARK  Name = ZINC52003551
REMARK  5 active torsions:
REMARK  status: ('A' for Active; 'I' for Inactive)
REMARK    1  A    between atoms: C_4  and  S_10
REMARK    2  A    between atoms: C_6  and  N_7
REMARK    3  A    between atoms: S_10  and  N_13
REMARK    4  A    between atoms: N_13  and  C_14
REMARK    5  A    between atoms: C_20  and  O_22
REMARK                            x       y       z     vdW  Elec       q    Type
REMARK                         _______ _______ _______ _____ _____    ______ ____
ROOT
ATOM      1  S   UNL     1       4.061  -0.869   0.003  0.00  0.00    +0.060 S 
ATOM      2  O   UNL     1       3.775  -2.254  -0.136  0.00  0.00    -0.153 OA
ATOM      3  O   UNL     1       3.081   0.074   0.415  0.00  0.00    -0.153 OA
ENDROOT
BRANCH   1   7
ATOM      4  C   UNL     1       7.487  -0.543   2.945  0.00  0.00    +0.034 A 
ATOM      5  C   UNL     1       7.568  -1.429   1.887  0.00  0.00    +0.024 A 
ATOM      6  C   UNL     1       6.521  -1.529   0.988  0.00  0.00    +0.067 A 
ATOM      7  C   UNL     1       5.394  -0.743   1.148  0.00  0.00    +0.126 A 
ATOM      8  C   UNL     1       5.314   0.142   2.207  0.00  0.00    +0.062 A 
ATOM      9  C   UNL     1       6.360   0.242   3.105  0.00  0.00    +0.128 A 
ATOM     10 CL   UNL     1       6.623  -2.640  -0.342  0.00  0.00    -0.082 Cl
BRANCH   9  11
ATOM     11  N   UNL     1       6.274   1.189   4.239  0.00  0.00    +0.056 N 
ATOM     12  O   UNL     1       7.188   1.276   5.025  0.00  0.00    -0.126 OA
ATOM     13  O   UNL     1       5.289   1.876   4.380  0.00  0.00    -0.126 OA
ENDBRANCH   9  11
ENDBRANCH   1   7
BRANCH   1  14
ATOM     14  N   UNL     1       4.627  -0.353  -1.466  0.00  0.00    -0.184 NA
ATOM     15  H   UNL     1       4.670  -0.971  -2.212  0.00  0.00    +0.148 HD
BRANCH  14  16
ATOM     16  C   UNL     1       5.061   1.035  -1.637  0.00  0.00    +0.105 C 
ATOM     17  C   UNL     1       3.910   1.862  -2.214  0.00  0.00    +0.023 C 
ATOM     18  C   UNL     1       4.364   3.312  -2.393  0.00  0.00    +0.002 C 
ATOM     19  C   UNL     1       5.557   3.359  -3.350  0.00  0.00    +0.003 C 
ATOM     20  C   UNL     1       6.707   2.532  -2.773  0.00  0.00    +0.033 C 
ATOM     21  C   UNL     1       6.253   1.082  -2.595  0.00  0.00    +0.133 C 
BRANCH  21  22
ATOM     22  O   UNL     1       7.328   0.310  -2.055  0.00  0.00    -0.390 OA
ATOM     23  H   UNL     1       8.119   0.295  -2.611  0.00  0.00    +0.210 HD
ENDBRANCH  21  22
ENDBRANCH  14  16
ENDBRANCH   1  14
TORSDOF 5
