REMARK  Name = ZINC16507867
REMARK  14 active torsions:
REMARK  status: ('A' for Active; 'I' for Inactive)
REMARK    1  A    between atoms: C_1  and  C_2
REMARK    2  A    between atoms: C_2  and  C_3
REMARK    3  A    between atoms: C_3  and  C_4
REMARK    4  A    between atoms: C_4  and  C_5
REMARK    5  A    between atoms: C_5  and  C_6
REMARK    6  A    between atoms: C_9  and  C_12
REMARK    7  A    between atoms: N_14  and  C_15
REMARK    8  A    between atoms: N_14  and  C_18
REMARK    9  A    between atoms: C_15  and  C_16
REMARK   10  A    between atoms: C_16  and  C_17
REMARK   11  A    between atoms: C_18  and  C_19
REMARK   12  A    between atoms: C_29  and  C_31
REMARK   13  A    between atoms: C_34  and  O_37
REMARK   14  A    between atoms: O_37  and  C_38
REMARK                            x       y       z     vdW  Elec       q    Type
REMARK                         _______ _______ _______ _____ _____    ______ ____
ROOT
ATOM      1  C   UNL     1       1.388   2.146  -0.174  0.00  0.00    +0.234 C 
ATOM      2  O   UNL     1       2.179   3.057  -0.052  0.00  0.00    -0.274 OA
ATOM      3  N   UNL     1       1.831   0.900  -0.435  0.00  0.00    -0.289 N 
ATOM      4  C   UNL     1       0.881  -0.214  -0.580  0.00  0.00    +0.114 C 
ATOM      5  C   UNL     1       0.962  -0.724  -2.032  0.00  0.00    +0.062 C 
ATOM      6  C   UNL     1       2.399  -0.800  -2.433  0.00  0.00    -0.003 A 
ATOM      7  C   UNL     1       3.468  -0.216  -1.827  0.00  0.00    -0.012 A 
ATOM      8  C   UNL     1       4.715  -0.438  -2.409  0.00  0.00    +0.013 A 
ATOM      9  C   UNL     1       4.818  -1.205  -3.518  0.00  0.00    +0.046 A 
ATOM     10  S   UNL     1       3.115  -1.663  -3.807  0.00  0.00    -0.101 S 
ATOM     11  C   UNL     1       3.269   0.633  -0.573  0.00  0.00    +0.137 C 
ENDROOT
BRANCH  11  12
ATOM     12  C   UNL     1       3.767  -0.116   0.635  0.00  0.00    -0.022 A 
ATOM     13  C   UNL     1       3.299  -1.390   0.899  0.00  0.00    +0.009 A 
ATOM     14  C   UNL     1       3.759  -2.082   2.003  0.00  0.00    +0.046 A 
ATOM     15  C   UNL     1       4.683  -1.492   2.854  0.00  0.00    +0.120 A 
ATOM     16  C   UNL     1       5.146  -0.212   2.590  0.00  0.00    +0.046 A 
ATOM     17  C   UNL     1       4.688   0.473   1.482  0.00  0.00    +0.009 A 
BRANCH  15  18
ATOM     18  O   UNL     1       5.133  -2.168   3.943  0.00  0.00    -0.495 OA
ATOM     19  C   UNL     1       4.612  -3.483   4.152  0.00  0.00    +0.277 C 
ENDBRANCH  15  18
ENDBRANCH  11  12
BRANCH   1  20
ATOM     20  C   UNL     1      -0.090   2.408  -0.041  0.00  0.00    +0.204 C 
BRANCH  20  23
ATOM     21  C   UNL     1      -0.476   4.699  -0.775  0.00  0.00    +0.247 C 
ATOM     22  O   UNL     1      -0.490   4.298  -1.923  0.00  0.00    -0.270 OA
ATOM     23  N   UNL     1      -0.310   3.829   0.241  0.00  0.00    -0.289 N 
BRANCH  21  27
ATOM     24  C   UNL     1      -0.951   8.842   0.035  0.00  0.00    -0.047 A 
ATOM     25  C   UNL     1      -1.695   8.246  -0.968  0.00  0.00    +0.004 A 
ATOM     26  C   UNL     1      -1.546   6.901  -1.237  0.00  0.00    +0.013 A 
ATOM     27  C   UNL     1      -0.641   6.141  -0.493  0.00  0.00    +0.037 A 
ATOM     28  C   UNL     1       0.102   6.747   0.521  0.00  0.00    +0.013 A 
ATOM     29  C   UNL     1      -0.053   8.094   0.775  0.00  0.00    +0.004 A 
BRANCH  24  30
ATOM     30  C   UNL     1      -1.120  10.311   0.322  0.00  0.00    +0.035 C 
BRANCH  30  31
ATOM     31  C   UNL     1      -2.216  10.503   1.372  0.00  0.00    +0.005 C 
BRANCH  31  32
ATOM     32  C   UNL     1      -2.388  11.995   1.664  0.00  0.00    +0.000 C 
BRANCH  32  34
ATOM     33  C   UNL     1      -3.655  13.679   3.005  0.00  0.00    +0.004 C 
ATOM     34  C   UNL     1      -3.484  12.187   2.713  0.00  0.00    -0.003 C 
ENDBRANCH  32  34
ENDBRANCH  31  32
ENDBRANCH  30  31
ENDBRANCH  24  30
ENDBRANCH  21  27
BRANCH  23  35
ATOM     35  C   UNL     1      -0.350   4.303   1.626  0.00  0.00    +0.108 C 
BRANCH  35  36
ATOM     36  C   UNL     1       1.069   4.324   2.199  0.00  0.00    +0.016 C 
ATOM     37  C   UNL     1       1.049   4.966   3.588  0.00  0.00    +0.005 C 
ENDBRANCH  35  36
ENDBRANCH  23  35
ENDBRANCH  20  23
ENDBRANCH   1  20
TORSDOF 11
