REMARK  Name = ZINC09311194
REMARK  6 active torsions:
REMARK  status: ('A' for Active; 'I' for Inactive)
REMARK    1  A    between atoms: C_1  and  C_2
REMARK    2  A    between atoms: C_5  and  N_30
REMARK    3  A    between atoms: C_14  and  C_16
REMARK    4  A    between atoms: C_16  and  C_18
REMARK    5  A    between atoms: C_16  and  N_19
REMARK    6  A    between atoms: N_30  and  C_31
REMARK                            x       y       z     vdW  Elec       q    Type
REMARK                         _______ _______ _______ _____ _____    ______ ____
ROOT
ATOM      1  C   UNL     1       0.862  -0.058   4.807  0.00  0.00    +0.028 C 
ATOM      2  C   UNL     1       1.886   0.642   3.911  0.00  0.00    +0.081 C 
ATOM      3  C   UNL     1       2.883   1.425   4.775  0.00  0.00    +0.049 C 
ATOM      4  C   UNL     1       3.936   2.057   3.864  0.00  0.00    +0.104 C 
ATOM      5  C   UNL     1       3.276   2.827   2.751  0.00  0.00    -0.006 A 
ATOM      6  C   UNL     1       4.003   3.804   2.089  0.00  0.00    +0.007 A 
ATOM      7  C   UNL     1       3.426   4.525   1.062  0.00  0.00    +0.000 A 
ATOM      8  C   UNL     1       2.119   4.277   0.687  0.00  0.00    +0.002 A 
ATOM      9  C   UNL     1       1.387   3.307   1.342  0.00  0.00    +0.024 A 
ATOM     10  C   UNL     1       1.965   2.576   2.373  0.00  0.00    +0.042 A 
ATOM     11  N   UNL     1       1.204   1.601   3.032  0.00  0.00    -0.267 N 
ATOM     12  C   UNL     1      -0.131   1.542   2.858  0.00  0.00    +0.241 C 
ATOM     13  O   UNL     1      -0.753   0.580   3.257  0.00  0.00    -0.273 OA
ENDROOT
BRANCH  12  14
ATOM     14  C   UNL     1      -0.852   2.670   2.166  0.00  0.00    +0.168 C 
ATOM     15  C   UNL     1      -1.089   2.302   0.700  0.00  0.00    +0.038 C 
BRANCH  14  16
ATOM     16  N   UNL     1      -2.140   2.904   2.825  0.00  0.00    -0.222 N 
ATOM     17  C   UNL     1      -3.119   1.988   2.928  0.00  0.00    +0.254 C 
ATOM     18  O   UNL     1      -3.078   0.854   2.497  0.00  0.00    -0.270 OA
ATOM     19  C   UNL     1      -4.255   2.592   3.657  0.00  0.00    +0.049 A 
ATOM     20  C   UNL     1      -5.503   2.139   4.052  0.00  0.00    +0.014 A 
ATOM     21  C   UNL     1      -6.357   2.988   4.737  0.00  0.00    +0.001 A 
ATOM     22  C   UNL     1      -5.973   4.283   5.030  0.00  0.00    +0.001 A 
ATOM     23  C   UNL     1      -4.727   4.750   4.642  0.00  0.00    +0.014 A 
ATOM     24  C   UNL     1      -3.862   3.913   3.956  0.00  0.00    +0.049 A 
ATOM     25  C   UNL     1      -2.500   4.065   3.402  0.00  0.00    +0.254 C 
ATOM     26  O   UNL     1      -1.819   5.069   3.459  0.00  0.00    -0.270 OA
ENDBRANCH  14  16
ENDBRANCH  12  14
BRANCH   4  27
ATOM     27  N   UNL     1       4.773   2.966   4.651  0.00  0.00    -0.337 N 
ATOM     28  H   UNL     1       4.425   3.365   5.463  0.00  0.00    +0.147 HD
BRANCH  27  29
ATOM     29  C   UNL     1       6.073   3.256   4.231  0.00  0.00    +0.028 A 
ATOM     30  C   UNL     1       6.576   2.680   3.072  0.00  0.00    +0.023 A 
ATOM     31  C   UNL     1       7.860   2.974   2.657  0.00  0.00    +0.002 A 
ATOM     32  C   UNL     1       8.649   3.832   3.401  0.00  0.00    +0.000 A 
ATOM     33  C   UNL     1       8.154   4.403   4.559  0.00  0.00    +0.002 A 
ATOM     34  C   UNL     1       6.869   4.118   4.976  0.00  0.00    +0.023 A 
ENDBRANCH  27  29
ENDBRANCH   4  27
TORSDOF 4
