REMARK  Name = ZINC21259895
REMARK  7 active torsions:
REMARK  status: ('A' for Active; 'I' for Inactive)
REMARK    1  A    between atoms: C_1  and  C_2
REMARK    2  A    between atoms: C_2  and  C_3
REMARK    3  A    between atoms: C_6  and  C_9
REMARK    4  A    between atoms: C_14  and  C_24
REMARK    5  A    between atoms: C_27  and  O_30
REMARK    6  A    between atoms: O_30  and  C_31
REMARK    7  A    between atoms: C_31  and  C_32
REMARK                            x       y       z     vdW  Elec       q    Type
REMARK                         _______ _______ _______ _____ _____    ______ ____
ROOT
ATOM      1  C   UNL     1      -4.929   5.620  -1.453  0.00  0.00    +0.032 C 
ATOM      2  C   UNL     1      -4.235   4.326  -1.031  0.00  0.00    +0.059 C 
ATOM      3  C   UNL     1      -2.770   4.599  -0.730  0.00  0.00    +0.017 C 
ATOM      4  C   UNL     1      -2.102   5.545  -1.409  0.00  0.00    +0.036 C 
ATOM      5  C   UNL     1      -0.643   5.899  -1.233  0.00  0.00    +0.136 C 
ATOM      6  N   UNL     1      -0.024   5.315  -0.062  0.00  0.00    -0.331 N 
ATOM      7  C   UNL     1       0.121   3.935   0.062  0.00  0.00    +0.049 A 
ATOM      8  C   UNL     1       1.370   3.335   0.046  0.00  0.00    +0.025 A 
ATOM      9  C   UNL     1       1.464   1.956   0.111  0.00  0.00    +0.002 A 
ATOM     10  C   UNL     1       0.322   1.178   0.175  0.00  0.00    +0.002 A 
ATOM     11  C   UNL     1      -0.928   1.774   0.189  0.00  0.00    +0.025 A 
ATOM     12  C   UNL     1      -1.022   3.154   0.157  0.00  0.00    +0.052 A 
ATOM     13  N   UNL     1      -2.240   3.819   0.247  0.00  0.00    -0.316 N 
ATOM     14  C   UNL     1      -2.763   6.319  -2.392  0.00  0.00    +0.163 C 
ATOM     15  O   UNL     1      -2.128   7.158  -3.001  0.00  0.00    -0.292 OA
ATOM     16  C   UNL     1      -4.218   6.144  -2.707  0.00  0.00    +0.088 C 
ATOM     17  H   UNL     1       0.342   5.963   0.747  0.00  0.00    +0.147 HD
ATOM     18  H   UNL     1      -2.784   3.679   1.193  0.00  0.00    +0.152 HD
ENDROOT
BRANCH   1  22
ATOM     19  C   UNL     1      -9.034   4.840  -2.339  0.00  0.00    -0.048 A 
ATOM     20  C   UNL     1      -8.701   5.759  -1.363  0.00  0.00    +0.004 A 
ATOM     21  C   UNL     1      -7.372   6.012  -1.076  0.00  0.00    +0.004 A 
ATOM     22  C   UNL     1      -6.377   5.345  -1.766  0.00  0.00    -0.043 A 
ATOM     23  C   UNL     1      -6.711   4.428  -2.746  0.00  0.00    +0.004 A 
ATOM     24  C   UNL     1      -8.039   4.172  -3.029  0.00  0.00    +0.004 A 
BRANCH  19  26
ATOM     25  C   UNL     1     -10.958   5.518  -3.749  0.00  0.00    +0.009 C 
ATOM     26  C   UNL     1     -10.483   4.564  -2.651  0.00  0.00    +0.032 C 
ENDBRANCH  19  26
ENDBRANCH   1  22
BRANCH   5  27
ATOM     27  C   UNL     1       0.109   5.435  -2.454  0.00  0.00    -0.023 A 
ATOM     28  C   UNL     1       0.699   6.362  -3.294  0.00  0.00    +0.009 A 
ATOM     29  C   UNL     1       1.394   5.939  -4.410  0.00  0.00    +0.046 A 
ATOM     30  C   UNL     1       1.490   4.585  -4.695  0.00  0.00    +0.121 A 
ATOM     31  C   UNL     1       0.892   3.658  -3.853  0.00  0.00    +0.046 A 
ATOM     32  C   UNL     1       0.203   4.085  -2.735  0.00  0.00    +0.009 A 
BRANCH  30  33
ATOM     33  O   UNL     1       2.169   4.167  -5.795  0.00  0.00    -0.492 OA
BRANCH  33  34
ATOM     34  C   UNL     1       2.759   5.177  -6.616  0.00  0.00    +0.225 C 
ATOM     35  C   UNL     1       3.475   4.520  -7.798  0.00  0.00    +0.048 C 
ENDBRANCH  33  34
ENDBRANCH  30  33
ENDBRANCH   5  27
TORSDOF 5
