REMARK  Name = ZINC13635903
REMARK  4 active torsions:
REMARK  status: ('A' for Active; 'I' for Inactive)
REMARK    1  A    between atoms: C_1  and  C_2
REMARK    2  A    between atoms: C_2  and  C_4
REMARK    3  A    between atoms: N_5  and  N_6
REMARK    4  A    between atoms: N_6  and  C_7
REMARK                            x       y       z     vdW  Elec       q    Type
REMARK                         _______ _______ _______ _____ _____    ______ ____
ROOT
ATOM      1  C   UNL     1      -1.182  -0.679   0.105  0.00  0.00    +0.159 C 
ATOM      2  N   UNL     1      -0.996  -1.974   0.168  0.00  0.00    -0.291 N 
ATOM      3  N   UNL     1      -2.477  -0.153   0.183  0.00  0.00    -0.283 N 
ATOM      4  C   UNL     1      -3.242   0.133  -1.038  0.00  0.00    +0.113 C 
ATOM      5  C   UNL     1      -3.898   1.510  -0.869  0.00  0.00    +0.024 C 
ATOM      6  C   UNL     1      -4.883   1.447   0.298  0.00  0.00    +0.038 C 
ATOM      7  C   UNL     1      -4.217   0.874   1.521  0.00  0.00    -0.026 A 
ATOM      8  C   UNL     1      -3.067   0.103   1.426  0.00  0.00    +0.038 A 
ATOM      9  C   UNL     1      -2.482  -0.420   2.574  0.00  0.00    +0.024 A 
ATOM     10  C   UNL     1      -3.046  -0.176   3.810  0.00  0.00    +0.002 A 
ATOM     11  C   UNL     1      -4.194   0.589   3.905  0.00  0.00    +0.000 A 
ATOM     12  C   UNL     1      -4.773   1.120   2.764  0.00  0.00    +0.005 A 
ATOM     13  H   UNL     1      -0.095  -2.334   0.192  0.00  0.00    +0.186 HD
ENDROOT
BRANCH   1  15
ATOM     14  C   UNL     1      -0.274   1.682   0.003  0.00  0.00    +0.095 C 
ATOM     15  C   UNL     1      -0.073   0.189  -0.042  0.00  0.00    +0.192 C 
ATOM     16  O   UNL     1       1.040  -0.270  -0.205  0.00  0.00    -0.289 OA
ENDBRANCH   1  15
BRANCH   2  17
ATOM     17  N   UNL     1      -2.097  -2.839   0.202  0.00  0.00    -0.259 N 
ATOM     18  H   UNL     1      -2.995  -2.486   0.101  0.00  0.00    +0.172 HD
BRANCH  17  19
ATOM     19  C   UNL     1      -1.903  -4.209   0.382  0.00  0.00    +0.046 A 
ATOM     20  C   UNL     1      -0.631  -4.703   0.647  0.00  0.00    +0.026 A 
ATOM     21  C   UNL     1      -0.443  -6.059   0.824  0.00  0.00    +0.017 A 
ATOM     22  C   UNL     1      -1.518  -6.926   0.737  0.00  0.00    +0.018 A 
ATOM     23  C   UNL     1      -2.785  -6.438   0.473  0.00  0.00    +0.017 A 
ATOM     24  C   UNL     1      -2.982  -5.082   0.301  0.00  0.00    +0.026 A 
ATOM     25 BR   UNL     1      -1.255  -8.783   0.980  0.00  0.00    -0.050 Br
ENDBRANCH  17  19
ENDBRANCH   2  17
TORSDOF 3
