REMARK  Name = ZINC27304043
REMARK  11 active torsions:
REMARK  status: ('A' for Active; 'I' for Inactive)
REMARK    1  A    between atoms: C_1  and  O_2
REMARK    2  A    between atoms: O_2  and  C_3
REMARK    3  A    between atoms: C_6  and  C_9
REMARK    4  A    between atoms: C_15  and  S_24
REMARK    5  A    between atoms: S_24  and  N_27
REMARK    6  A    between atoms: N_27  and  C_28
REMARK    7  A    between atoms: N_27  and  C_31
REMARK    8  A    between atoms: C_28  and  C_29
REMARK    9  A    between atoms: C_29  and  O_30
REMARK   10  A    between atoms: C_31  and  C_32
REMARK   11  A    between atoms: C_32  and  O_33
REMARK                            x       y       z     vdW  Elec       q    Type
REMARK                         _______ _______ _______ _____ _____    ______ ____
ROOT
ATOM      1  C   UNL     1       1.685  -2.149  -0.777  0.00  0.00    +0.258 C 
ATOM      2  O   UNL     1       2.041  -2.828   0.167  0.00  0.00    -0.269 OA
ATOM      3  N   UNL     1       1.275  -0.880  -0.578  0.00  0.00    -0.202 N 
ATOM      4  C   UNL     1       2.117   0.226  -0.509  0.00  0.00    +0.053 A 
ATOM      5  C   UNL     1       3.474   0.471  -0.596  0.00  0.00    +0.026 A 
ATOM      6  C   UNL     1       3.957   1.773  -0.471  0.00  0.00    +0.031 A 
ATOM      7  C   UNL     1       3.148   2.856  -0.260  0.00  0.00    +0.113 A 
ATOM      8  C   UNL     1       1.762   2.649  -0.166  0.00  0.00    +0.011 A 
ATOM      9  C   UNL     1       1.307   1.336  -0.295  0.00  0.00    +0.018 A 
ATOM     10  C   UNL     1      -0.042   0.957  -0.226  0.00  0.00    +0.047 A 
ATOM     11  C   UNL     1      -0.963   1.968  -0.011  0.00  0.00    +0.014 A 
ATOM     12  C   UNL     1      -0.524   3.285   0.117  0.00  0.00    +0.001 A 
ATOM     13  C   UNL     1       0.795   3.646   0.048  0.00  0.00    +0.010 A 
ATOM     14  C   UNL     1      -0.019  -0.498  -0.416  0.00  0.00    +0.258 C 
ATOM     15  O   UNL     1      -0.988  -1.233  -0.426  0.00  0.00    -0.269 OA
ENDROOT
BRANCH   1  19
ATOM     16  C   UNL     1       1.732  -3.774  -4.699  0.00  0.00    +0.120 A 
ATOM     17  C   UNL     1       2.030  -4.585  -3.609  0.00  0.00    +0.046 A 
ATOM     18  C   UNL     1       2.016  -4.061  -2.336  0.00  0.00    +0.016 A 
ATOM     19  C   UNL     1       1.701  -2.713  -2.139  0.00  0.00    +0.038 A 
ATOM     20  C   UNL     1       1.396  -1.904  -3.237  0.00  0.00    +0.016 A 
ATOM     21  C   UNL     1       1.419  -2.433  -4.508  0.00  0.00    +0.046 A 
BRANCH  16  23
ATOM     22  C   UNL     1       1.432  -3.406  -7.027  0.00  0.00    +0.277 C 
ATOM     23  O   UNL     1       1.747  -4.294  -5.952  0.00  0.00    -0.495 OA
ENDBRANCH  16  23
ENDBRANCH   1  19
BRANCH   7  24
ATOM     24  S   UNL     1       3.829   4.474  -0.110  0.00  0.00    +0.062 S 
ATOM     25  O   UNL     1       3.663   5.104  -1.373  0.00  0.00    -0.153 OA
ATOM     26  O   UNL     1       3.306   5.026   1.090  0.00  0.00    -0.153 OA
BRANCH  24  27
ATOM     27  N   UNL     1       5.460   4.300   0.120  0.00  0.00    -0.172 NA
BRANCH  27  28
ATOM     28  C   UNL     1       6.353   4.172  -1.034  0.00  0.00    +0.137 C 
BRANCH  28  29
ATOM     29  C   UNL     1       6.911   5.548  -1.403  0.00  0.00    +0.173 C 
BRANCH  29  30
ATOM     30  O   UNL     1       7.735   6.028  -0.339  0.00  0.00    -0.394 OA
ATOM     31  H   UNL     1       8.226   7.009  -0.423  0.00  0.00    +0.209 HD
ENDBRANCH  29  30
ENDBRANCH  28  29
ENDBRANCH  27  28
BRANCH  27  32
ATOM     32  C   UNL     1       6.009   4.273   1.478  0.00  0.00    +0.137 C 
BRANCH  32  33
ATOM     33  C   UNL     1       6.158   2.822   1.940  0.00  0.00    +0.173 C 
BRANCH  33  34
ATOM     34  O   UNL     1       7.129   2.161   1.126  0.00  0.00    -0.394 OA
ATOM     35  H   UNL     1       7.372   1.104   1.310  0.00  0.00    +0.209 HD
ENDBRANCH  33  34
ENDBRANCH  32  33
ENDBRANCH  27  32
ENDBRANCH  24  27
ENDBRANCH   7  24
TORSDOF 10
