REMARK  Name = ZINC39387811
REMARK  7 active torsions:
REMARK  status: ('A' for Active; 'I' for Inactive)
REMARK    1  A    between atoms: C_1  and  C_2
REMARK    2  A    between atoms: C_5  and  N_8
REMARK    3  A    between atoms: C_12  and  C_32
REMARK    4  A    between atoms: C_12  and  C_33
REMARK    5  A    between atoms: C_14  and  N_20
REMARK    6  A    between atoms: N_20  and  C_21
REMARK    7  A    between atoms: C_21  and  C_22
REMARK                            x       y       z     vdW  Elec       q    Type
REMARK                         _______ _______ _______ _____ _____    ______ ____
ROOT
ATOM      1  N   UNL     1       0.906  -3.737   0.705  0.00  0.00    -0.221 N 
ATOM      2  C   UNL     1       0.838  -4.827   1.680  0.00  0.00    +0.109 C 
ATOM      3  C   UNL     1       1.933  -4.833   2.686  0.00  0.00    +0.031 C 
ATOM      4  C   UNL     1       3.090  -5.758   2.392  0.00  0.00    -0.032 C 
ATOM      5  C   UNL     1       2.617  -7.125   1.941  0.00  0.00    +0.025 C 
ATOM      6  C   UNL     1       1.708  -7.048   0.741  0.00  0.00    +0.065 C 
ATOM      7  C   UNL     1       0.589  -6.071   0.857  0.00  0.00    +0.071 C 
ATOM      8  C   UNL     1       0.312  -5.512  -0.534  0.00  0.00    +0.110 C 
ATOM      9  N   UNL     1       0.511  -4.255  -0.533  0.00  0.00    -0.191 NA
ATOM     10  C   UNL     1       3.936  -5.916   3.657  0.00  0.00    +0.011 C 
ATOM     11  C   UNL     1       3.954  -5.141   1.290  0.00  0.00    +0.011 C 
ENDROOT
BRANCH   1  16
ATOM     12  C   UNL     1       2.459   1.613   1.760  0.00  0.00    +0.044 C 
ATOM     13  C   UNL     1       2.046   0.191   1.479  0.00  0.00    -0.050 A 
ATOM     14  C   UNL     1       1.154  -0.447   2.321  0.00  0.00    +0.005 A 
ATOM     15  C   UNL     1       0.774  -1.750   2.068  0.00  0.00    +0.025 A 
ATOM     16  C   UNL     1       1.288  -2.420   0.964  0.00  0.00    +0.052 A 
ATOM     17  C   UNL     1       2.183  -1.775   0.119  0.00  0.00    +0.025 A 
ATOM     18  C   UNL     1       2.555  -0.470   0.376  0.00  0.00    +0.005 A 
ENDBRANCH   1  16
BRANCH   6  19
ATOM     19  N   UNL     1       2.517  -6.673  -0.427  0.00  0.00    -0.306 NA
ATOM     20  H   UNL     1       1.929  -6.396  -1.199  0.00  0.00    +0.123 HD
BRANCH  19  21
ATOM     21  C   UNL     1       3.418  -7.766  -0.817  0.00  0.00    +0.156 C 
BRANCH  21  22
ATOM     22  C   UNL     1       4.229  -7.345  -2.015  0.00  0.00    +0.122 A 
ATOM     23  N   UNL     1       5.479  -6.811  -1.962  0.00  0.00    -0.341 N 
ATOM     24  H   UNL     1       5.997  -6.639  -1.160  0.00  0.00    +0.167 HD
ATOM     25  C   UNL     1       5.875  -6.562  -3.260  0.00  0.00    +0.066 A 
ATOM     26  C   UNL     1       7.023  -6.035  -3.837  0.00  0.00    +0.028 A 
ATOM     27  C   UNL     1       7.106  -5.916  -5.208  0.00  0.00    +0.002 A 
ATOM     28  C   UNL     1       6.050  -6.319  -6.014  0.00  0.00    +0.002 A 
ATOM     29  C   UNL     1       4.913  -6.840  -5.464  0.00  0.00    +0.030 A 
ATOM     30  C   UNL     1       4.807  -6.971  -4.077  0.00  0.00    +0.089 A 
ATOM     31  N   UNL     1       3.837  -7.443  -3.252  0.00  0.00    -0.231 NA
ENDBRANCH  21  22
ENDBRANCH  19  21
ENDBRANCH   6  19
TORSDOF 4
