REMARK  Name = ZINC08356771
REMARK  7 active torsions:
REMARK  status: ('A' for Active; 'I' for Inactive)
REMARK    1  A    between atoms: C_1  and  C_2
REMARK    2  A    between atoms: C_5  and  S_10
REMARK    3  A    between atoms: N_6  and  C_7
REMARK    4  A    between atoms: C_7  and  C_8
REMARK    5  A    between atoms: S_10  and  C_11
REMARK    6  A    between atoms: C_11  and  C_12
REMARK    7  A    between atoms: N_18  and  C_19
REMARK                            x       y       z     vdW  Elec       q    Type
REMARK                         _______ _______ _______ _____ _____    ______ ____
ROOT
ATOM      1  C   UNL     1      -2.558   3.535   6.819  0.00  0.00    +0.146 A 
ATOM      2  N   UNL     1      -2.620   2.650   7.798  0.00  0.00    -0.199 NA
ATOM      3  C   UNL     1      -2.714   3.058   9.062  0.00  0.00    +0.217 A 
ATOM      4  N   UNL     1      -2.756   4.358   9.337  0.00  0.00    -0.181 NA
ATOM      5  C   UNL     1      -2.698   5.244   8.349  0.00  0.00    +0.224 A 
ATOM      6  N   UNL     1      -2.599   4.828   7.088  0.00  0.00    -0.198 NA
ATOM      7  N   UNL     1      -2.740   6.596   8.630  0.00  0.00    -0.284 N 
ATOM      8  N   UNL     1      -2.774   2.134  10.084  0.00  0.00    -0.327 N 
ATOM      9  H   UNL     1      -2.617   7.243   7.918  0.00  0.00    +0.155 HD
ATOM     10  H   UNL     1      -2.846   2.432  11.004  0.00  0.00    +0.145 HD
ATOM     11  H   UNL     1      -2.744   1.185   9.882  0.00  0.00    +0.145 HD
ENDROOT
BRANCH   7  12
ATOM     12  C   UNL     1      -2.959   7.032   9.942  0.00  0.00    +0.034 A 
ATOM     13  C   UNL     1      -3.777   6.297  10.791  0.00  0.00    +0.026 A 
ATOM     14  C   UNL     1      -3.988   6.726  12.086  0.00  0.00    +0.040 A 
ATOM     15  C   UNL     1      -3.394   7.893  12.536  0.00  0.00    +0.124 A 
ATOM     16  C   UNL     1      -2.583   8.630  11.689  0.00  0.00    +0.040 A 
ATOM     17  C   UNL     1      -2.365   8.202  10.395  0.00  0.00    +0.026 A 
ATOM     18  F   UNL     1      -3.607   8.314  13.802  0.00  0.00    -0.205 F 
ENDBRANCH   7  12
BRANCH   1  19
ATOM     19  C   UNL     1      -2.446   3.069   5.390  0.00  0.00    +0.153 C 
BRANCH  19  20
ATOM     20  S   UNL     1      -0.699   2.910   4.943  0.00  0.00    -0.078 S 
BRANCH  20  25
ATOM     21  C   UNL     1       0.262   1.283  -0.024  0.00  0.00    +0.088 C 
ATOM     22  C   UNL     1      -0.438   1.701   1.243  0.00  0.00    +0.131 A 
ATOM     23  N   UNL     1      -1.726   1.776   1.425  0.00  0.00    -0.134 NA
ATOM     24  N   UNL     1      -1.981   2.163   2.624  0.00  0.00    -0.122 NA
ATOM     25  C   UNL     1      -0.859   2.367   3.274  0.00  0.00    +0.192 A 
ATOM     26  N   UNL     1       0.161   2.079   2.413  0.00  0.00    -0.302 N 
BRANCH  26  27
ATOM     27  C   UNL     1       1.598   2.157   2.686  0.00  0.00    +0.152 C 
BRANCH  27  28
ATOM     28  C   UNL     1       2.101   3.535   2.339  0.00  0.00    -0.013 C 
ATOM     29  C   UNL     1       2.739   4.244   3.236  0.00  0.00    +0.005 C 
ENDBRANCH  27  28
ENDBRANCH  26  27
ENDBRANCH  20  25
ENDBRANCH  19  20
ENDBRANCH   1  19
TORSDOF 6
