REMARK  Name = ZINC04341152
REMARK  6 active torsions:
REMARK  status: ('A' for Active; 'I' for Inactive)
REMARK    1  A    between atoms: C_1  and  C_2
REMARK    2  A    between atoms: C_7  and  O_28
REMARK    3  A    between atoms: C_8  and  C_10
REMARK    4  A    between atoms: C_10  and  C_12
REMARK    5  A    between atoms: C_10  and  N_19
REMARK    6  A    between atoms: C_22  and  C_25
REMARK                            x       y       z     vdW  Elec       q    Type
REMARK                         _______ _______ _______ _____ _____    ______ ____
ROOT
ATOM      1  C   UNL     1       0.085  -5.916   0.773  0.00  0.00    +0.008 C 
ENDROOT
BRANCH   1   9
ATOM      2  C   UNL     1      -0.018   1.503   0.010  0.00  0.00    +0.090 C 
ATOM      3  C   UNL     1       0.002  -0.004   0.002  0.00  0.00    +0.150 A 
ATOM      4  N   UNL     1       0.008  -0.769  -1.088  0.00  0.00    -0.205 NA
ATOM      5  C   UNL     1       0.026  -2.025  -0.733  0.00  0.00    +0.199 A 
ATOM      6  N   UNL     1       0.033  -2.116   0.625  0.00  0.00    -0.173 N 
ATOM      7  N   UNL     1       0.022  -0.766   1.063  0.00  0.00    -0.147 NA
ATOM      8  C   UNL     1       0.052  -3.377   1.171  0.00  0.00    +0.225 A 
ATOM      9  C   UNL     1       0.063  -4.460   0.386  0.00  0.00    +0.045 A 
ATOM     10  S   UNL     1       0.047  -3.727  -1.243  0.00  0.00    -0.050 S 
BRANCH   8  11
ATOM     11  O   UNL     1       0.060  -3.525   2.523  0.00  0.00    -0.492 OA
ATOM     12  H   UNL     1       0.050  -2.690   3.011  0.00  0.00    +0.294 HD
ENDBRANCH   8  11
ENDBRANCH   1   9
BRANCH   1  13
ATOM     13  C   UNL     1      -1.196  -6.574   0.328  0.00  0.00    -0.021 A 
ATOM     14  C   UNL     1      -1.219  -7.329  -0.829  0.00  0.00    +0.005 A 
ATOM     15  C   UNL     1      -2.394  -7.932  -1.238  0.00  0.00    +0.000 A 
ATOM     16  C   UNL     1      -3.546  -7.781  -0.489  0.00  0.00    +0.003 A 
ATOM     17  C   UNL     1      -3.525  -7.027   0.669  0.00  0.00    +0.038 A 
ATOM     18  C   UNL     1      -2.348  -6.426   1.082  0.00  0.00    +0.125 A 
ATOM     19  F   UNL     1      -2.325  -5.693   2.216  0.00  0.00    -0.205 F 
ENDBRANCH   1  13
BRANCH   1  20
ATOM     20  N   UNL     1       1.226  -6.578   0.126  0.00  0.00    +0.388 N 
ATOM     21  C   UNL     1       2.472  -5.931   0.553  0.00  0.00    -0.077 C 
ATOM     22  C   UNL     1       3.657  -6.563  -0.180  0.00  0.00    -0.006 C 
ATOM     23  C   UNL     1       3.717  -8.057   0.151  0.00  0.00    +0.071 C 
ATOM     24  C   UNL     1       2.384  -8.708  -0.231  0.00  0.00    -0.006 C 
ATOM     25  C   UNL     1       1.246  -7.996   0.504  0.00  0.00    -0.077 C 
ATOM     26  H   UNL     1       1.135  -6.499  -0.876  0.00  0.00    -0.080 HD
BRANCH  23  27
ATOM     27  C   UNL     1       4.834  -8.702  -0.628  0.00  0.00    +0.213 C 
ATOM     28  O   UNL     1       5.516  -8.033  -1.375  0.00  0.00    -0.276 OA
ATOM     29  N   UNL     1       5.074 -10.021  -0.495  0.00  0.00    -0.329 N 
ATOM     30  H   UNL     1       4.529 -10.556   0.102  0.00  0.00    +0.145 HD
ATOM     31  H   UNL     1       5.793 -10.436  -0.997  0.00  0.00    +0.145 HD
ENDBRANCH  23  27
ENDBRANCH   1  20
TORSDOF 5
