REMARK  Name = ZINC06784648
REMARK  6 active torsions:
REMARK  status: ('A' for Active; 'I' for Inactive)
REMARK    1  A    between atoms: C_1  and  N_2
REMARK    2  A    between atoms: N_2  and  C_3
REMARK    3  A    between atoms: C_13  and  N_14
REMARK    4  A    between atoms: N_14  and  S_15
REMARK    5  A    between atoms: S_15  and  C_18
REMARK    6  A    between atoms: C_22  and  C_24
REMARK                            x       y       z     vdW  Elec       q    Type
REMARK                         _______ _______ _______ _____ _____    ______ ____
ROOT
ATOM      1  C   UNL     1      -1.125   6.242  -3.825  0.00  0.00    +0.067 A 
ATOM      2  C   UNL     1      -2.077   5.629  -4.764  0.00  0.00    +0.040 A 
ATOM      3  C   UNL     1      -1.818   5.603  -6.136  0.00  0.00    +0.013 A 
ATOM      4  C   UNL     1      -2.729   5.021  -6.990  0.00  0.00    +0.001 A 
ATOM      5  C   UNL     1      -3.899   4.465  -6.493  0.00  0.00    +0.004 A 
ATOM      6  C   UNL     1      -4.166   4.484  -5.140  0.00  0.00    +0.047 A 
ATOM      7  C   UNL     1      -3.261   5.066  -4.261  0.00  0.00    +0.141 A 
ATOM      8  O   UNL     1      -3.511   5.092  -2.935  0.00  0.00    -0.421 OA
ATOM      9  C   UNL     1      -2.653   5.642  -2.061  0.00  0.00    +0.362 A 
ATOM     10  O   UNL     1      -2.928   5.633  -0.874  0.00  0.00    -0.243 OA
ATOM     11  C   UNL     1      -1.447   6.233  -2.480  0.00  0.00    +0.154 A 
ENDROOT
BRANCH   1  13
ATOM     12  C   UNL     1       1.192   5.908  -4.050  0.00  0.00    +0.125 C 
ATOM     13  N   UNL     1       0.054   6.811  -4.273  0.00  0.00    -0.345 N 
ATOM     14  H   UNL     1       0.212   7.707  -3.837  0.00  0.00    +0.146 HD
ENDBRANCH   1  13
BRANCH  11  15
ATOM     15  N   UNL     1      -0.573   6.805  -1.538  0.00  0.00    -0.208 N 
ATOM     16  H   UNL     1      -0.285   7.726  -1.640  0.00  0.00    +0.174 HD
BRANCH  15  17
ATOM     17  S   UNL     1      -0.036   5.907  -0.255  0.00  0.00    +0.073 S 
ATOM     18  O   UNL     1      -1.182   5.297   0.322  0.00  0.00    -0.150 OA
ATOM     19  O   UNL     1       0.838   6.745   0.490  0.00  0.00    -0.150 OA
BRANCH  17  20
ATOM     20  C   UNL     1       0.953   4.603  -0.909  0.00  0.00    +0.110 A 
ATOM     21  C   UNL     1       2.329   4.741  -0.962  0.00  0.00    +0.029 A 
ATOM     22  C   UNL     1       3.113   3.723  -1.475  0.00  0.00    +0.003 A 
ATOM     23  C   UNL     1       2.527   2.562  -1.937  0.00  0.00    +0.019 A 
ATOM     24  C   UNL     1       1.139   2.419  -1.891  0.00  0.00    +0.054 A 
ATOM     25  C   UNL     1       0.354   3.449  -1.367  0.00  0.00    +0.047 A 
BRANCH  24  26
ATOM     26  C   UNL     1       0.523   1.220  -2.374  0.00  0.00    +0.099 C 
ATOM     27  N   UNL     1       0.035   0.269  -2.757  0.00  0.00    -0.191 NA
ENDBRANCH  24  26
ENDBRANCH  17  20
ENDBRANCH  15  17
ENDBRANCH  11  15
TORSDOF 5
