REMARK  Name = ZINC39687313
REMARK  8 active torsions:
REMARK  status: ('A' for Active; 'I' for Inactive)
REMARK    1  A    between atoms: C_1  and  C_2
REMARK    2  A    between atoms: C_7  and  C_8
REMARK    3  A    between atoms: C_8  and  C_9
REMARK    4  A    between atoms: C_13  and  C_22
REMARK    5  A    between atoms: N_24  and  C_25
REMARK    6  A    between atoms: C_25  and  C_27
REMARK    7  A    between atoms: C_25  and  C_34
REMARK    8  A    between atoms: C_27  and  C_28
REMARK                            x       y       z     vdW  Elec       q    Type
REMARK                         _______ _______ _______ _____ _____    ______ ____
ROOT
ATOM      1  C   UNL     1      -1.197   0.520   2.195  0.00  0.00    +0.220 C 
ATOM      2  O   UNL     1      -2.104   0.211   1.452  0.00  0.00    -0.275 OA
ATOM      3  N   UNL     1      -1.468   1.035   3.411  0.00  0.00    -0.300 N 
ATOM      4  C   UNL     1      -0.503   1.474   4.446  0.00  0.00    +0.121 C 
ATOM      5  C   UNL     1      -1.126   2.756   5.043  0.00  0.00    +0.100 C 
ATOM      6  C   UNL     1      -2.632   2.630   4.757  0.00  0.00    -0.004 C 
ATOM      7  C   UNL     1      -2.798   1.298   4.011  0.00  0.00    +0.115 C 
ATOM      8  C   UNL     1      -3.102   3.783   3.876  0.00  0.00    -0.010 C 
ATOM      9  C   UNL     1      -4.612   3.666   3.653  0.00  0.00    -0.082 C 
ATOM     10  N   UNL     1      -5.304   3.701   4.947  0.00  0.00    +0.379 N 
ATOM     11  C   UNL     1      -4.916   2.537   5.753  0.00  0.00    -0.082 C 
ATOM     12  C   UNL     1      -3.418   2.605   6.065  0.00  0.00    -0.010 C 
ATOM     13  H   UNL     1      -5.054   4.546   5.438  0.00  0.00    -0.086 HD
ATOM     14  H   UNL     1      -6.301   3.685   4.795  0.00  0.00    -0.086 HD
ENDROOT
BRANCH   5  15
ATOM     15  C   UNL     1      -0.562   3.978   4.365  0.00  0.00    +0.219 C 
ATOM     16  O   UNL     1      -0.250   3.933   3.194  0.00  0.00    -0.275 OA
ATOM     17  N   UNL     1      -0.405   5.122   5.060  0.00  0.00    -0.303 N 
ATOM     18  H   UNL     1      -0.655   5.159   5.997  0.00  0.00    +0.149 HD
BRANCH  17  19
ATOM     19  C   UNL     1       0.143   6.310   4.401  0.00  0.00    +0.163 C 
BRANCH  19  20
ATOM     20  C   UNL     1       1.649   6.253   4.434  0.00  0.00    +0.236 C 
ATOM     21  O   UNL     1       2.212   5.546   5.242  0.00  0.00    -0.274 OA
ATOM     22  N   UNL     1       2.370   6.987   3.563  0.00  0.00    -0.300 N 
ATOM     23  C   UNL     1       1.705   7.769   2.513  0.00  0.00    +0.108 C 
ATOM     24  C   UNL     1       2.185   9.222   2.600  0.00  0.00    +0.019 C 
ATOM     25  C   UNL     1       3.714   9.254   2.535  0.00  0.00    +0.003 C 
ATOM     26  C   UNL     1       4.293   8.481   3.722  0.00  0.00    +0.019 C 
ATOM     27  C   UNL     1       3.836   7.025   3.651  0.00  0.00    +0.108 C 
ENDBRANCH  19  20
BRANCH  19  28
ATOM     28  C   UNL     1      -0.335   7.566   5.133  0.00  0.00    +0.067 C 
BRANCH  28  29
ATOM     29  C   UNL     1      -1.831   7.689   4.994  0.00  0.00    -0.045 A 
ATOM     30  C   UNL     1      -2.370   8.381   3.925  0.00  0.00    +0.004 A 
ATOM     31  C   UNL     1      -3.742   8.494   3.797  0.00  0.00    +0.000 A 
ATOM     32  C   UNL     1      -4.574   7.916   4.738  0.00  0.00    +0.000 A 
ATOM     33  C   UNL     1      -4.034   7.223   5.806  0.00  0.00    +0.000 A 
ATOM     34  C   UNL     1      -2.663   7.106   5.931  0.00  0.00    +0.004 A 
ENDBRANCH  28  29
ENDBRANCH  19  28
ENDBRANCH  17  19
ENDBRANCH   5  15
BRANCH   1  35
ATOM     35  C   UNL     1       0.232   0.327   1.760  0.00  0.00    +0.131 C 
BRANCH  35  42
ATOM     36  C   UNL     1       0.055   2.060  -0.545  0.00  0.00    +0.044 C 
ATOM     37  C   UNL     1       0.175   0.569  -0.731  0.00  0.00    -0.047 A 
ATOM     38  C   UNL     1       0.206   0.031  -2.004  0.00  0.00    +0.003 A 
ATOM     39  C   UNL     1       0.316  -1.336  -2.174  0.00  0.00    +0.000 A 
ATOM     40  C   UNL     1       0.396  -2.166  -1.071  0.00  0.00    +0.000 A 
ATOM     41  C   UNL     1       0.366  -1.628   0.202  0.00  0.00    +0.004 A 
ATOM     42  C   UNL     1       0.260  -0.260   0.372  0.00  0.00    -0.036 A 
ENDBRANCH  35  42
ENDBRANCH   1  35
TORSDOF 7
