REMARK  Name = ZINC08683812
REMARK  5 active torsions:
REMARK  status: ('A' for Active; 'I' for Inactive)
REMARK    1  A    between atoms: C_1  and  C_2
REMARK    2  A    between atoms: C_5  and  C_22
REMARK    3  A    between atoms: C_7  and  N_8
REMARK    4  A    between atoms: N_8  and  S_9
REMARK    5  A    between atoms: S_9  and  C_12
REMARK                            x       y       z     vdW  Elec       q    Type
REMARK                         _______ _______ _______ _____ _____    ______ ____
ROOT
ATOM      1  C   UNL     1       0.152   1.692   0.143  0.00  0.00    +0.046 C 
ATOM      2  C   UNL     1       0.258   0.193   0.022  0.00  0.00    -0.028 A 
ATOM      3  C   UNL     1       0.427  -0.387  -1.222  0.00  0.00    +0.006 A 
ATOM      4  C   UNL     1       0.524  -1.759  -1.341  0.00  0.00    +0.011 A 
ATOM      5  C   UNL     1       0.452  -2.565  -0.203  0.00  0.00    +0.009 A 
ATOM      6  C   UNL     1       0.281  -1.980   1.051  0.00  0.00    +0.035 A 
ATOM      7  C   UNL     1       0.191  -0.601   1.161  0.00  0.00    +0.052 A 
ENDROOT
BRANCH   5   8
ATOM      8  C   UNL     1       0.555  -4.035  -0.328  0.00  0.00    +0.111 A 
ATOM      9  N   UNL     1       0.720  -4.761  -1.412  0.00  0.00    -0.237 NA
ATOM     10  C   UNL     1       0.797  -6.104  -1.377  0.00  0.00    +0.097 A 
ATOM     11  C   UNL     1       0.973  -7.003  -2.458  0.00  0.00    +0.032 A 
ATOM     12  C   UNL     1       1.025  -8.353  -2.201  0.00  0.00    +0.022 A 
ATOM     13  C   UNL     1       0.908  -8.830  -0.905  0.00  0.00    +0.112 A 
ATOM     14  N   UNL     1       0.744  -7.990   0.101  0.00  0.00    -0.246 NA
ATOM     15  C   UNL     1       0.689  -6.697  -0.095  0.00  0.00    +0.128 A 
ATOM     16  S   UNL     1       0.493  -5.276   0.956  0.00  0.00    -0.048 S 
ENDBRANCH   5   8
BRANCH   7  17
ATOM     17  N   UNL     1       0.025  -0.009   2.416  0.00  0.00    -0.216 N 
ATOM     18  H   UNL     1      -0.522   0.786   2.509  0.00  0.00    +0.174 HD
BRANCH  17  19
ATOM     19  S   UNL     1       0.764  -0.666   3.744  0.00  0.00    +0.072 S 
ATOM     20  O   UNL     1       0.520   0.223   4.826  0.00  0.00    -0.150 OA
ATOM     21  O   UNL     1       0.387  -2.035   3.783  0.00  0.00    -0.150 OA
BRANCH  19  22
ATOM     22  C   UNL     1       2.500  -0.630   3.446  0.00  0.00    +0.109 A 
ATOM     23  C   UNL     1       3.119  -1.698   2.822  0.00  0.00    +0.029 A 
ATOM     24  C   UNL     1       4.479  -1.664   2.595  0.00  0.00    +0.006 A 
ATOM     25  C   UNL     1       5.233  -0.565   2.986  0.00  0.00    -0.044 A 
ATOM     26  C   UNL     1       4.616   0.501   3.602  0.00  0.00    -0.042 A 
ATOM     27  C   UNL     1       3.246   0.466   3.828  0.00  0.00    +0.032 A 
ATOM     28  C   UNL     1       5.367   1.732   4.037  0.00  0.00    +0.035 C 
ATOM     29  C   UNL     1       6.866   1.448   4.112  0.00  0.00    +0.005 C 
ATOM     30  C   UNL     1       7.305   0.809   2.789  0.00  0.00    +0.005 C 
ATOM     31  C   UNL     1       6.714  -0.597   2.714  0.00  0.00    +0.035 C 
ENDBRANCH  19  22
ENDBRANCH  17  19
ENDBRANCH   7  17
TORSDOF 4
