REMARK  Name = ZINC23339387
REMARK  11 active torsions:
REMARK  status: ('A' for Active; 'I' for Inactive)
REMARK    1  A    between atoms: C_1  and  C_2
REMARK    2  A    between atoms: C_3  and  C_29
REMARK    3  A    between atoms: C_5  and  C_10
REMARK    4  A    between atoms: C_14  and  C_16
REMARK    5  A    between atoms: C_16  and  N_17
REMARK    6  A    between atoms: N_17  and  C_18
REMARK    7  A    between atoms: N_17  and  C_19
REMARK    8  A    between atoms: C_19  and  C_20
REMARK    9  A    between atoms: C_20  and  C_21
REMARK   10  A    between atoms: C_22  and  C_28
REMARK   11  A    between atoms: C_26  and  C_27
REMARK                            x       y       z     vdW  Elec       q    Type
REMARK                         _______ _______ _______ _____ _____    ______ ____
ROOT
ATOM      1  C   UNL     1      -1.230   1.759   0.017  0.00  0.00    +0.018 A 
ATOM      2  C   UNL     1      -1.240   3.155   0.030  0.00  0.00    +0.011 A 
ATOM      3  C   UNL     1      -0.049   3.850   0.023  0.00  0.00    +0.001 A 
ATOM      4  C   UNL     1       1.155   3.167   0.008  0.00  0.00    +0.002 A 
ATOM      5  C   UNL     1       1.172   1.783   0.000  0.00  0.00    -0.063 A 
ATOM      6  C   UNL     1      -0.013   1.076   0.008  0.00  0.00    +0.013 A 
ENDROOT
BRANCH   1  11
ATOM      7  C   UNL     1      -6.087  -1.200   0.022  0.00  0.00    +0.051 C 
ATOM      8  C   UNL     1      -4.811  -0.399   0.022  0.00  0.00    +0.035 A 
ATOM      9  C   UNL     1      -3.599  -1.025   0.013  0.00  0.00    +0.049 A 
ATOM     10  N   UNL     1      -2.476  -0.308   0.006  0.00  0.00    -0.234 NA
ATOM     11  C   UNL     1      -2.502   1.008   0.019  0.00  0.00    +0.141 A 
ATOM     12  N   UNL     1      -3.682   1.690   0.029  0.00  0.00    -0.307 N 
ATOM     13  H   UNL     1      -3.682   2.790   0.035  0.00  0.00    +0.170 HD
ATOM     14  C   UNL     1      -4.849   1.010   0.030  0.00  0.00    +0.255 A 
ATOM     15  O   UNL     1      -5.915   1.603   0.038  0.00  0.00    -0.268 OA
ATOM     16  C   UNL     1      -3.530  -2.530   0.003  0.00  0.00    +0.066 C 
ENDBRANCH   1  11
BRANCH   5  17
ATOM     17  C   UNL     1       2.487   1.048  -0.017  0.00  0.00    -0.043 C 
BRANCH  17  18
ATOM     18  N   UNL     1       2.901   0.817  -1.407  0.00  0.00    +0.381 N 
ATOM     19  C   UNL     1       3.201   2.085  -2.085  0.00  0.00    -0.096 C 
ATOM     20  H   UNL     1       2.061   0.342  -1.935  0.00  0.00    -0.082 HD
BRANCH  18  21
ATOM     21  C   UNL     1       4.048  -0.098  -1.470  0.00  0.00    -0.074 C 
BRANCH  21  22
ATOM     22  C   UNL     1       4.293  -0.511  -2.922  0.00  0.00    +0.020 C 
BRANCH  22  23
ATOM     23  C   UNL     1       5.471  -1.449  -2.987  0.00  0.00    -0.006 A 
ATOM     24  C   UNL     1       5.420  -2.798  -2.892  0.00  0.00    +0.036 A 
ATOM     25  N   UNL     1       6.681  -3.266  -2.996  0.00  0.00    -0.281 N 
ATOM     26  H   UNL     1       6.873  -4.348  -2.945  0.00  0.00    +0.189 HD
ATOM     27  N   UNL     1       7.536  -2.168  -3.161  0.00  0.00    -0.179 NA
ATOM     28  C   UNL     1       6.808  -1.080  -3.161  0.00  0.00    +0.063 A 
ATOM     29  C   UNL     1       7.324   0.327  -3.318  0.00  0.00    +0.068 C 
ATOM     30  C   UNL     1       4.177  -3.629  -2.703  0.00  0.00    +0.065 C 
ENDBRANCH  22  23
ENDBRANCH  21  22
ENDBRANCH  18  21
ENDBRANCH  17  18
ENDBRANCH   5  17
TORSDOF 6
