REMARK  Name = ZINC00740040
REMARK  9 active torsions:
REMARK  status: ('A' for Active; 'I' for Inactive)
REMARK    1  A    between atoms: C_1  and  C_2
REMARK    2  A    between atoms: C_2  and  C_3
REMARK    3  A    between atoms: C_2  and  C_4
REMARK    4  A    between atoms: C_4  and  N_5
REMARK    5  A    between atoms: N_5  and  C_6
REMARK    6  A    between atoms: C_6  and  C_7
REMARK    7  A    between atoms: C_15  and  C_16
REMARK    8  A    between atoms: C_15  and  C_17
REMARK    9  A    between atoms: N_20  and  C_21
REMARK                            x       y       z     vdW  Elec       q    Type
REMARK                         _______ _______ _______ _____ _____    ______ ____
ROOT
ATOM      1  N   UNL     1      -1.586   3.880   1.692  0.00  0.00    -0.281 N 
ATOM      2  C   UNL     1      -2.115   2.774   2.253  0.00  0.00    +0.307 C 
ATOM      3  O   UNL     1      -1.400   1.997   2.857  0.00  0.00    -0.252 OA
ATOM      4  N   UNL     1      -3.436   2.530   2.146  0.00  0.00    -0.267 N 
ATOM      5  H   UNL     1      -3.995   3.116   1.613  0.00  0.00    +0.156 HD
ENDROOT
BRANCH   4   6
ATOM      6  C   UNL     1      -4.001   1.429   2.804  0.00  0.00    +0.070 A 
ATOM      7  C   UNL     1      -3.233   0.301   3.057  0.00  0.00    +0.029 A 
ATOM      8  C   UNL     1      -3.789  -0.781   3.711  0.00  0.00    +0.040 A 
ATOM      9  C   UNL     1      -5.117  -0.746   4.105  0.00  0.00    +0.126 A 
ATOM     10  C   UNL     1      -5.888   0.375   3.849  0.00  0.00    +0.078 A 
ATOM     11  C   UNL     1      -5.333   1.463   3.200  0.00  0.00    +0.147 A 
ATOM     12  F   UNL     1      -6.085   2.557   2.950  0.00  0.00    -0.203 F 
ATOM     13  F   UNL     1      -5.660  -1.808   4.740  0.00  0.00    -0.205 F 
ENDBRANCH   4   6
BRANCH   1  14
ATOM     14  C   UNL     1      -2.447   4.816   0.966  0.00  0.00    +0.112 C 
BRANCH  14  16
ATOM     15  C   UNL     1      -3.627   5.235  -1.196  0.00  0.00    +0.009 C 
ATOM     16  C   UNL     1      -2.624   4.332  -0.475  0.00  0.00    +0.000 C 
ATOM     17  C   UNL     1      -1.278   4.385  -1.200  0.00  0.00    +0.009 C 
ENDBRANCH  14  16
ENDBRANCH   1  14
BRANCH   1  18
ATOM     18  C   UNL     1      -0.150   4.145   1.810  0.00  0.00    +0.140 C 
BRANCH  18  19
ATOM     19  C   UNL     1       0.126   4.849   3.113  0.00  0.00    -0.053 C 
ATOM     20  C   UNL     1       0.487   4.183   4.185  0.00  0.00    -0.025 C 
ATOM     21  C   UNL     1       0.767   4.927   5.470  0.00  0.00    +0.031 C 
ATOM     22  C   UNL     1       0.478   6.422   5.275  0.00  0.00    -0.000 C 
ATOM     23  C   UNL     1       1.186   6.957   4.013  0.00  0.00    +0.012 C 
ATOM     24  C   UNL     1      -0.002   6.358   3.238  0.00  0.00    +0.022 C 
ATOM     25  C   UNL     1      -0.831   6.681   4.510  0.00  0.00    -0.025 C 
ATOM     26  C   UNL     1      -1.935   5.664   4.807  0.00  0.00    +0.012 C 
ATOM     27  C   UNL     1      -1.316   8.131   4.585  0.00  0.00    +0.012 C 
ENDBRANCH  18  19
ENDBRANCH   1  18
TORSDOF 5
