REMARK  Name = ZINC06077794
REMARK  10 active torsions:
REMARK  status: ('A' for Active; 'I' for Inactive)
REMARK    1  A    between atoms: C_1  and  C_2
REMARK    2  A    between atoms: C_2  and  C_3
REMARK    3  A    between atoms: C_3  and  C_4
REMARK    4  A    between atoms: C_3  and  C_5
REMARK    5  A    between atoms: C_3  and  N_6
REMARK    6  A    between atoms: C_7  and  C_11
REMARK    7  A    between atoms: C_11  and  C_13
REMARK    8  A    between atoms: C_11  and  N_68
REMARK    9  A    between atoms: C_18  and  C_25
REMARK   10  A    between atoms: N_28  and  C_31
REMARK                            x       y       z     vdW  Elec       q    Type
REMARK                         _______ _______ _______ _____ _____    ______ ____
ROOT
ATOM      1  C   UNL     1       1.939   7.886  -1.008  0.00  0.00    +0.039 C 
ENDROOT
BRANCH   1   2
ATOM      2  C   UNL     1       3.262   8.579  -1.207  0.00  0.00    +0.011 A 
ATOM      3  C   UNL     1       3.645   9.562  -0.354  0.00  0.00    +0.017 A 
ATOM      4  C   UNL     1       4.938  10.212  -0.572  0.00  0.00    -0.001 A 
ATOM      5  C   UNL     1       5.390  11.228   0.278  0.00  0.00    +0.010 A 
ATOM      6  C   UNL     1       6.599  11.818   0.045  0.00  0.00    +0.004 A 
ATOM      7  C   UNL     1       7.385  11.418  -1.028  0.00  0.00    -0.048 A 
ATOM      8  C   UNL     1       6.961  10.420  -1.878  0.00  0.00    +0.029 A 
ATOM      9  C   UNL     1       5.732   9.805  -1.660  0.00  0.00    +0.049 A 
ATOM     10  N   UNL     1       5.283   8.803  -2.494  0.00  0.00    -0.322 N 
ATOM     11  H   UNL     1       5.848   8.516  -3.268  0.00  0.00    +0.169 HD
ATOM     12  C   UNL     1       4.096   8.208  -2.283  0.00  0.00    +0.251 A 
ATOM     13  O   UNL     1       3.731   7.326  -3.041  0.00  0.00    -0.268 OA
ATOM     14  C   UNL     1       8.716  12.084  -1.265  0.00  0.00    +0.044 C 
ENDBRANCH   1   2
BRANCH   1  20
ATOM     15  C   UNL     1       3.037   6.098   0.201  0.00  0.00    -0.058 C 
ATOM     16  C   UNL     1       3.300   4.590   0.206  0.00  0.00    +0.086 C 
ATOM     17  N   UNL     1       2.021   3.873   0.310  0.00  0.00    -0.333 N 
ATOM     18  C   UNL     1       1.138   4.210  -0.816  0.00  0.00    +0.086 C 
ATOM     19  C   UNL     1       0.876   5.718  -0.821  0.00  0.00    -0.058 C 
ATOM     20  N   UNL     1       2.167   6.426  -0.948  0.00  0.00    +0.391 N 
ATOM     21  H   UNL     1       2.629   6.125  -1.813  0.00  0.00    -0.080 HD
BRANCH  17  22
ATOM     22  C   UNL     1       2.226   2.492   0.389  0.00  0.00    +0.030 A 
ATOM     23  C   UNL     1       1.140   1.633   0.493  0.00  0.00    +0.026 A 
ATOM     24  C   UNL     1       1.345   0.269   0.572  0.00  0.00    +0.040 A 
ATOM     25  C   UNL     1       2.631  -0.241   0.546  0.00  0.00    +0.124 A 
ATOM     26  C   UNL     1       3.716   0.614   0.442  0.00  0.00    +0.040 A 
ATOM     27  C   UNL     1       3.516   1.978   0.364  0.00  0.00    +0.026 A 
ATOM     28  F   UNL     1       2.829  -1.575   0.623  0.00  0.00    -0.205 F 
ENDBRANCH  17  22
ENDBRANCH   1  20
BRANCH   1  30
ATOM     29  N   UNL     1      -0.076   8.958  -2.146  0.00  0.00    -0.225 N 
ATOM     30  C   UNL     1       1.031   8.193  -2.171  0.00  0.00    +0.143 A 
ATOM     31  N   UNL     1       1.170   7.772  -3.404  0.00  0.00    -0.115 NA
ATOM     32  N   UNL     1       0.194   8.246  -4.099  0.00  0.00    -0.023 NA
ATOM     33  N   UNL     1      -0.559   8.966  -3.343  0.00  0.00    -0.043 NA
BRANCH  29  34
ATOM     34  C   UNL     1      -0.629   9.651  -0.980  0.00  0.00    +0.061 C 
ATOM     35  C   UNL     1      -1.041   8.624   0.076  0.00  0.00    +0.036 C 
ATOM     36  C   UNL     1       0.430  10.588  -0.395  0.00  0.00    +0.036 C 
BRANCH  34  38
ATOM     37  C   UNL     1      -2.430  11.190  -0.186  0.00  0.00    +0.006 C 
ATOM     38  C   UNL     1      -1.853  10.466  -1.404  0.00  0.00    +0.026 C 
ENDBRANCH  34  38
ENDBRANCH  29  34
ENDBRANCH   1  30
TORSDOF 6
