REMARK  Name = ZINC35632685
REMARK  7 active torsions:
REMARK  status: ('A' for Active; 'I' for Inactive)
REMARK    1  A    between atoms: C_4  and  O_7
REMARK    2  A    between atoms: O_7  and  C_8
REMARK    3  A    between atoms: C_8  and  C_9
REMARK    4  A    between atoms: C_9  and  C_11
REMARK    5  A    between atoms: C_9  and  O_32
REMARK    6  A    between atoms: C_11  and  N_12
REMARK    7  A    between atoms: C_16  and  N_19
REMARK                            x       y       z     vdW  Elec       q    Type
REMARK                         _______ _______ _______ _____ _____    ______ ____
ROOT
ATOM      1  N   UNL     1       6.303  -4.570   0.186  0.00  0.00    +0.383 N 
ATOM      2  C   UNL     1       7.052  -4.181  -1.015  0.00  0.00    -0.079 C 
ATOM      3  C   UNL     1       8.528  -4.545  -0.839  0.00  0.00    -0.017 C 
ATOM      4  C   UNL     1       8.654  -6.056  -0.624  0.00  0.00    +0.018 C 
ATOM      5  C   UNL     1       7.809  -6.461   0.586  0.00  0.00    +0.058 C 
ATOM      6  C   UNL     1       6.359  -6.027   0.358  0.00  0.00    -0.056 C 
ATOM      7  H   UNL     1       6.708  -4.121   0.993  0.00  0.00    -0.082 HD
ENDROOT
BRANCH   5   8
ATOM      8  N   UNL     1       7.863  -7.915   0.756  0.00  0.00    -0.298 N 
ATOM      9  C   UNL     1       8.879  -8.476   1.441  0.00  0.00    +0.303 C 
ATOM     10  O   UNL     1       9.701  -7.771   1.995  0.00  0.00    -0.253 OA
ATOM     11  N   UNL     1       8.985  -9.818   1.513  0.00  0.00    -0.281 N 
ATOM     12  C   UNL     1      10.139 -10.462   2.161  0.00  0.00    +0.114 C 
ATOM     13  C   UNL     1       9.627 -11.225   3.381  0.00  0.00    +0.054 C 
ATOM     14  C   UNL     1       8.420 -12.053   3.028  0.00  0.00    -0.041 A 
ATOM     15  C   UNL     1       8.093 -13.109   3.871  0.00  0.00    +0.004 A 
ATOM     16  C   UNL     1       6.995 -13.901   3.610  0.00  0.00    +0.000 A 
ATOM     17  C   UNL     1       6.209 -13.644   2.502  0.00  0.00    +0.000 A 
ATOM     18  C   UNL     1       6.532 -12.598   1.662  0.00  0.00    +0.005 A 
ATOM     19  C   UNL     1       7.641 -11.804   1.920  0.00  0.00    -0.027 A 
ATOM     20  C   UNL     1       7.951 -10.695   0.953  0.00  0.00    +0.144 C 
ATOM     21  H   UNL     1       7.168  -8.475   0.375  0.00  0.00    +0.150 HD
ENDBRANCH   5   8
BRANCH   1  22
ATOM     22  C   UNL     1       4.902  -4.149   0.045  0.00  0.00    -0.044 C 
BRANCH  22  23
ATOM     23  C   UNL     1       4.157  -4.409   1.355  0.00  0.00    +0.135 C 
BRANCH  23  24
ATOM     24  O   UNL     1       4.772  -3.663   2.408  0.00  0.00    -0.390 OA
ATOM     25  H   UNL     1       4.772  -2.707   2.265  0.00  0.00    +0.210 HD
ENDBRANCH  23  24
BRANCH  23  26
ATOM     26  C   UNL     1       2.698  -3.974   1.207  0.00  0.00    +0.258 C 
BRANCH  26  27
ATOM     27  O   UNL     1       1.974  -4.323   2.389  0.00  0.00    -0.489 OA
BRANCH  27  31
ATOM     28  C   UNL     1      -2.034  -3.353   2.486  0.00  0.00    +0.000 A 
ATOM     29  C   UNL     1      -1.451  -3.987   3.568  0.00  0.00    +0.004 A 
ATOM     30  C   UNL     1      -0.109  -4.313   3.538  0.00  0.00    +0.045 A 
ATOM     31  C   UNL     1       0.654  -4.004   2.421  0.00  0.00    +0.121 A 
ATOM     32  C   UNL     1       0.066  -3.368   1.337  0.00  0.00    +0.045 A 
ATOM     33  C   UNL     1      -1.276  -3.044   1.372  0.00  0.00    +0.004 A 
ENDBRANCH  27  31
ENDBRANCH  26  27
ENDBRANCH  23  26
ENDBRANCH  22  23
ENDBRANCH   1  22
TORSDOF 7
