REMARK  Name = ZINC13174459
REMARK  8 active torsions:
REMARK  status: ('A' for Active; 'I' for Inactive)
REMARK    1  A    between atoms: C_1  and  C_2
REMARK    2  A    between atoms: C_5  and  N_9
REMARK    3  A    between atoms: C_6  and  C_8
REMARK    4  A    between atoms: C_10  and  C_12
REMARK    5  A    between atoms: C_12  and  S_13
REMARK    6  A    between atoms: S_13  and  C_14
REMARK    7  A    between atoms: C_15  and  C_33
REMARK    8  A    between atoms: C_16  and  C_26
REMARK                            x       y       z     vdW  Elec       q    Type
REMARK                         _______ _______ _______ _____ _____    ______ ____
ROOT
ATOM      1  C   UNL     1      -0.356  -8.692  -2.728  0.00  0.00    +0.080 C 
ATOM      2  C   UNL     1      -0.454  -9.476  -3.835  0.00  0.00    +0.069 C 
ATOM      3  C   UNL     1      -0.550 -10.968  -3.721  0.00  0.00    +0.097 C 
ATOM      4  C   UNL     1      -0.097 -11.441  -2.363  0.00  0.00    +0.024 C 
ATOM      5  C   UNL     1      -0.011 -10.585  -1.323  0.00  0.00    +0.016 C 
ATOM      6  N   UNL     1      -0.330  -9.265  -1.478  0.00  0.00    -0.311 N 
ATOM      7  C   UNL     1       0.448 -11.056   0.036  0.00  0.00    +0.051 C 
ATOM      8  C   UNL     1       0.044 -12.518   0.237  0.00  0.00    +0.014 C 
ATOM      9  C   UNL     1       0.672 -13.353  -0.884  0.00  0.00    +0.080 C 
ATOM     10  C   UNL     1       0.231 -12.800  -2.212  0.00  0.00    +0.162 C 
ATOM     11  O   UNL     1       0.157 -13.542  -3.171  0.00  0.00    -0.292 OA
ATOM     12  H   UNL     1      -0.543  -8.729  -0.698  0.00  0.00    +0.152 HD
ENDROOT
BRANCH   3  13
ATOM     13  C   UNL     1      -1.981 -11.389  -3.938  0.00  0.00    -0.035 A 
ATOM     14  C   UNL     1      -2.974 -10.915  -3.101  0.00  0.00    +0.006 A 
ATOM     15  C   UNL     1      -4.287 -11.301  -3.299  0.00  0.00    +0.020 A 
ATOM     16  C   UNL     1      -4.606 -12.161  -4.335  0.00  0.00    +0.041 A 
ATOM     17  C   UNL     1      -3.611 -12.634  -5.172  0.00  0.00    +0.020 A 
ATOM     18  C   UNL     1      -2.300 -12.244  -4.976  0.00  0.00    +0.006 A 
ATOM     19 CL   UNL     1      -6.254 -12.646  -4.584  0.00  0.00    -0.084 Cl
ENDBRANCH   3  13
BRANCH   2  20
ATOM     20  C   UNL     1      -0.465  -8.866  -5.131  0.00  0.00    +0.098 C 
ATOM     21  N   UNL     1      -0.474  -8.382  -6.159  0.00  0.00    -0.191 NA
ENDBRANCH   2  20
BRANCH   1  22
ATOM     22  S   UNL     1      -0.255  -6.941  -2.895  0.00  0.00    -0.100 S 
BRANCH  22  23
ATOM     23  C   UNL     1      -0.134  -6.343  -1.187  0.00  0.00    +0.171 C 
BRANCH  23  25
ATOM     24  N   UNL     1       0.059  -4.170  -0.021  0.00  0.00    -0.285 N 
ATOM     25  C   UNL     1      -0.040  -4.839  -1.187  0.00  0.00    +0.227 C 
ATOM     26  O   UNL     1      -0.054  -4.230  -2.236  0.00  0.00    -0.275 OA
ATOM     27  H   UNL     1       0.135  -4.658   0.814  0.00  0.00    +0.155 HD
BRANCH  24  32
ATOM     28  C   UNL     1       0.025   1.503   0.005  0.00  0.00    +0.044 C 
ATOM     29  C   UNL     1       0.034  -0.004  -0.002  0.00  0.00    -0.050 A 
ATOM     30  C   UNL     1       0.632  -0.685  -1.046  0.00  0.00    +0.005 A 
ATOM     31  C   UNL     1       0.641  -2.066  -1.055  0.00  0.00    +0.024 A 
ATOM     32  C   UNL     1       0.051  -2.771  -0.014  0.00  0.00    +0.036 A 
ATOM     33  C   UNL     1      -0.548  -2.083   1.033  0.00  0.00    -0.029 A 
ATOM     34  C   UNL     1      -0.550  -0.702   1.039  0.00  0.00    +0.008 A 
ATOM     35  C   UNL     1      -1.190  -2.843   2.165  0.00  0.00    +0.045 C 
ENDBRANCH  24  32
ENDBRANCH  23  25
ENDBRANCH  22  23
ENDBRANCH   1  22
TORSDOF 6
