REMARK  Name = ZINC13571046
REMARK  4 active torsions:
REMARK  status: ('A' for Active; 'I' for Inactive)
REMARK    1  A    between atoms: C_1  and  C_2
REMARK    2  A    between atoms: C_2  and  C_26
REMARK    3  A    between atoms: C_6  and  C_16
REMARK    4  A    between atoms: C_11  and  O_15
REMARK                            x       y       z     vdW  Elec       q    Type
REMARK                         _______ _______ _______ _____ _____    ______ ____
ROOT
ATOM      1  C   UNL     1      -0.019   1.526   0.010  0.00  0.00    +0.031 C 
ATOM      2  C   UNL     1       0.002  -0.004   0.002  0.00  0.00    +0.034 C 
ATOM      3  C   UNL     1       0.757  -0.507  -1.236  0.00  0.00    +0.096 C 
ATOM      4  C   UNL     1       0.750  -2.037  -1.227  0.00  0.00    +0.186 C 
ATOM      5  C   UNL     1       1.689  -2.554  -2.324  0.00  0.00    +0.084 C 
ATOM      6  C   UNL     1       1.268  -1.923  -3.654  0.00  0.00    +0.058 C 
ATOM      7  C   UNL     1      -0.223  -2.062  -3.833  0.00  0.00    +0.002 A 
ATOM      8  C   UNL     1      -0.758  -1.908  -5.101  0.00  0.00    +0.011 A 
ATOM      9  C   UNL     1      -2.118  -2.023  -5.304  0.00  0.00    +0.046 A 
ATOM     10  C   UNL     1      -2.957  -2.294  -4.232  0.00  0.00    +0.120 A 
ATOM     11  C   UNL     1      -2.425  -2.451  -2.963  0.00  0.00    +0.091 A 
ATOM     12  C   UNL     1      -1.054  -2.337  -2.761  0.00  0.00    +0.131 A 
ATOM     13  O   UNL     1      -0.569  -2.509  -1.504  0.00  0.00    -0.466 OA
ATOM     14  N   UNL     1       1.193  -2.541   0.070  0.00  0.00    -0.330 N 
ATOM     15  C   UNL     1       1.146  -1.796   1.204  0.00  0.00    +0.142 C 
ATOM     16  N   UNL     1       0.712  -0.499   1.191  0.00  0.00    -0.320 N 
ATOM     17  S   UNL     1       1.627  -2.474   2.641  0.00  0.00    -0.016 SA
ATOM     18  C   UNL     1      -1.430  -0.542  -0.008  0.00  0.00    +0.031 C 
ATOM     19  H   UNL     1       0.869   0.083   1.950  0.00  0.00    +0.148 HD
ATOM     20  H   UNL     1       1.534  -3.447   0.124  0.00  0.00    +0.165 HD
ENDROOT
BRANCH   6  21
ATOM     21  C   UNL     1       1.975  -2.622  -4.787  0.00  0.00    -0.040 A 
ATOM     22  C   UNL     1       1.785  -3.976  -4.989  0.00  0.00    +0.004 A 
ATOM     23  C   UNL     1       2.434  -4.617  -6.029  0.00  0.00    +0.000 A 
ATOM     24  C   UNL     1       3.272  -3.903  -6.865  0.00  0.00    +0.000 A 
ATOM     25  C   UNL     1       3.461  -2.549  -6.662  0.00  0.00    +0.000 A 
ATOM     26  C   UNL     1       2.809  -1.907  -5.626  0.00  0.00    +0.004 A 
ENDBRANCH   6  21
BRANCH  10  27
ATOM     27  O   UNL     1      -4.297  -2.405  -4.427  0.00  0.00    -0.507 OA
ATOM     28  H   UNL     1      -4.592  -3.304  -4.630  0.00  0.00    +0.292 HD
ENDBRANCH  10  27
TORSDOF 2
