REMARK  Name = ZINC00720706
REMARK  8 active torsions:
REMARK  status: ('A' for Active; 'I' for Inactive)
REMARK    1  A    between atoms: C_1  and  O_2
REMARK    2  A    between atoms: O_2  and  C_3
REMARK    3  A    between atoms: C_6  and  C_13
REMARK    4  A    between atoms: C_7  and  O_11
REMARK    5  A    between atoms: C_8  and  O_9
REMARK    6  A    between atoms: O_9  and  C_10
REMARK    7  A    between atoms: O_11  and  C_12
REMARK    8  A    between atoms: C_18  and  C_23
REMARK                            x       y       z     vdW  Elec       q    Type
REMARK                         _______ _______ _______ _____ _____    ______ ____
ROOT
ATOM      1  C   UNL     1       1.234   1.696  -0.001  0.00  0.00    +0.140 C 
ATOM      2  C   UNL     1       1.626   2.497  -1.220  0.00  0.00    +0.037 C 
ATOM      3  C   UNL     1       0.807   2.854  -2.224  0.00  0.00    +0.017 C 
ATOM      4  C   UNL     1       1.335   3.664  -3.397  0.00  0.00    +0.060 C 
ATOM      5  C   UNL     1       2.463   4.583  -2.934  0.00  0.00    +0.039 C 
ATOM      6  C   UNL     1       3.573   3.700  -2.350  0.00  0.00    +0.088 C 
ATOM      7  C   UNL     1       2.989   2.876  -1.242  0.00  0.00    +0.163 C 
ATOM      8  O   UNL     1       3.711   2.521  -0.331  0.00  0.00    -0.292 OA
ATOM      9  N   UNL     1      -0.509   2.532  -2.308  0.00  0.00    -0.316 N 
ATOM     10  C   UNL     1      -1.429   2.659  -1.272  0.00  0.00    +0.052 A 
ATOM     11  C   UNL     1      -2.512   3.517  -1.341  0.00  0.00    +0.025 A 
ATOM     12  C   UNL     1      -3.421   3.544  -0.315  0.00  0.00    +0.002 A 
ATOM     13  C   UNL     1      -3.253   2.721   0.783  0.00  0.00    +0.002 A 
ATOM     14  C   UNL     1      -2.156   1.881   0.869  0.00  0.00    +0.025 A 
ATOM     15  C   UNL     1      -1.224   1.868  -0.157  0.00  0.00    +0.049 A 
ATOM     16  N   UNL     1      -0.075   1.086  -0.081  0.00  0.00    -0.331 N 
ATOM     17  H   UNL     1      -0.833   2.188  -3.155  0.00  0.00    +0.152 HD
ATOM     18  H   UNL     1      -0.153   0.119  -0.087  0.00  0.00    +0.147 HD
ENDROOT
BRANCH   1  22
ATOM     19  C   UNL     1       1.314   4.297   3.397  0.00  0.00    +0.165 A 
ATOM     20  C   UNL     1       1.190   4.821   2.119  0.00  0.00    +0.050 A 
ATOM     21  C   UNL     1       1.165   3.979   1.024  0.00  0.00    +0.013 A 
ATOM     22  C   UNL     1       1.263   2.611   1.197  0.00  0.00    +0.023 A 
ATOM     23  C   UNL     1       1.382   2.078   2.472  0.00  0.00    +0.170 A 
ATOM     24  C   UNL     1       1.413   2.922   3.576  0.00  0.00    +0.204 A 
BRANCH  19  26
ATOM     25  C   UNL     1       1.233   6.529   4.216  0.00  0.00    +0.277 C 
ATOM     26  O   UNL     1       1.339   5.127   4.474  0.00  0.00    -0.491 OA
ENDBRANCH  19  26
BRANCH  24  27
ATOM     27  O   UNL     1       1.534   2.404   4.828  0.00  0.00    -0.488 OA
ATOM     28  C   UNL     1       0.325   2.077   5.515  0.00  0.00    +0.277 C 
ENDBRANCH  24  27
BRANCH  23  29
ATOM     29  O   UNL     1       1.472   0.732   2.642  0.00  0.00    -0.491 OA
ATOM     30  C   UNL     1       2.785   0.178   2.747  0.00  0.00    +0.277 C 
ENDBRANCH  23  29
ENDBRANCH   1  22
BRANCH   5  31
ATOM     31  C   UNL     1       2.998   5.366  -4.106  0.00  0.00    -0.006 A 
ATOM     32  C   UNL     1       3.040   6.709  -4.287  0.00  0.00    +0.011 A 
ATOM     33  C   UNL     1       3.583   7.211  -5.455  0.00  0.00    +0.008 A 
ATOM     34  C   UNL     1       4.056   6.346  -6.385  0.00  0.00    +0.045 A 
ATOM     35  S   UNL     1       3.745   4.767  -5.612  0.00  0.00    -0.101 S 
ENDBRANCH   5  31
TORSDOF 5
