REMARK  Name = ZINC12776056
REMARK  11 active torsions:
REMARK  status: ('A' for Active; 'I' for Inactive)
REMARK    1  A    between atoms: C_1  and  C_2
REMARK    2  A    between atoms: C_2  and  C_3
REMARK    3  A    between atoms: C_3  and  C_4
REMARK    4  A    between atoms: C_8  and  S_10
REMARK    5  A    between atoms: S_10  and  C_11
REMARK    6  A    between atoms: C_11  and  C_12
REMARK    7  A    between atoms: C_13  and  C_24
REMARK    8  A    between atoms: C_14  and  C_19
REMARK    9  A    between atoms: C_24  and  O_26
REMARK   10  A    between atoms: O_26  and  C_27
REMARK   11  A    between atoms: C_27  and  C_28
REMARK                            x       y       z     vdW  Elec       q    Type
REMARK                         _______ _______ _______ _____ _____    ______ ____
ROOT
ATOM      1  C   UNL     1      -0.941  -3.895  -5.409  0.00  0.00    +0.034 C 
ATOM      2  C   UNL     1      -2.068  -4.119  -6.120  0.00  0.00    +0.079 C 
ATOM      3  C   UNL     1      -1.937  -4.869  -7.430  0.00  0.00    +0.150 C 
ATOM      4  N   UNL     1      -0.584  -5.294  -7.824  0.00  0.00    -0.288 N 
ATOM      5  C   UNL     1       0.446  -4.995  -7.006  0.00  0.00    +0.304 C 
ATOM      6  O   UNL     1       1.567  -5.342  -7.322  0.00  0.00    -0.252 OA
ATOM      7  N   UNL     1       0.274  -4.324  -5.860  0.00  0.00    -0.272 N 
ATOM      8  H   UNL     1      -0.436  -5.778  -8.651  0.00  0.00    +0.151 HD
ATOM      9  H   UNL     1       1.056  -4.136  -5.318  0.00  0.00    +0.156 HD
ENDROOT
BRANCH   3  10
ATOM     10  C   UNL     1      -2.805  -6.098  -7.350  0.00  0.00    +0.015 A 
ATOM     11  C   UNL     1      -4.042  -6.305  -7.866  0.00  0.00    +0.013 A 
ATOM     12  C   UNL     1      -4.655  -7.528  -7.666  0.00  0.00    +0.008 A 
ATOM     13  C   UNL     1      -4.003  -8.483  -6.960  0.00  0.00    +0.045 A 
ATOM     14  S   UNL     1      -2.469  -7.663  -6.558  0.00  0.00    -0.099 S 
ENDBRANCH   3  10
BRANCH   2  15
ATOM     15  C   UNL     1      -3.326  -3.670  -5.656  0.00  0.00    +0.339 C 
ATOM     16  O   UNL     1      -3.824  -2.664  -6.125  0.00  0.00    -0.245 OA
BRANCH  15  17
ATOM     17  O   UNL     1      -3.975  -4.358  -4.693  0.00  0.00    -0.462 OA
BRANCH  17  18
ATOM     18  C   UNL     1      -5.242  -3.847  -4.273  0.00  0.00    +0.229 C 
ATOM     19  C   UNL     1      -5.821  -4.752  -3.183  0.00  0.00    +0.048 C 
ENDBRANCH  17  18
ENDBRANCH  15  17
ENDBRANCH   2  15
BRANCH   1  20
ATOM     20  C   UNL     1      -1.026  -3.153  -4.100  0.00  0.00    +0.128 C 
BRANCH  20  21
ATOM     21  S   UNL     1      -0.851  -4.326  -2.728  0.00  0.00    -0.082 S 
BRANCH  21  26
ATOM     22  C   UNL     1      -1.242  -1.220  -0.358  0.00  0.00    +0.049 A 
ATOM     23  C   UNL     1      -1.156  -1.743   0.901  0.00  0.00    +0.093 A 
ATOM     24  C   UNL     1      -0.967  -3.128   1.051  0.00  0.00    +0.252 A 
ATOM     25  N   UNL     1      -0.877  -3.894  -0.057  0.00  0.00    -0.302 N 
ATOM     26  C   UNL     1      -0.970  -3.318  -1.288  0.00  0.00    +0.170 A 
ATOM     27  N   UNL     1      -1.153  -2.018  -1.419  0.00  0.00    -0.228 NA
ATOM     28  O   UNL     1      -0.885  -3.627   2.161  0.00  0.00    -0.268 OA
ATOM     29  H   UNL     1      -0.746  -4.852   0.023  0.00  0.00    +0.171 HD
BRANCH  22  30
ATOM     30  C   UNL     1      -1.444   0.261  -0.545  0.00  0.00    +0.055 C 
BRANCH  30  32
ATOM     31  C   UNL     1      -0.294   2.443  -0.941  0.00  0.00    +0.004 C 
ATOM     32  C   UNL     1      -0.088   0.939  -0.750  0.00  0.00    +0.003 C 
ENDBRANCH  30  32
ENDBRANCH  22  30
ENDBRANCH  21  26
ENDBRANCH  20  21
ENDBRANCH   1  20
TORSDOF 9
