REMARK  Name = ZINC15773170
REMARK  11 active torsions:
REMARK  status: ('A' for Active; 'I' for Inactive)
REMARK    1  A    between atoms: C_1  and  C_2
REMARK    2  A    between atoms: C_2  and  O_3
REMARK    3  A    between atoms: O_3  and  C_4
REMARK    4  A    between atoms: C_4  and  C_5
REMARK    5  A    between atoms: C_4  and  C_14
REMARK    6  A    between atoms: C_4  and  N_29
REMARK    7  A    between atoms: C_6  and  C_7
REMARK    8  A    between atoms: C_7  and  O_13
REMARK    9  A    between atoms: C_14  and  C_16
REMARK   10  A    between atoms: C_14  and  N_22
REMARK   11  A    between atoms: N_22  and  C_23
REMARK                            x       y       z     vdW  Elec       q    Type
REMARK                         _______ _______ _______ _____ _____    ______ ____
ROOT
ATOM      1  C   UNL     1      -0.876   5.576   1.215  0.00  0.00    +0.250 C 
ENDROOT
BRANCH   1   2
ATOM      2  N   UNL     1      -1.593   6.066   2.395  0.00  0.00    -0.199 N 
ATOM      3  C   UNL     1      -1.208   5.929   3.708  0.00  0.00    +0.093 A 
ATOM      4  C   UNL     1      -0.111   5.350   4.337  0.00  0.00    +0.030 A 
ATOM      5  C   UNL     1      -0.012   5.387   5.700  0.00  0.00    +0.002 A 
ATOM      6  C   UNL     1      -0.996   6.002   6.463  0.00  0.00    +0.002 A 
ATOM      7  C   UNL     1      -2.079   6.582   5.870  0.00  0.00    +0.032 A 
ATOM      8  C   UNL     1      -2.204   6.558   4.474  0.00  0.00    +0.113 A 
ATOM      9  N   UNL     1      -3.135   7.034   3.623  0.00  0.00    -0.129 NA
ATOM     10  N   UNL     1      -2.809   6.764   2.408  0.00  0.00    -0.061 NA
ENDBRANCH   1   2
BRANCH   1  11
ATOM     11  C   UNL     1      -0.840   4.105   1.240  0.00  0.00    -0.038 C 
ATOM     12  C   UNL     1      -0.811   2.931   1.260  0.00  0.00    -0.063 C 
BRANCH  12  13
ATOM     13  C   UNL     1      -0.774   1.460   1.284  0.00  0.00    +0.127 C 
ATOM     14  C   UNL     1      -0.026   0.947   0.052  0.00  0.00    +0.048 C 
ATOM     15  C   UNL     1      -0.745   1.419  -1.214  0.00  0.00    +0.004 C 
ATOM     16  C   UNL     1      -2.175   0.873  -1.222  0.00  0.00    +0.000 C 
ATOM     17  C   UNL     1      -2.923   1.385   0.011  0.00  0.00    +0.004 C 
ATOM     18  C   UNL     1      -2.204   0.914   1.276  0.00  0.00    +0.048 C 
BRANCH  13  19
ATOM     19  O   UNL     1      -0.103   1.020   2.466  0.00  0.00    -0.377 OA
ATOM     20  H   UNL     1      -0.523   1.308   3.288  0.00  0.00    +0.211 HD
ENDBRANCH  13  19
ENDBRANCH  12  13
ENDBRANCH   1  11
BRANCH   1  21
ATOM     21  O   UNL     1       0.459   6.086   1.222  0.00  0.00    -0.341 OA
BRANCH  21  23
ATOM     22  C   UNL     1       2.720   6.061   0.370  0.00  0.00    +0.034 C 
ATOM     23  C   UNL     1       1.285   5.566   0.179  0.00  0.00    +0.160 C 
ENDBRANCH  21  23
ENDBRANCH   1  21
BRANCH   1  24
ATOM     24  C   UNL     1      -1.595   6.047  -0.051  0.00  0.00    +0.169 C 
BRANCH  24  25
ATOM     25  C   UNL     1      -3.035   5.605  -0.004  0.00  0.00    -0.022 A 
ATOM     26  C   UNL     1      -3.387   4.349  -0.461  0.00  0.00    +0.005 A 
ATOM     27  C   UNL     1      -4.708   3.942  -0.414  0.00  0.00    +0.000 A 
ATOM     28  C   UNL     1      -5.677   4.795   0.080  0.00  0.00    +0.000 A 
ATOM     29  C   UNL     1      -5.325   6.053   0.531  0.00  0.00    +0.000 A 
ATOM     30  C   UNL     1      -4.005   6.458   0.489  0.00  0.00    +0.005 A 
ENDBRANCH  24  25
BRANCH  24  31
ATOM     31  N   UNL     1      -0.944   5.466  -1.227  0.00  0.00    -0.332 N 
ATOM     32  H   UNL     1      -0.445   4.638  -1.146  0.00  0.00    +0.147 HD
BRANCH  31  33
ATOM     33  C   UNL     1      -1.040   6.106  -2.465  0.00  0.00    +0.028 A 
ATOM     34  C   UNL     1      -1.758   7.289  -2.584  0.00  0.00    +0.023 A 
ATOM     35  C   UNL     1      -1.847   7.921  -3.809  0.00  0.00    +0.002 A 
ATOM     36  C   UNL     1      -1.231   7.371  -4.918  0.00  0.00    +0.000 A 
ATOM     37  C   UNL     1      -0.520   6.191  -4.805  0.00  0.00    +0.002 A 
ATOM     38  C   UNL     1      -0.423   5.556  -3.582  0.00  0.00    +0.023 A 
ENDBRANCH  31  33
ENDBRANCH  24  31
ENDBRANCH   1  24
TORSDOF 10
