REMARK  Name = ZINC13395377
REMARK  8 active torsions:
REMARK  status: ('A' for Active; 'I' for Inactive)
REMARK    1  A    between atoms: C_3  and  C_8
REMARK    2  A    between atoms: C_9  and  C_10
REMARK    3  A    between atoms: N_12  and  C_13
REMARK    4  A    between atoms: C_16  and  S_19
REMARK    5  A    between atoms: S_19  and  N_22
REMARK    6  A    between atoms: N_22  and  C_23
REMARK    7  A    between atoms: C_23  and  C_24
REMARK    8  A    between atoms: C_24  and  C_25
REMARK                            x       y       z     vdW  Elec       q    Type
REMARK                         _______ _______ _______ _____ _____    ______ ____
ROOT
ATOM      1  C   UNL     1      -1.755   4.049  -3.886  0.00  0.00    +0.034 A 
ATOM      2  C   UNL     1      -2.081   2.700  -3.836  0.00  0.00    +0.025 A 
ATOM      3  C   UNL     1      -1.994   2.014  -2.640  0.00  0.00    +0.030 A 
ATOM      4  C   UNL     1      -1.582   2.669  -1.494  0.00  0.00    +0.105 A 
ATOM      5  C   UNL     1      -1.261   4.013  -1.540  0.00  0.00    +0.030 A 
ATOM      6  C   UNL     1      -1.342   4.704  -2.733  0.00  0.00    +0.025 A 
ENDROOT
BRANCH   1   9
ATOM      7  C   UNL     1      -0.976   5.743  -5.362  0.00  0.00    +0.241 C 
ATOM      8  O   UNL     1      -0.058   5.974  -4.596  0.00  0.00    -0.270 OA
ATOM      9  N   UNL     1      -1.843   4.746  -5.095  0.00  0.00    -0.282 N 
ATOM     10  H   UNL     1      -2.527   4.513  -5.741  0.00  0.00    +0.155 HD
BRANCH   7  12
ATOM     11  C   UNL     1      -0.271   7.546  -6.841  0.00  0.00    +0.013 C 
ATOM     12  C   UNL     1      -1.138   6.549  -6.573  0.00  0.00    +0.068 C 
BRANCH  11  15
ATOM     13  C   UNL     1       0.304  10.147  -9.483  0.00  0.00    +0.002 A 
ATOM     14  C   UNL     1       0.463   9.392  -8.339  0.00  0.00    +0.008 A 
ATOM     15  C   UNL     1      -0.434   8.357  -8.059  0.00  0.00    -0.024 A 
ATOM     16  C   UNL     1      -1.484   8.091  -8.944  0.00  0.00    +0.023 A 
ATOM     17  C   UNL     1      -1.633   8.858 -10.081  0.00  0.00    +0.018 A 
ATOM     18  C   UNL     1      -0.739   9.882 -10.352  0.00  0.00    +0.015 A 
ATOM     19 BR   UNL     1      -3.055   8.506 -11.277  0.00  0.00    -0.050 Br
ENDBRANCH  11  15
ENDBRANCH   7  12
ENDBRANCH   1   9
BRANCH   4  20
ATOM     20  S   UNL     1      -1.472   1.790   0.029  0.00  0.00    +0.058 S 
ATOM     21  O   UNL     1      -2.353   0.680  -0.078  0.00  0.00    -0.153 OA
ATOM     22  O   UNL     1      -1.586   2.757   1.065  0.00  0.00    -0.153 OA
BRANCH  20  23
ATOM     23  N   UNL     1       0.061   1.170   0.127  0.00  0.00    -0.189 NA
ATOM     24  H   UNL     1       0.197   0.210   0.121  0.00  0.00    +0.148 HD
BRANCH  23  25
ATOM     25  C   UNL     1       1.212   2.072   0.216  0.00  0.00    +0.117 C 
BRANCH  25  26
ATOM     26  C   UNL     1       2.445   1.283   0.659  0.00  0.00    +0.142 C 
BRANCH  26  27
ATOM     27  C   UNL     1       3.629   2.211   0.751  0.00  0.00    +0.357 C 
ATOM     28  O   UNL     1       3.499   3.384   0.489  0.00  0.00    -0.246 OA
ATOM     29  O   UNL     1       4.827   1.735   1.124  0.00  0.00    -0.246 OA
ENDBRANCH  26  27
ENDBRANCH  25  26
ENDBRANCH  23  25
ENDBRANCH  20  23
ENDBRANCH   4  20
TORSDOF 8
