REMARK  Name = ZINC67222153
REMARK  6 active torsions:
REMARK  status: ('A' for Active; 'I' for Inactive)
REMARK    1  A    between atoms: C_3  and  N_23
REMARK    2  A    between atoms: C_6  and  C_7
REMARK    3  A    between atoms: C_7  and  N_8
REMARK    4  A    between atoms: N_8  and  C_9
REMARK    5  A    between atoms: C_9  and  C_10
REMARK    6  A    between atoms: C_15  and  C_16
REMARK                            x       y       z     vdW  Elec       q    Type
REMARK                         _______ _______ _______ _____ _____    ______ ____
ROOT
ATOM      1  N   UNL     1      -1.295  -1.049  -1.653  0.00  0.00    +0.384 N 
ATOM      2  H   UNL     1      -1.292  -0.207  -2.210  0.00  0.00    -0.085 HD
ATOM      3  H   UNL     1      -0.720  -1.749  -2.098  0.00  0.00    -0.085 HD
ENDROOT
BRANCH   1   4
ATOM      4  C   UNL     1      -0.761  -0.753  -0.317  0.00  0.00    -0.046 C 
BRANCH   4  10
ATOM      5  C   UNL     1       0.880   1.117  -0.582  0.00  0.00    +0.003 A 
ATOM      6  C   UNL     1       2.172   1.592  -0.697  0.00  0.00    +0.023 A 
ATOM      7  C   UNL     1       3.241   0.705  -0.672  0.00  0.00    +0.030 A 
ATOM      8  C   UNL     1       3.006  -0.657  -0.532  0.00  0.00    +0.023 A 
ATOM      9  C   UNL     1       1.712  -1.125  -0.418  0.00  0.00    +0.003 A 
ATOM     10  C   UNL     1       0.650  -0.239  -0.443  0.00  0.00    -0.064 A 
BRANCH   7  11
ATOM     11  N   UNL     1       4.549   1.181  -0.789  0.00  0.00    -0.326 N 
ATOM     12  C   UNL     1       5.700   0.276  -0.649  0.00  0.00    +0.133 C 
ATOM     13  C   UNL     1       6.629   0.485  -1.850  0.00  0.00    +0.178 C 
ATOM     14  O   UNL     1       6.928   1.877  -1.977  0.00  0.00    -0.377 OA
ATOM     15  C   UNL     1       5.788   2.699  -2.238  0.00  0.00    +0.178 C 
ATOM     16  C   UNL     1       4.816   2.603  -1.062  0.00  0.00    +0.133 C 
ENDBRANCH   7  11
ENDBRANCH   4  10
ENDBRANCH   1   4
BRANCH   1  17
ATOM     17  C   UNL     1      -2.670  -1.550  -1.531  0.00  0.00    -0.043 C 
BRANCH  17  18
ATOM     18  C   UNL     1      -3.176  -1.966  -2.888  0.00  0.00    -0.019 A 
ATOM     19  C   UNL     1      -4.026  -1.266  -3.669  0.00  0.00    +0.107 A 
ATOM     20  N   UNL     1      -4.233  -1.974  -4.800  0.00  0.00    -0.284 N 
ATOM     21  H   UNL     1      -4.801  -1.711  -5.541  0.00  0.00    +0.188 HD
ATOM     22  N   UNL     1      -3.485  -3.156  -4.718  0.00  0.00    -0.174 NA
ATOM     23  C   UNL     1      -2.841  -3.153  -3.569  0.00  0.00    +0.094 A 
BRANCH  23  24
ATOM     24  C   UNL     1      -1.927  -4.214  -3.078  0.00  0.00    +0.002 A 
ATOM     25  C   UNL     1      -0.993  -4.785  -3.939  0.00  0.00    +0.011 A 
ATOM     26  C   UNL     1      -0.145  -5.772  -3.478  0.00  0.00    +0.020 A 
ATOM     27  C   UNL     1      -0.221  -6.193  -2.162  0.00  0.00    +0.041 A 
ATOM     28  C   UNL     1      -1.148  -5.628  -1.302  0.00  0.00    +0.020 A 
ATOM     29  C   UNL     1      -1.996  -4.637  -1.752  0.00  0.00    +0.011 A 
ATOM     30 CL   UNL     1       0.848  -7.434  -1.587  0.00  0.00    -0.084 Cl
ENDBRANCH  23  24
ENDBRANCH  17  18
ENDBRANCH   1  17
TORSDOF 6
