REMARK  Name = ZINC09289428
REMARK  5 active torsions:
REMARK  status: ('A' for Active; 'I' for Inactive)
REMARK    1  A    between atoms: C_6  and  C_7
REMARK    2  A    between atoms: C_7  and  C_8
REMARK    3  A    between atoms: N_10  and  N_11
REMARK    4  A    between atoms: C_12  and  C_13
REMARK    5  A    between atoms: C_16  and  C_18
REMARK                            x       y       z     vdW  Elec       q    Type
REMARK                         _______ _______ _______ _____ _____    ______ ____
ROOT
ATOM      1  N   UNL     1      -0.966   1.736  -3.578  0.00  0.00    -0.185 NA
ATOM      2  C   UNL     1      -0.528   1.434  -4.766  0.00  0.00    +0.176 C 
ENDROOT
BRANCH   2   3
ATOM      3  C   UNL     1      -1.236   1.919  -5.952  0.00  0.00    +0.148 A 
ATOM      4  C   UNL     1      -0.880   1.680  -7.261  0.00  0.00    +0.051 A 
ATOM      5  C   UNL     1      -1.831   2.325  -8.064  0.00  0.00    +0.050 A 
ATOM      6  C   UNL     1      -2.716   2.934  -7.224  0.00  0.00    +0.137 A 
ATOM      7  O   UNL     1      -2.348   2.683  -5.954  0.00  0.00    -0.454 OA
BRANCH   6   8
ATOM      8  C   UNL     1      -3.883   3.737  -7.640  0.00  0.00    +0.037 A 
ATOM      9  C   UNL     1      -5.142   3.480  -7.092  0.00  0.00    +0.034 A 
ATOM     10  C   UNL     1      -6.229   4.234  -7.484  0.00  0.00    +0.060 A 
ATOM     11  C   UNL     1      -6.074   5.245  -8.420  0.00  0.00    +0.061 A 
ATOM     12  C   UNL     1      -4.829   5.505  -8.967  0.00  0.00    +0.042 A 
ATOM     13  C   UNL     1      -3.732   4.760  -8.580  0.00  0.00    +0.053 A 
ATOM     14 CL   UNL     1      -2.171   5.092  -9.262  0.00  0.00    -0.083 Cl
ATOM     15 CL   UNL     1      -7.446   6.189  -8.908  0.00  0.00    -0.082 Cl
ATOM     16 CL   UNL     1      -7.794   3.917  -6.803  0.00  0.00    -0.082 Cl
ENDBRANCH   6   8
ENDBRANCH   2   3
BRANCH   1  19
ATOM     17  C   UNL     1      -0.742   1.585  -1.213  0.00  0.00    +0.237 C 
ATOM     18  O   UNL     1      -1.736   2.268  -1.088  0.00  0.00    -0.274 OA
ATOM     19  N   UNL     1      -0.288   1.272  -2.443  0.00  0.00    -0.207 N 
ATOM     20  H   UNL     1       0.507   0.726  -2.543  0.00  0.00    +0.177 HD
BRANCH  17  21
ATOM     21  C   UNL     1      -0.013   1.086   0.008  0.00  0.00    +0.132 C 
BRANCH  21  27
ATOM     22  C   UNL     1      -0.360   2.779   1.819  0.00  0.00    +0.005 A 
ATOM     23  C   UNL     1      -1.010   3.227   2.953  0.00  0.00    +0.015 A 
ATOM     24  C   UNL     1      -2.012   2.463   3.523  0.00  0.00    +0.018 A 
ATOM     25  C   UNL     1      -2.366   1.253   2.955  0.00  0.00    +0.015 A 
ATOM     26  C   UNL     1      -1.719   0.808   1.818  0.00  0.00    +0.005 A 
ATOM     27  C   UNL     1      -0.718   1.572   1.248  0.00  0.00    -0.039 A 
ATOM     28 BR   UNL     1      -2.897   3.073   5.079  0.00  0.00    -0.050 Br
ENDBRANCH  21  27
ENDBRANCH  17  21
ENDBRANCH   1  19
TORSDOF 5
