REMARK  Name = ZINC16677553
REMARK  12 active torsions:
REMARK  status: ('A' for Active; 'I' for Inactive)
REMARK    1  A    between atoms: C_1  and  C_2
REMARK    2  A    between atoms: C_2  and  C_24
REMARK    3  A    between atoms: N_3  and  N_4
REMARK    4  A    between atoms: C_5  and  S_7
REMARK    5  A    between atoms: S_7  and  C_8
REMARK    6  A    between atoms: N_13  and  C_16
REMARK    7  A    between atoms: C_21  and  O_22
REMARK    8  A    between atoms: O_22  and  C_23
REMARK    9  A    between atoms: C_25  and  C_26
REMARK   10  A    between atoms: C_29  and  N_32
REMARK   11  A    between atoms: N_32  and  C_33
REMARK   12  A    between atoms: N_32  and  C_34
REMARK                            x       y       z     vdW  Elec       q    Type
REMARK                         _______ _______ _______ _____ _____    ______ ____
ROOT
ATOM      1  N   UNL     1       0.032   0.033   2.343  0.00  0.00    -0.217 N 
ATOM      2  C   UNL     1       0.039  -0.661   3.531  0.00  0.00    +0.146 C 
ATOM      3  N   UNL     1       0.042  -1.966   3.525  0.00  0.00    -0.380 N 
ATOM      4  H   UNL     1       0.030   1.003   2.348  0.00  0.00    +0.176 HD
ATOM      5  H   UNL     1       0.046  -2.455   4.362  0.00  0.00    +0.158 HD
ATOM      6  H   UNL     1       0.040  -2.446   2.682  0.00  0.00    +0.158 HD
ENDROOT
BRANCH   1   9
ATOM      7  C   UNL     1       0.019   1.504   0.010  0.00  0.00    +0.067 C 
ATOM      8  C   UNL     1       0.023  -0.003   0.002  0.00  0.00    +0.056 C 
ATOM      9  N   UNL     1       0.029  -0.661   1.126  0.00  0.00    -0.186 NA
BRANCH   8  10
ATOM     10  C   UNL     1       0.020  -0.706  -1.230  0.00  0.00    +0.025 C 
ATOM     11  C   UNL     1       0.023  -2.055  -1.237  0.00  0.00    +0.010 C 
BRANCH  11  12
ATOM     12  C   UNL     1       0.019  -2.784  -2.515  0.00  0.00    -0.025 A 
ATOM     13  C   UNL     1       0.019  -2.080  -3.724  0.00  0.00    +0.010 A 
ATOM     14  C   UNL     1       0.016  -2.766  -4.918  0.00  0.00    +0.023 A 
ATOM     15  C   UNL     1       0.014  -4.157  -4.923  0.00  0.00    +0.029 A 
ATOM     16  C   UNL     1       0.015  -4.861  -3.724  0.00  0.00    +0.023 A 
ATOM     17  C   UNL     1       0.023  -4.183  -2.525  0.00  0.00    +0.010 A 
BRANCH  15  18
ATOM     18  N   UNL     1       0.011  -4.848  -6.135  0.00  0.00    -0.336 N 
ATOM     19  C   UNL     1      -0.117  -4.114  -7.396  0.00  0.00    +0.129 C 
ATOM     20  C   UNL     1       0.136  -6.308  -6.146  0.00  0.00    +0.129 C 
ENDBRANCH  15  18
ENDBRANCH  11  12
ENDBRANCH   8  10
ENDBRANCH   1   9
BRANCH   2  21
ATOM     21  S   UNL     1       0.043   0.211   5.062  0.00  0.00    -0.078 S 
BRANCH  21  22
ATOM     22  C   UNL     1       0.051  -1.100   6.315  0.00  0.00    +0.149 C 
ATOM     23  C   UNL     1       0.127  -0.496   7.732  0.00  0.00    +0.120 C 
ATOM     24  C   UNL     1      -1.156  -0.962   8.386  0.00  0.00    +0.228 C 
ATOM     25  O   UNL     1      -1.499  -0.707   9.520  0.00  0.00    -0.275 OA
ATOM     26  N   UNL     1      -1.852  -1.700   7.512  0.00  0.00    -0.206 N 
ATOM     27  C   UNL     1      -1.265  -1.846   6.314  0.00  0.00    +0.240 C 
ATOM     28  O   UNL     1      -1.716  -2.473   5.379  0.00  0.00    -0.274 OA
BRANCH  26  29
ATOM     29  C   UNL     1      -3.093  -2.277   7.825  0.00  0.00    +0.085 A 
ATOM     30  C   UNL     1      -4.265  -1.577   7.583  0.00  0.00    +0.027 A 
ATOM     31  C   UNL     1      -5.486  -2.147   7.891  0.00  0.00    +0.002 A 
ATOM     32  C   UNL     1      -5.542  -3.415   8.441  0.00  0.00    +0.004 A 
ATOM     33  C   UNL     1      -4.377  -4.119   8.684  0.00  0.00    +0.047 A 
ATOM     34  C   UNL     1      -3.150  -3.556   8.373  0.00  0.00    +0.142 A 
BRANCH  34  35
ATOM     35  O   UNL     1      -2.004  -4.249   8.607  0.00  0.00    -0.493 OA
ATOM     36  C   UNL     1      -2.139  -5.555   9.171  0.00  0.00    +0.277 C 
ENDBRANCH  34  35
ENDBRANCH  26  29
ENDBRANCH  21  22
ENDBRANCH   2  21
TORSDOF 8
