REMARK  Name = ZINC01107456
REMARK  6 active torsions:
REMARK  status: ('A' for Active; 'I' for Inactive)
REMARK    1  A    between atoms: C_1  and  C_2
REMARK    2  A    between atoms: C_4  and  C_17
REMARK    3  A    between atoms: C_5  and  C_10
REMARK    4  A    between atoms: C_17  and  O_19
REMARK    5  A    between atoms: O_19  and  C_20
REMARK    6  A    between atoms: C_20  and  C_21
REMARK                            x       y       z     vdW  Elec       q    Type
REMARK                         _______ _______ _______ _____ _____    ______ ____
ROOT
ATOM      1  C   UNL     1       3.500   1.908  -0.137  0.00  0.00    +0.033 C 
ATOM      2  C   UNL     1       2.294   1.311   0.592  0.00  0.00    +0.110 C 
ATOM      3  C   UNL     1       2.293  -0.184   0.346  0.00  0.00    +0.078 C 
ATOM      4  C   UNL     1       1.187  -0.728  -0.242  0.00  0.00    +0.054 C 
ATOM      5  N   UNL     1       0.119   0.062  -0.596  0.00  0.00    -0.268 N 
ATOM      6  C   UNL     1       0.080   1.385  -0.397  0.00  0.00    +0.304 C 
ATOM      7  O   UNL     1      -0.907   2.002  -0.748  0.00  0.00    -0.252 OA
ATOM      8  N   UNL     1       1.097   2.059   0.174  0.00  0.00    -0.292 N 
ATOM      9  H   UNL     1      -0.648  -0.362  -1.012  0.00  0.00    +0.156 HD
ATOM     10  H   UNL     1       1.042   3.018   0.306  0.00  0.00    +0.151 HD
ENDROOT
BRANCH   4  11
ATOM     11  C   UNL     1       1.138  -2.180  -0.503  0.00  0.00    -0.003 A 
ATOM     12  C   UNL     1       2.040  -2.763  -1.397  0.00  0.00    +0.011 A 
ATOM     13  C   UNL     1       1.993  -4.121  -1.632  0.00  0.00    +0.020 A 
ATOM     14  C   UNL     1       1.047  -4.905  -0.991  0.00  0.00    +0.041 A 
ATOM     15  C   UNL     1       0.147  -4.332  -0.108  0.00  0.00    +0.020 A 
ATOM     16  C   UNL     1       0.187  -2.977   0.140  0.00  0.00    +0.011 A 
ATOM     17 CL   UNL     1       0.990  -6.613  -1.298  0.00  0.00    -0.084 Cl
ENDBRANCH   4  11
BRANCH   3  18
ATOM     18  C   UNL     1       3.393  -0.984   0.712  0.00  0.00    +0.339 C 
ATOM     19  O   UNL     1       3.327  -2.195   0.605  0.00  0.00    -0.245 OA
BRANCH  18  20
ATOM     20  O   UNL     1       4.521  -0.408   1.181  0.00  0.00    -0.457 OA
BRANCH  20  21
ATOM     21  C   UNL     1       5.596  -1.280   1.533  0.00  0.00    +0.268 C 
BRANCH  21  22
ATOM     22  C   UNL     1       6.761  -0.465   2.032  0.00  0.00    -0.010 A 
ATOM     23  C   UNL     1       7.724  -0.021   1.146  0.00  0.00    +0.007 A 
ATOM     24  C   UNL     1       8.790   0.732   1.603  0.00  0.00    +0.000 A 
ATOM     25  C   UNL     1       8.898   1.031   2.948  0.00  0.00    +0.000 A 
ATOM     26  C   UNL     1       7.938   0.582   3.836  0.00  0.00    +0.000 A 
ATOM     27  C   UNL     1       6.870  -0.166   3.377  0.00  0.00    +0.007 A 
ENDBRANCH  21  22
ENDBRANCH  20  21
ENDBRANCH  18  20
ENDBRANCH   3  18
TORSDOF 5
