REMARK  Name = ZINC23398425
REMARK  5 active torsions:
REMARK  status: ('A' for Active; 'I' for Inactive)
REMARK    1  A    between atoms: N_7  and  C_11
REMARK    2  A    between atoms: C_11  and  C_12
REMARK    3  A    between atoms: C_12  and  N_13
REMARK    4  A    between atoms: C_17  and  C_19
REMARK    5  A    between atoms: C_22  and  C_24
REMARK                            x       y       z     vdW  Elec       q    Type
REMARK                         _______ _______ _______ _____ _____    ______ ____
ROOT
ATOM      1  N   UNL     1      -0.065   1.119  -2.440  0.00  0.00    +0.386 N 
ATOM      2  C   UNL     1       1.191   1.878  -2.670  0.00  0.00    -0.078 C 
ATOM      3  C   UNL     1       1.498   1.678  -4.170  0.00  0.00    -0.020 C 
ATOM      4  C   UNL     1       0.136   1.353  -4.817  0.00  0.00    -0.012 C 
ATOM      5  C   UNL     1      -0.879   1.384  -3.654  0.00  0.00    -0.031 C 
ATOM      6  H   UNL     1       0.110   0.046  -2.272  0.00  0.00    -0.081 HD
ENDROOT
BRANCH   5   7
ATOM      7  C   UNL     1      -1.919   0.309  -3.835  0.00  0.00    -0.023 A 
ATOM      8  C   UNL     1      -3.211   0.443  -4.236  0.00  0.00    +0.010 A 
ATOM      9  C   UNL     1      -4.000  -0.676  -4.338  0.00  0.00    +0.021 A 
ATOM     10  C   UNL     1      -3.416  -1.892  -4.019  0.00  0.00    +0.074 A 
ATOM     11  S   UNL     1      -1.756  -1.399  -3.590  0.00  0.00    -0.090 S 
BRANCH  10  12
ATOM     12  C   UNL     1      -4.007  -3.233  -4.035  0.00  0.00    +0.248 C 
ATOM     13  O   UNL     1      -5.169  -3.382  -4.363  0.00  0.00    -0.270 OA
ATOM     14  N   UNL     1      -3.263  -4.301  -3.686  0.00  0.00    -0.325 N 
ATOM     15  H   UNL     1      -3.707  -5.308  -3.698  0.00  0.00    +0.145 HD
ATOM     16  H   UNL     1      -2.212  -4.167  -3.389  0.00  0.00    +0.145 HD
ENDBRANCH  10  12
ENDBRANCH   5   7
BRANCH   1  17
ATOM     17  C   UNL     1      -0.753   1.593  -1.232  0.00  0.00    -0.056 C 
BRANCH  17  18
ATOM     18  C   UNL     1      -0.013   1.086   0.008  0.00  0.00    +0.110 C 
BRANCH  18  25
ATOM     19  C   UNL     1      -3.374  -0.702   2.558  0.00  0.00    +0.002 A 
ATOM     20  C   UNL     1      -3.721   0.100   3.631  0.00  0.00    +0.004 A 
ATOM     21  C   UNL     1      -3.073   1.302   3.841  0.00  0.00    +0.048 A 
ATOM     22  C   UNL     1      -2.070   1.707   2.974  0.00  0.00    +0.157 A 
ATOM     23  C   UNL     1      -1.721   0.897   1.893  0.00  0.00    +0.090 A 
ATOM     24  C   UNL     1      -2.376  -0.307   1.689  0.00  0.00    +0.030 A 
ATOM     25  N   UNL     1      -0.698   1.558   1.213  0.00  0.00    -0.276 N 
ATOM     26  C   UNL     1      -0.452   2.708   1.871  0.00  0.00    +0.421 A 
ATOM     27  O   UNL     1       0.385   3.532   1.556  0.00  0.00    -0.223 OA
ATOM     28  O   UNL     1      -1.276   2.805   2.926  0.00  0.00    -0.407 OA
ENDBRANCH  18  25
ENDBRANCH  17  18
ENDBRANCH   1  17
TORSDOF 5
