REMARK  Name = ZINC66200124
REMARK  14 active torsions:
REMARK  status: ('A' for Active; 'I' for Inactive)
REMARK    1  A    between atoms: C_1  and  C_2
REMARK    2  A    between atoms: C_2  and  C_4
REMARK    3  A    between atoms: C_2  and  C_14
REMARK    4  A    between atoms: C_7  and  C_10
REMARK    5  A    between atoms: C_10  and  C_11
REMARK    6  A    between atoms: C_11  and  C_12
REMARK    7  A    between atoms: C_11  and  C_13
REMARK    8  A    between atoms: N_16  and  C_17
REMARK    9  A    between atoms: C_17  and  N_19
REMARK   10  A    between atoms: N_19  and  C_20
REMARK   11  A    between atoms: N_19  and  C_25
REMARK   12  A    between atoms: C_20  and  C_21
REMARK   13  A    between atoms: C_21  and  C_22
REMARK   14  A    between atoms: C_25  and  C_26
REMARK                            x       y       z     vdW  Elec       q    Type
REMARK                         _______ _______ _______ _____ _____    ______ ____
ROOT
ATOM      1  C   UNL     1       2.622  -0.580  -2.570  0.00  0.00    +0.139 C 
ATOM      2  S   UNL     1       1.793  -1.570  -3.695  0.00  0.00    -0.018 S 
ENDROOT
BRANCH   1   5
ATOM      3  C   UNL     1       0.707  -0.490  -1.238  0.00  0.00    +0.226 C 
ATOM      4  O   UNL     1       0.120  -1.191  -2.034  0.00  0.00    -0.275 OA
ATOM      5  N   UNL     1       1.991  -0.146  -1.462  0.00  0.00    -0.267 N 
ATOM      6  H   UNL     1       2.461   0.415  -0.825  0.00  0.00    +0.157 HD
BRANCH   3   8
ATOM      7  C   UNL     1      -0.019   1.526   0.010  0.00  0.00    +0.022 C 
ATOM      8  C   UNL     1       0.002  -0.004   0.002  0.00  0.00    +0.102 C 
BRANCH   8   9
ATOM      9  C   UNL     1      -1.412  -0.526   0.013  0.00  0.00    -0.036 A 
ATOM     10  C   UNL     1      -2.276  -0.202  -1.017  0.00  0.00    +0.004 A 
ATOM     11  C   UNL     1      -3.572  -0.681  -1.007  0.00  0.00    +0.004 A 
ATOM     12  C   UNL     1      -4.005  -1.483   0.032  0.00  0.00    -0.047 A 
ATOM     13  C   UNL     1      -3.141  -1.807   1.061  0.00  0.00    +0.004 A 
ATOM     14  C   UNL     1      -1.843  -1.332   1.049  0.00  0.00    +0.004 A 
BRANCH  12  15
ATOM     15  C   UNL     1      -5.419  -2.004   0.043  0.00  0.00    +0.038 C 
BRANCH  15  16
ATOM     16  C   UNL     1      -5.472  -3.351  -0.680  0.00  0.00    -0.013 C 
ATOM     17  C   UNL     1      -6.880  -3.939  -0.561  0.00  0.00    +0.007 C 
ATOM     18  C   UNL     1      -5.126  -3.152  -2.156  0.00  0.00    +0.007 C 
ENDBRANCH  15  16
ENDBRANCH  12  15
ENDBRANCH   8   9
ENDBRANCH   3   8
ENDBRANCH   1   5
BRANCH   1  19
ATOM     19  N   UNL     1       3.906  -0.236  -2.794  0.00  0.00    -0.308 N 
BRANCH  19  20
ATOM     20  C   UNL     1       4.615   0.611  -1.832  0.00  0.00    +0.116 C 
BRANCH  20  21
ATOM     21  C   UNL     1       5.302  -0.271  -0.786  0.00  0.00    +0.114 C 
BRANCH  21  22
ATOM     22  C   UNL     1       6.032   0.600   0.203  0.00  0.00    +0.212 C 
ATOM     23  O   UNL     1       6.006   1.807   0.084  0.00  0.00    -0.276 OA
ATOM     24  N   UNL     1       6.713   0.038   1.221  0.00  0.00    -0.329 N 
ATOM     25  H   UNL     1       6.734  -0.927   1.317  0.00  0.00    +0.145 HD
ATOM     26  H   UNL     1       7.183   0.599   1.858  0.00  0.00    +0.145 HD
ENDBRANCH  21  22
ENDBRANCH  20  21
ENDBRANCH  19  20
BRANCH  19  27
ATOM     27  C   UNL     1       4.591  -0.709  -3.999  0.00  0.00    +0.141 C 
BRANCH  27  28
ATOM     28  C   UNL     1       4.394   0.288  -5.113  0.00  0.00    -0.030 A 
ATOM     29  C   UNL     1       3.307   0.172  -5.959  0.00  0.00    +0.005 A 
ATOM     30  C   UNL     1       3.126   1.085  -6.981  0.00  0.00    +0.000 A 
ATOM     31  C   UNL     1       4.031   2.115  -7.155  0.00  0.00    +0.000 A 
ATOM     32  C   UNL     1       5.118   2.232  -6.308  0.00  0.00    +0.000 A 
ATOM     33  C   UNL     1       5.296   1.321  -5.284  0.00  0.00    +0.005 A 
ENDBRANCH  27  28
ENDBRANCH  19  27
ENDBRANCH   1  19
TORSDOF 11
