REMARK  Name = ZINC08920817
REMARK  12 active torsions:
REMARK  status: ('A' for Active; 'I' for Inactive)
REMARK    1  A    between atoms: C_1  and  C_2
REMARK    2  A    between atoms: C_2  and  C_3
REMARK    3  A    between atoms: C_3  and  C_4
REMARK    4  A    between atoms: C_3  and  C_5
REMARK    5  A    between atoms: C_3  and  C_6
REMARK    6  A    between atoms: C_15  and  O_36
REMARK    7  A    between atoms: C_17  and  C_20
REMARK    8  A    between atoms: C_23  and  C_25
REMARK    9  A    between atoms: C_28  and  C_31
REMARK   10  A    between atoms: C_31  and  O_33
REMARK   11  A    between atoms: O_33  and  C_34
REMARK   12  A    between atoms: C_34  and  C_35
REMARK                            x       y       z     vdW  Elec       q    Type
REMARK                         _______ _______ _______ _____ _____    ______ ____
ROOT
ATOM      1  C   UNL     1      -3.062  -2.803   1.066  0.00  0.00    -0.000 C 
ATOM      2  C   UNL     1      -3.514  -1.546   0.318  0.00  0.00    +0.009 C 
ATOM      3  C   UNL     1      -2.528  -0.405   0.571  0.00  0.00    +0.037 C 
ATOM      4  C   UNL     1      -1.119  -0.893   0.251  0.00  0.00    -0.023 A 
ATOM      5  C   UNL     1      -0.844  -2.216   0.180  0.00  0.00    -0.004 A 
ATOM      6  S   UNL     1       0.884  -2.301  -0.211  0.00  0.00    -0.078 S 
ATOM      7  C   UNL     1       1.226  -0.626  -0.275  0.00  0.00    +0.080 A 
ATOM      8  C   UNL     1       0.002  -0.004   0.002  0.00  0.00    +0.068 A 
ATOM      9  C   UNL     1      -0.018   1.482   0.010  0.00  0.00    +0.220 C 
ATOM     10  N   UNL     1       1.130   2.103   0.003  0.00  0.00    -0.220 NA
ATOM     11  C   UNL     1       2.430   1.446   0.052  0.00  0.00    +0.260 C 
ATOM     12  N   UNL     1       2.374   0.087  -0.519  0.00  0.00    -0.311 N 
ATOM     13  C   UNL     1      -1.796  -3.351   0.390  0.00  0.00    +0.046 C 
ATOM     14  H   UNL     1       3.107  -0.281  -1.036  0.00  0.00    +0.149 HD
ENDROOT
BRANCH  11  15
ATOM     15  C   UNL     1       2.883   1.359   1.487  0.00  0.00    +0.148 A 
ATOM     16  C   UNL     1       2.537   2.211   2.473  0.00  0.00    +0.049 A 
ATOM     17  C   UNL     1       3.176   1.766   3.646  0.00  0.00    +0.050 A 
ATOM     18  C   UNL     1       3.886   0.654   3.308  0.00  0.00    +0.135 A 
ATOM     19  O   UNL     1       3.692   0.417   1.996  0.00  0.00    -0.456 OA
BRANCH  18  20
ATOM     20  C   UNL     1       4.716  -0.154   4.221  0.00  0.00    +0.017 A 
ATOM     21  C   UNL     1       4.828   0.206   5.567  0.00  0.00    +0.012 A 
ATOM     22  C   UNL     1       5.592  -0.545   6.414  0.00  0.00    +0.015 A 
ATOM     23  C   UNL     1       6.271  -1.669   5.932  0.00  0.00    +0.059 A 
ATOM     24  C   UNL     1       6.163  -2.026   4.583  0.00  0.00    +0.015 A 
ATOM     25  C   UNL     1       5.394  -1.278   3.739  0.00  0.00    +0.012 A 
BRANCH  23  26
ATOM     26  C   UNL     1       7.101  -2.477   6.844  0.00  0.00    +0.339 C 
ATOM     27  O   UNL     1       7.691  -3.453   6.425  0.00  0.00    -0.245 OA
BRANCH  26  28
ATOM     28  O   UNL     1       7.205  -2.133   8.143  0.00  0.00    -0.461 OA
BRANCH  28  29
ATOM     29  C   UNL     1       8.038  -2.974   8.983  0.00  0.00    +0.229 C 
ATOM     30  C   UNL     1       8.034  -2.430  10.413  0.00  0.00    +0.048 C 
ENDBRANCH  28  29
ENDBRANCH  26  28
ENDBRANCH  23  26
ENDBRANCH  18  20
ENDBRANCH  11  15
BRANCH   1  31
ATOM     31  C   UNL     1      -4.168  -3.859   1.018  0.00  0.00    -0.032 C 
ATOM     32  C   UNL     1      -5.426  -3.311   1.692  0.00  0.00    +0.011 C 
ATOM     33  C   UNL     1      -4.479  -4.205  -0.440  0.00  0.00    +0.011 C 
BRANCH  31  35
ATOM     34  C   UNL     1      -4.809  -6.174   1.704  0.00  0.00    +0.004 C 
ATOM     35  C   UNL     1      -3.703  -5.118   1.752  0.00  0.00    +0.003 C 
ENDBRANCH  31  35
ENDBRANCH   1  31
BRANCH   9  36
ATOM     36  O   UNL     1      -1.185   2.166   0.019  0.00  0.00    -0.492 OA
ATOM     37  H   UNL     1      -1.077   3.127   0.024  0.00  0.00    +0.294 HD
ENDBRANCH   9  36
TORSDOF 8
