REMARK  Name = ZINC38681703
REMARK  14 active torsions:
REMARK  status: ('A' for Active; 'I' for Inactive)
REMARK    1  A    between atoms: C_1  and  C_2
REMARK    2  A    between atoms: C_2  and  C_3
REMARK    3  A    between atoms: C_3  and  O_4
REMARK    4  A    between atoms: O_4  and  C_5
REMARK    5  A    between atoms: C_10  and  C_11
REMARK    6  A    between atoms: C_16  and  O_25
REMARK    7  A    between atoms: C_20  and  N_24
REMARK    8  A    between atoms: C_21  and  C_22
REMARK    9  A    between atoms: O_25  and  C_26
REMARK   10  A    between atoms: C_26  and  C_28
REMARK   11  A    between atoms: C_28  and  O_29
REMARK   12  A    between atoms: O_29  and  C_30
REMARK   13  A    between atoms: C_33  and  C_37
REMARK   14  A    between atoms: C_34  and  C_36
REMARK                            x       y       z     vdW  Elec       q    Type
REMARK                         _______ _______ _______ _____ _____    ______ ____
ROOT
ATOM      1  C   UNL     1       0.838  -4.816   1.210  0.00  0.00    +0.101 C 
ATOM      2  C   UNL     1      -0.238  -5.683   1.809  0.00  0.00    +0.008 A 
ATOM      3  C   UNL     1      -1.418  -5.102   2.239  0.00  0.00    +0.012 A 
ATOM      4  C   UNL     1      -2.416  -5.880   2.791  0.00  0.00    +0.047 A 
ATOM      5  C   UNL     1      -2.237  -7.251   2.916  0.00  0.00    +0.135 A 
ATOM      6  C   UNL     1      -1.057  -7.835   2.487  0.00  0.00    +0.093 A 
ATOM      7  C   UNL     1      -0.054  -7.051   1.933  0.00  0.00    +0.138 A 
ATOM      8  O   UNL     1       1.096  -7.638   1.517  0.00  0.00    -0.441 OA
ATOM      9  C   UNL     1       1.898  -7.000   0.648  0.00  0.00    +0.199 C 
ATOM     10  C   UNL     1       1.825  -5.665   0.459  0.00  0.00    +0.098 C 
ENDROOT
BRANCH   1  16
ATOM     11  C   UNL     1       1.552  -2.688   2.326  0.00  0.00    +0.125 A 
ATOM     12  C   UNL     1       2.207  -2.008   3.343  0.00  0.00    +0.046 A 
ATOM     13  C   UNL     1       2.861  -2.713   4.335  0.00  0.00    +0.004 A 
ATOM     14  C   UNL     1       2.864  -4.096   4.313  0.00  0.00    +0.001 A 
ATOM     15  C   UNL     1       2.213  -4.776   3.301  0.00  0.00    +0.008 A 
ATOM     16  C   UNL     1       1.553  -4.075   2.310  0.00  0.00    +0.007 A 
BRANCH  11  17
ATOM     17  O   UNL     1       0.908  -1.996   1.350  0.00  0.00    -0.492 OA
BRANCH  17  18
ATOM     18  C   UNL     1       0.949  -0.570   1.430  0.00  0.00    +0.229 C 
BRANCH  18  20
ATOM     19  C   UNL     1       0.219   1.557   0.341  0.00  0.00    +0.007 C 
ATOM     20  C   UNL     1       0.175   0.030   0.255  0.00  0.00    +0.038 C 
ENDBRANCH  18  20
ENDBRANCH  17  18
ENDBRANCH  11  17
ENDBRANCH   1  16
BRANCH   9  21
ATOM     21  N   UNL     1       2.818  -7.727  -0.065  0.00  0.00    -0.328 N 
ATOM     22  H   UNL     1       2.882  -8.687   0.062  0.00  0.00    +0.145 HD
ATOM     23  H   UNL     1       3.405  -7.281  -0.696  0.00  0.00    +0.145 HD
ENDBRANCH   9  21
BRANCH  10  24
ATOM     24  C   UNL     1       2.710  -5.046  -0.482  0.00  0.00    +0.101 C 
ATOM     25  N   UNL     1       3.412  -4.555  -1.228  0.00  0.00    -0.191 NA
ENDBRANCH  10  24
BRANCH   5  26
ATOM     26  O   UNL     1      -3.218  -8.019   3.460  0.00  0.00    -0.423 OA
BRANCH  26  27
ATOM     27  C   UNL     1      -2.995  -8.567   4.665  0.00  0.00    +0.350 C 
ATOM     28  O   UNL     1      -1.992  -8.289   5.279  0.00  0.00    -0.247 OA
BRANCH  27  29
ATOM     29  C   UNL     1      -3.995  -9.529   5.252  0.00  0.00    +0.349 C 
BRANCH  29  30
ATOM     30  O   UNL     1      -3.536  -9.972   6.531  0.00  0.00    -0.481 OA
BRANCH  30  31
ATOM     31  C   UNL     1      -4.328 -10.851   7.200  0.00  0.00    +0.122 A 
ATOM     32  C   UNL     1      -5.519 -11.282   6.635  0.00  0.00    +0.046 A 
ATOM     33  C   UNL     1      -6.322 -12.176   7.317  0.00  0.00    +0.007 A 
ATOM     34  C   UNL     1      -5.939 -12.640   8.562  0.00  0.00    -0.047 A 
ATOM     35  C   UNL     1      -4.753 -12.211   9.128  0.00  0.00    -0.044 A 
ATOM     36  C   UNL     1      -3.943 -11.322   8.447  0.00  0.00    +0.049 A 
ATOM     37  C   UNL     1      -4.338 -12.719  10.485  0.00  0.00    +0.044 C 
ATOM     38  C   UNL     1      -6.817 -13.615   9.305  0.00  0.00    +0.044 C 
ENDBRANCH  30  31
ENDBRANCH  29  30
ENDBRANCH  27  29
ENDBRANCH  26  27
ENDBRANCH   5  26
TORSDOF 11
