REMARK  Name = ZINC63659212
REMARK  14 active torsions:
REMARK  status: ('A' for Active; 'I' for Inactive)
REMARK    1  A    between atoms: C_1  and  C_2
REMARK    2  A    between atoms: C_7  and  C_34
REMARK    3  A    between atoms: C_9  and  C_12
REMARK    4  A    between atoms: C_12  and  C_13
REMARK    5  A    between atoms: C_13  and  N_14
REMARK    6  A    between atoms: N_14  and  C_15
REMARK    7  A    between atoms: N_14  and  C_21
REMARK    8  A    between atoms: C_15  and  C_16
REMARK    9  A    between atoms: C_21  and  N_23
REMARK   10  A    between atoms: N_23  and  C_24
REMARK   11  A    between atoms: C_26  and  O_32
REMARK   12  A    between atoms: C_29  and  O_30
REMARK   13  A    between atoms: O_30  and  C_31
REMARK   14  A    between atoms: O_32  and  C_33
REMARK                            x       y       z     vdW  Elec       q    Type
REMARK                         _______ _______ _______ _____ _____    ______ ____
ROOT
ATOM      1  N   UNL     1       0.025  -1.410   5.427  0.00  0.00    -0.305 N 
ENDROOT
BRANCH   1   2
ATOM      2  C   UNL     1      -1.123  -1.306   6.127  0.00  0.00    +0.138 C 
ATOM      3  S   UNL     1      -2.577  -1.942   5.486  0.00  0.00    -0.018 S 
BRANCH   2   4
ATOM      4  N   UNL     1      -1.124  -0.702   7.332  0.00  0.00    -0.294 N 
ATOM      5  H   UNL     1      -0.289  -0.413   7.731  0.00  0.00    +0.154 HD
BRANCH   4   6
ATOM      6  C   UNL     1      -2.333  -0.492   8.008  0.00  0.00    +0.078 A 
ATOM      7  C   UNL     1      -3.439  -0.013   7.322  0.00  0.00    +0.072 A 
ATOM      8  C   UNL     1      -4.634   0.194   7.994  0.00  0.00    +0.122 A 
ATOM      9  C   UNL     1      -4.724  -0.077   9.351  0.00  0.00    +0.049 A 
ATOM     10  C   UNL     1      -3.623  -0.555  10.037  0.00  0.00    +0.051 A 
ATOM     11  C   UNL     1      -2.428  -0.769   9.370  0.00  0.00    +0.141 A 
BRANCH  11  12
ATOM     12  O   UNL     1      -1.347  -1.245  10.045  0.00  0.00    -0.493 OA
ATOM     13  C   UNL     1      -1.516  -1.508  11.439  0.00  0.00    +0.277 C 
ENDBRANCH  11  12
BRANCH   8  14
ATOM     14  O   UNL     1      -5.719   0.664   7.322  0.00  0.00    -0.495 OA
ATOM     15  C   UNL     1      -6.917   0.854   8.077  0.00  0.00    +0.277 C 
ENDBRANCH   8  14
ENDBRANCH   4   6
ENDBRANCH   2   4
ENDBRANCH   1   2
BRANCH   1  16
ATOM     16  C   UNL     1       0.027  -2.066   4.117  0.00  0.00    +0.111 C 
BRANCH  16  17
ATOM     17  C   UNL     1       0.301  -3.561   4.297  0.00  0.00    +0.052 C 
BRANCH  17  25
ATOM     18  C   UNL     1      -0.622  -0.560  -0.376  0.00  0.00    +0.044 C 
ATOM     19  C   UNL     1      -0.339  -1.982   0.036  0.00  0.00    -0.050 A 
ATOM     20  C   UNL     1      -0.252  -2.974  -0.950  0.00  0.00    +0.005 A 
ATOM     21  C   UNL     1      -0.002  -4.269  -0.662  0.00  0.00    +0.026 A 
ATOM     22  C   UNL     1       0.186  -4.681   0.686  0.00  0.00    +0.043 A 
ATOM     23  N   UNL     1       0.434  -5.856   1.213  0.00  0.00    -0.378 N 
ATOM     24  C   UNL     1       0.533  -5.704   2.669  0.00  0.00    +0.103 C 
ATOM     25  C   UNL     1       0.303  -4.236   2.950  0.00  0.00    -0.037 C 
ATOM     26  C   UNL     1       0.098  -3.652   1.747  0.00  0.00    -0.001 A 
ATOM     27  C   UNL     1      -0.171  -2.266   1.348  0.00  0.00    +0.013 A 
ATOM     28  C   UNL     1       1.924  -6.123   3.150  0.00  0.00    +0.035 C 
ATOM     29  H   UNL     1       0.536  -6.686   0.722  0.00  0.00    +0.160 HD
ENDBRANCH  17  25
ENDBRANCH  16  17
ENDBRANCH   1  16
BRANCH   1  30
ATOM     30  C   UNL     1       1.269  -0.866   5.976  0.00  0.00    +0.181 C 
BRANCH  30  31
ATOM     31  C   UNL     1       1.427   0.568   5.538  0.00  0.00    +0.122 A 
ATOM     32  C   UNL     1       0.977   1.647   6.203  0.00  0.00    +0.046 A 
ATOM     33  C   UNL     1       1.341   2.780   5.439  0.00  0.00    +0.041 A 
ATOM     34  C   UNL     1       1.992   2.325   4.353  0.00  0.00    +0.195 A 
ATOM     35  O   UNL     1       2.046   0.985   4.421  0.00  0.00    -0.466 OA
ENDBRANCH  30  31
ENDBRANCH   1  30
TORSDOF 10
