REMARK  Name = ZINC15772043
REMARK  10 active torsions:
REMARK  status: ('A' for Active; 'I' for Inactive)
REMARK    1  A    between atoms: C_1  and  C_2
REMARK    2  A    between atoms: C_2  and  C_3
REMARK    3  A    between atoms: C_3  and  C_5
REMARK    4  A    between atoms: C_3  and  N_27
REMARK    5  A    between atoms: C_6  and  C_7
REMARK    6  A    between atoms: C_7  and  C_9
REMARK    7  A    between atoms: C_7  and  N_16
REMARK    8  A    between atoms: N_16  and  S_17
REMARK    9  A    between atoms: S_17  and  C_20
REMARK   10  A    between atoms: C_23  and  C_26
REMARK                            x       y       z     vdW  Elec       q    Type
REMARK                         _______ _______ _______ _____ _____    ______ ____
ROOT
ATOM      1  C   UNL     1       4.204  -2.315   3.312  0.00  0.00    +0.181 C 
ENDROOT
BRANCH   1   2
ATOM      2  C   UNL     1       4.755  -3.718   3.300  0.00  0.00    -0.017 A 
ATOM      3  C   UNL     1       5.851  -4.023   2.514  0.00  0.00    +0.007 A 
ATOM      4  C   UNL     1       6.360  -5.308   2.506  0.00  0.00    +0.020 A 
ATOM      5  C   UNL     1       5.766  -6.292   3.277  0.00  0.00    +0.041 A 
ATOM      6  C   UNL     1       4.666  -5.987   4.060  0.00  0.00    +0.020 A 
ATOM      7  C   UNL     1       4.161  -4.700   4.071  0.00  0.00    +0.007 A 
ATOM      8 CL   UNL     1       6.400  -7.908   3.263  0.00  0.00    -0.084 Cl
ENDBRANCH   1   2
BRANCH   1  10
ATOM      9  C   UNL     1       2.700  -1.940   1.168  0.00  0.00    -0.073 C 
ATOM     10  C   UNL     1       3.368  -2.106   2.120  0.00  0.00    -0.075 C 
BRANCH   9  11
ATOM     11  C   UNL     1       1.863  -1.731  -0.025  0.00  0.00    +0.183 C 
BRANCH  11  12
ATOM     12  N   UNL     1       1.328  -0.367  -0.013  0.00  0.00    -0.229 N 
ATOM     13  C   UNL     1       0.002  -0.004   0.002  0.00  0.00    +0.090 A 
ATOM     14  C   UNL     1      -1.194  -0.713   0.010  0.00  0.00    +0.029 A 
ATOM     15  C   UNL     1      -2.383  -0.040   0.025  0.00  0.00    +0.002 A 
ATOM     16  C   UNL     1      -2.409   1.349   0.033  0.00  0.00    +0.002 A 
ATOM     17  C   UNL     1      -1.250   2.068   0.030  0.00  0.00    +0.032 A 
ATOM     18  C   UNL     1      -0.017   1.401   0.010  0.00  0.00    +0.113 A 
ATOM     19  N   UNL     1       1.262   1.828  -0.000  0.00  0.00    -0.129 NA
ATOM     20  N   UNL     1       2.067   0.825  -0.013  0.00  0.00    -0.063 NA
ENDBRANCH  11  12
BRANCH  11  22
ATOM     21  C   UNL     1       3.165  -3.394  -1.359  0.00  0.00    +0.007 C 
ATOM     22  C   UNL     1       2.709  -1.935  -1.283  0.00  0.00    +0.036 C 
ENDBRANCH  11  22
ENDBRANCH   9  11
ENDBRANCH   1  10
BRANCH   1  23
ATOM     23  N   UNL     1       5.311  -1.356   3.307  0.00  0.00    -0.171 NA
ATOM     24  H   UNL     1       5.718  -1.089   2.467  0.00  0.00    +0.150 HD
BRANCH  23  25
ATOM     25  S   UNL     1       5.869  -0.726   4.733  0.00  0.00    +0.060 S 
ATOM     26  O   UNL     1       6.947   0.138   4.402  0.00  0.00    -0.153 OA
ATOM     27  O   UNL     1       4.728  -0.280   5.454  0.00  0.00    -0.153 OA
BRANCH  25  28
ATOM     28  C   UNL     1       6.559  -2.059   5.657  0.00  0.00    +0.105 A 
ATOM     29  C   UNL     1       5.764  -2.780   6.529  0.00  0.00    +0.029 A 
ATOM     30  C   UNL     1       6.304  -3.828   7.250  0.00  0.00    +0.005 A 
ATOM     31  C   UNL     1       7.641  -4.150   7.106  0.00  0.00    -0.050 A 
ATOM     32  C   UNL     1       8.436  -3.426   6.238  0.00  0.00    +0.005 A 
ATOM     33  C   UNL     1       7.895  -2.381   5.513  0.00  0.00    +0.029 A 
ATOM     34  C   UNL     1       8.230  -5.290   7.896  0.00  0.00    +0.044 C 
ENDBRANCH  25  28
ENDBRANCH  23  25
ENDBRANCH   1  23
TORSDOF 8
