REMARK  Name = ZINC22095213
REMARK  6 active torsions:
REMARK  status: ('A' for Active; 'I' for Inactive)
REMARK    1  A    between atoms: C_1  and  C_2
REMARK    2  A    between atoms: C_3  and  C_29
REMARK    3  A    between atoms: C_9  and  O_28
REMARK    4  A    between atoms: C_10  and  C_13
REMARK    5  A    between atoms: C_13  and  N_14
REMARK    6  A    between atoms: N_17  and  C_20
REMARK                            x       y       z     vdW  Elec       q    Type
REMARK                         _______ _______ _______ _____ _____    ______ ____
ROOT
ATOM      1  C   UNL     1      -1.062   7.430   0.052  0.00  0.00    +0.087 C 
ATOM      2  C   UNL     1      -1.163   5.926   0.045  0.00  0.00    +0.114 A 
ATOM      3  C   UNL     1      -2.394   5.354   0.054  0.00  0.00    +0.067 A 
ATOM      4  C   UNL     1      -2.492   3.884   0.047  0.00  0.00    +0.200 A 
ATOM      5  O   UNL     1      -3.570   3.315   0.054  0.00  0.00    -0.286 OA
ATOM      6  C   UNL     1      -1.223   3.135   0.031  0.00  0.00    +0.065 A 
ATOM      7  C   UNL     1      -1.206   1.739   0.017  0.00  0.00    +0.019 A 
ATOM      8  C   UNL     1      -0.013   1.076   0.008  0.00  0.00    +0.046 A 
ATOM      9  C   UNL     1       1.187   1.786   0.000  0.00  0.00    +0.125 A 
ATOM     10  C   UNL     1       1.186   3.170   0.008  0.00  0.00    +0.051 A 
ATOM     11  C   UNL     1      -0.019   3.860   0.023  0.00  0.00    +0.147 A 
ATOM     12  O   UNL     1      -0.037   5.208   0.030  0.00  0.00    -0.459 OA
ENDROOT
BRANCH   3  13
ATOM     13  C   UNL     1      -3.617   6.193   0.070  0.00  0.00    -0.011 A 
ATOM     14  C   UNL     1      -3.914   7.019  -1.013  0.00  0.00    +0.009 A 
ATOM     15  C   UNL     1      -5.056   7.793  -0.994  0.00  0.00    +0.001 A 
ATOM     16  C   UNL     1      -5.900   7.759   0.102  0.00  0.00    +0.000 A 
ATOM     17  C   UNL     1      -5.608   6.945   1.181  0.00  0.00    +0.001 A 
ATOM     18  C   UNL     1      -4.471   6.162   1.171  0.00  0.00    +0.009 A 
ENDBRANCH   3  13
BRANCH   9  19
ATOM     19  O   UNL     1       2.366   1.113  -0.015  0.00  0.00    -0.506 OA
ATOM     20  H   UNL     1       3.315   1.669  -0.021  0.00  0.00    +0.292 HD
ENDBRANCH   9  19
BRANCH  10  21
ATOM     21  C   UNL     1       2.490   3.926  -0.000  0.00  0.00    +0.126 C 
BRANCH  21  22
ATOM     22  N   UNL     1       2.901   4.179  -1.388  0.00  0.00    -0.301 NA
ATOM     23  C   UNL     1       3.224   2.923  -2.078  0.00  0.00    +0.066 C 
ATOM     24  C   UNL     1       3.570   3.221  -3.539  0.00  0.00    -0.063 C 
ATOM     25  N   UNL     1       4.704   4.155  -3.591  0.00  0.00    +0.384 N 
ATOM     26  C   UNL     1       4.380   5.411  -2.900  0.00  0.00    -0.063 C 
ATOM     27  C   UNL     1       4.035   5.112  -1.439  0.00  0.00    +0.066 C 
ATOM     28  H   UNL     1       5.552   3.688  -3.068  0.00  0.00    -0.081 HD
BRANCH  25  29
ATOM     29  C   UNL     1       5.115   4.408  -4.978  0.00  0.00    -0.046 C 
ATOM     30  C   UNL     1       3.924   4.958  -5.780  0.00  0.00    +0.009 C 
ATOM     31  C   UNL     1       4.247   4.926  -7.294  0.00  0.00    +0.164 C 
ATOM     32  S   UNL     1       5.429   3.523  -7.424  0.00  0.00    -0.033 S 
ATOM     33  O   UNL     1       6.682   4.016  -7.879  0.00  0.00    -0.174 OA
ATOM     34  O   UNL     1       4.804   2.453  -8.120  0.00  0.00    -0.174 OA
ATOM     35  C   UNL     1       5.572   3.077  -5.642  0.00  0.00    +0.151 C 
ENDBRANCH  25  29
ENDBRANCH  21  22
ENDBRANCH  10  21
TORSDOF 5
