REMARK  Name = ZINC08764027
REMARK  10 active torsions:
REMARK  status: ('A' for Active; 'I' for Inactive)
REMARK    1  A    between atoms: C_1  and  C_2
REMARK    2  A    between atoms: C_2  and  C_3
REMARK    3  A    between atoms: C_6  and  C_9
REMARK    4  A    between atoms: N_13  and  C_17
REMARK    5  A    between atoms: C_17  and  C_18
REMARK    6  A    between atoms: C_18  and  C_19
REMARK    7  A    between atoms: C_19  and  C_20
REMARK    8  A    between atoms: C_26  and  C_28
REMARK    9  A    between atoms: C_28  and  C_29
REMARK   10  A    between atoms: C_32  and  C_35
REMARK                            x       y       z     vdW  Elec       q    Type
REMARK                         _______ _______ _______ _____ _____    ______ ____
ROOT
ATOM      1  C   UNL     1       6.625   4.183  -1.204  0.00  0.00    +0.029 C 
ENDROOT
BRANCH   1   2
ATOM      2  C   UNL     1       6.089   4.217   0.228  0.00  0.00    +0.115 C 
BRANCH   2   7
ATOM      3  C   UNL     1       1.177   3.557   0.009  0.00  0.00    +0.028 C 
ATOM      4  C   UNL     1       2.343   4.243   0.104  0.00  0.00    +0.077 C 
ATOM      5  C   UNL     1       3.734   3.741   0.111  0.00  0.00    +0.258 C 
ATOM      6  O   UNL     1       3.986   2.554   0.022  0.00  0.00    -0.269 OA
ATOM      7  N   UNL     1       4.690   4.649   0.216  0.00  0.00    -0.255 N 
ATOM      8  C   UNL     1       4.405   5.964   0.314  0.00  0.00    +0.121 C 
ATOM      9  S   UNL     1       5.492   7.279   0.457  0.00  0.00    -0.027 S 
ATOM     10  S   UNL     1       2.621   6.003   0.249  0.00  0.00    -0.061 S 
BRANCH   3  14
ATOM     11  C   UNL     1       1.187  -0.679   0.201  0.00  0.00    -0.048 A 
ATOM     12  C   UNL     1       2.037   0.049   1.016  0.00  0.00    +0.004 A 
ATOM     13  C   UNL     1       2.039   1.426   0.960  0.00  0.00    +0.008 A 
ATOM     14  C   UNL     1       1.181   2.088   0.075  0.00  0.00    -0.024 A 
ATOM     15  C   UNL     1       0.326   1.345  -0.746  0.00  0.00    +0.008 A 
ATOM     16  C   UNL     1       0.335  -0.032  -0.677  0.00  0.00    +0.004 A 
BRANCH  11  18
ATOM     17  C   UNL     1       0.174  -2.651   1.313  0.00  0.00    +0.009 C 
ATOM     18  C   UNL     1       1.191  -2.185   0.269  0.00  0.00    +0.032 C 
ENDBRANCH  11  18
ENDBRANCH   3  14
ENDBRANCH   2   7
ENDBRANCH   1   2
BRANCH   1  19
ATOM     19  C   UNL     1       8.087   3.732  -1.192  0.00  0.00    +0.098 C 
BRANCH  19  20
ATOM     20  C   UNL     1       8.614   3.698  -2.603  0.00  0.00    +0.219 C 
ATOM     21  O   UNL     1       7.892   4.005  -3.528  0.00  0.00    -0.275 OA
ATOM     22  N   UNL     1       9.889   3.327  -2.837  0.00  0.00    -0.265 N 
ATOM     23  C   UNL     1      10.376   3.296  -4.139  0.00  0.00    +0.165 A 
ATOM     24  N   UNL     1       9.753   3.592  -5.264  0.00  0.00    -0.233 NA
ATOM     25  C   UNL     1      10.368   3.509  -6.427  0.00  0.00    +0.124 A 
ATOM     26  C   UNL     1      11.664   3.111  -6.446  0.00  0.00    +0.015 A 
ATOM     27  S   UNL     1      11.961   2.867  -4.701  0.00  0.00    -0.057 S 
ATOM     28  H   UNL     1      10.466   3.082  -2.098  0.00  0.00    +0.157 HD
BRANCH  26  29
ATOM     29  C   UNL     1      12.597   2.929  -7.615  0.00  0.00    +0.079 C 
BRANCH  29  30
ATOM     30  C   UNL     1      13.325   4.221  -7.882  0.00  0.00    -0.042 A 
ATOM     31  C   UNL     1      12.790   5.149  -8.757  0.00  0.00    +0.004 A 
ATOM     32  C   UNL     1      13.456   6.336  -8.998  0.00  0.00    +0.003 A 
ATOM     33  C   UNL     1      14.661   6.592  -8.371  0.00  0.00    -0.050 A 
ATOM     34  C   UNL     1      15.199   5.662  -7.501  0.00  0.00    +0.003 A 
ATOM     35  C   UNL     1      14.531   4.477  -7.256  0.00  0.00    +0.004 A 
ATOM     36  C   UNL     1      15.389   7.884  -8.637  0.00  0.00    +0.044 C 
ENDBRANCH  29  30
ENDBRANCH  26  29
ENDBRANCH  19  20
ENDBRANCH   1  19
TORSDOF 8
