REMARK  Name = ZINC03261489
REMARK  10 active torsions:
REMARK  status: ('A' for Active; 'I' for Inactive)
REMARK    1  A    between atoms: C_1  and  C_2
REMARK    2  A    between atoms: C_2  and  O_3
REMARK    3  A    between atoms: O_3  and  C_4
REMARK    4  A    between atoms: C_4  and  C_6
REMARK    5  A    between atoms: C_7  and  C_28
REMARK    6  A    between atoms: C_11  and  C_15
REMARK    7  A    between atoms: N_16  and  C_17
REMARK    8  A    between atoms: C_17  and  C_18
REMARK    9  A    between atoms: C_21  and  S_24
REMARK   10  A    between atoms: S_24  and  N_27
REMARK                            x       y       z     vdW  Elec       q    Type
REMARK                         _______ _______ _______ _____ _____    ______ ____
ROOT
ATOM      1  C   UNL     1       1.220  -4.357  -5.329  0.00  0.00    +0.102 A 
ATOM      2  C   UNL     1       0.948  -3.788  -4.121  0.00  0.00    -0.017 A 
ATOM      3  C   UNL     1       0.755  -4.600  -2.996  0.00  0.00    +0.051 A 
ATOM      4  C   UNL     1       0.463  -4.224  -1.651  0.00  0.00    +0.131 A 
ATOM      5  N   UNL     1       0.324  -5.168  -0.734  0.00  0.00    -0.217 NA
ATOM      6  C   UNL     1       0.437  -6.452  -1.020  0.00  0.00    +0.129 A 
ATOM      7  N   UNL     1       0.706  -6.864  -2.244  0.00  0.00    -0.225 NA
ATOM      8  C   UNL     1       0.865  -5.995  -3.220  0.00  0.00    +0.115 A 
ATOM      9  S   UNL     1       1.224  -6.102  -4.955  0.00  0.00    -0.062 S 
ATOM     10  C   UNL     1       0.260  -7.470   0.078  0.00  0.00    +0.088 C 
ATOM     11  N   UNL     1       0.332  -2.894  -1.310  0.00  0.00    -0.324 N 
ATOM     12  C   UNL     1       0.853  -2.290  -3.996  0.00  0.00    +0.046 C 
ATOM     13  H   UNL     1       0.535  -2.204  -1.961  0.00  0.00    +0.148 HD
ENDROOT
BRANCH   1  14
ATOM     14  C   UNL     1       1.453  -3.698  -6.618  0.00  0.00    +0.346 C 
ATOM     15  O   UNL     1       1.531  -2.486  -6.676  0.00  0.00    -0.244 OA
BRANCH  14  16
ATOM     16  O   UNL     1       1.580  -4.436  -7.739  0.00  0.00    -0.461 OA
BRANCH  16  18
ATOM     17  C   UNL     1       1.925  -4.714 -10.134  0.00  0.00    +0.048 C 
ATOM     18  C   UNL     1       1.808  -3.717  -8.980  0.00  0.00    +0.229 C 
ENDBRANCH  16  18
ENDBRANCH  14  16
ENDBRANCH   1  14
BRANCH  11  19
ATOM     19  C   UNL     1      -0.115  -2.523   0.035  0.00  0.00    +0.138 C 
BRANCH  19  20
ATOM     20  C   UNL     1      -0.174  -1.021   0.149  0.00  0.00    -0.030 A 
ATOM     21  C   UNL     1      -1.338  -0.349  -0.172  0.00  0.00    +0.007 A 
ATOM     22  C   UNL     1      -1.393   1.028  -0.067  0.00  0.00    +0.029 A 
ATOM     23  C   UNL     1      -0.283   1.733   0.359  0.00  0.00    +0.105 A 
ATOM     24  C   UNL     1       0.882   1.061   0.678  0.00  0.00    +0.029 A 
ATOM     25  C   UNL     1       0.936  -0.316   0.574  0.00  0.00    +0.007 A 
BRANCH  23  26
ATOM     26  S   UNL     1      -0.352   3.489   0.492  0.00  0.00    +0.056 S 
ATOM     27  O   UNL     1       0.986   3.957   0.390  0.00  0.00    -0.153 OA
ATOM     28  O   UNL     1      -1.380   3.923  -0.388  0.00  0.00    -0.153 OA
BRANCH  26  29
ATOM     29  N   UNL     1      -0.861   3.844   2.027  0.00  0.00    -0.204 NA
ATOM     30  H   UNL     1      -1.056   3.127   2.651  0.00  0.00    +0.144 HD
ATOM     31  H   UNL     1      -0.965   4.768   2.302  0.00  0.00    +0.144 HD
ENDBRANCH  26  29
ENDBRANCH  23  26
ENDBRANCH  19  20
ENDBRANCH  11  19
TORSDOF 7
