REMARK  Name = ZINC22318517
REMARK  13 active torsions:
REMARK  status: ('A' for Active; 'I' for Inactive)
REMARK    1  A    between atoms: C_1  and  C_2
REMARK    2  A    between atoms: C_5  and  S_8
REMARK    3  A    between atoms: S_8  and  N_11
REMARK    4  A    between atoms: N_11  and  C_12
REMARK    5  A    between atoms: N_11  and  C_27
REMARK    6  A    between atoms: C_12  and  C_13
REMARK    7  A    between atoms: N_15  and  C_16
REMARK    8  A    between atoms: C_16  and  C_17
REMARK    9  A    between atoms: C_17  and  C_18
REMARK   10  A    between atoms: C_18  and  S_19
REMARK   11  A    between atoms: S_19  and  C_20
REMARK   12  A    between atoms: C_30  and  C_34
REMARK   13  A    between atoms: C_31  and  C_33
REMARK                            x       y       z     vdW  Elec       q    Type
REMARK                         _______ _______ _______ _____ _____    ______ ____
ROOT
ATOM      1  N   UNL     1      -0.343   1.625  -0.033  0.00  0.00    -0.194 N 
ENDROOT
BRANCH   1   2
ATOM      2  C   UNL     1       0.789   2.418  -0.230  0.00  0.00    +0.052 A 
ATOM      3  C   UNL     1       2.051   1.917   0.069  0.00  0.00    +0.025 A 
ATOM      4  C   UNL     1       3.168   2.703  -0.132  0.00  0.00    +0.005 A 
ATOM      5  C   UNL     1       3.033   3.990  -0.619  0.00  0.00    -0.047 A 
ATOM      6  C   UNL     1       1.779   4.493  -0.912  0.00  0.00    -0.046 A 
ATOM      7  C   UNL     1       0.657   3.711  -0.719  0.00  0.00    +0.028 A 
ATOM      8  C   UNL     1       1.636   5.896  -1.442  0.00  0.00    +0.044 C 
ATOM      9  C   UNL     1       4.255   4.846  -0.831  0.00  0.00    +0.044 C 
ENDBRANCH   1   2
BRANCH   1  10
ATOM     10  S   UNL     1      -0.488   0.177  -0.825  0.00  0.00    +0.075 S 
ATOM     11  O   UNL     1      -1.878  -0.105  -0.903  0.00  0.00    -0.150 OA
ATOM     12  O   UNL     1       0.339   0.261  -1.978  0.00  0.00    -0.150 OA
BRANCH  10  17
ATOM     13  C   UNL     1       1.933  -4.053   2.732  0.00  0.00    +0.044 C 
ATOM     14  C   UNL     1       1.329  -2.997   1.843  0.00  0.00    -0.050 A 
ATOM     15  C   UNL     1       0.021  -2.593   2.041  0.00  0.00    +0.005 A 
ATOM     16  C   UNL     1      -0.533  -1.624   1.226  0.00  0.00    +0.029 A 
ATOM     17  C   UNL     1       0.219  -1.058   0.214  0.00  0.00    +0.109 A 
ATOM     18  C   UNL     1       1.525  -1.465   0.013  0.00  0.00    +0.029 A 
ATOM     19  C   UNL     1       2.081  -2.431   0.831  0.00  0.00    +0.005 A 
ENDBRANCH  10  17
ENDBRANCH   1  10
BRANCH   1  20
ATOM     20  C   UNL     1      -1.406   2.075   0.869  0.00  0.00    +0.227 C 
BRANCH  20  21
ATOM     21  C   UNL     1      -1.067   1.678   2.283  0.00  0.00    +0.232 C 
ATOM     22  O   UNL     1      -0.039   1.078   2.514  0.00  0.00    -0.274 OA
ATOM     23  N   UNL     1      -1.906   1.990   3.290  0.00  0.00    -0.314 N 
ATOM     24  H   UNL     1      -2.838   2.535   3.080  0.00  0.00    +0.149 HD
BRANCH  23  25
ATOM     25  C   UNL     1      -1.577   1.604   4.664  0.00  0.00    +0.105 C 
BRANCH  25  26
ATOM     26  C   UNL     1      -2.686   2.075   5.606  0.00  0.00    +0.030 C 
BRANCH  26  27
ATOM     27  C   UNL     1      -2.342   1.672   7.042  0.00  0.00    +0.076 C 
BRANCH  27  28
ATOM     28  S   UNL     1      -3.658   2.230   8.159  0.00  0.00    -0.125 S 
BRANCH  28  29
ATOM     29  C   UNL     1      -3.121   1.698   9.750  0.00  0.00    +0.008 A 
ATOM     30  C   UNL     1      -1.921   1.010   9.886  0.00  0.00    +0.016 A 
ATOM     31  C   UNL     1      -1.500   0.598  11.135  0.00  0.00    +0.021 A 
ATOM     32  C   UNL     1      -2.277   0.860  12.249  0.00  0.00    +0.041 A 
ATOM     33  C   UNL     1      -3.475   1.540  12.117  0.00  0.00    +0.021 A 
ATOM     34  C   UNL     1      -3.899   1.959  10.871  0.00  0.00    +0.016 A 
ATOM     35 CL   UNL     1      -1.748   0.336  13.817  0.00  0.00    -0.084 Cl
ENDBRANCH  28  29
ENDBRANCH  27  28
ENDBRANCH  26  27
ENDBRANCH  25  26
ENDBRANCH  23  25
ENDBRANCH  20  21
ENDBRANCH   1  20
TORSDOF 10
