REMARK  Name = ZINC00136523
REMARK  4 active torsions:
REMARK  status: ('A' for Active; 'I' for Inactive)
REMARK    1  A    between atoms: C_1  and  C_2
REMARK    2  A    between atoms: C_2  and  C_4
REMARK    3  A    between atoms: C_8  and  C_10
REMARK    4  A    between atoms: C_13  and  C_15
REMARK                            x       y       z     vdW  Elec       q    Type
REMARK                         _______ _______ _______ _____ _____    ______ ____
ROOT
ATOM      1  C   UNL     1       4.817   3.294   0.148  0.00  0.00    +0.136 A 
ATOM      2  C   UNL     1       4.956   4.652   0.210  0.00  0.00    +0.050 A 
ATOM      3  C   UNL     1       3.675   5.202   0.119  0.00  0.00    +0.050 A 
ATOM      4  C   UNL     1       2.793   4.143   0.003  0.00  0.00    +0.131 A 
ATOM      5  O   UNL     1       3.510   2.999   0.028  0.00  0.00    -0.455 OA
ENDROOT
BRANCH   4   6
ATOM      6  C   UNL     1       1.390   4.240  -0.115  0.00  0.00    +0.074 C 
ATOM      7  C   UNL     1       0.626   3.110  -0.129  0.00  0.00    +0.099 C 
ATOM      8  C   UNL     1       1.066   1.777   0.101  0.00  0.00    +0.264 C 
ATOM      9  O   UNL     1       2.204   1.422   0.349  0.00  0.00    -0.268 OA
ATOM     10  N   UNL     1      -0.016   0.981  -0.009  0.00  0.00    -0.263 N 
ATOM     11  C   UNL     1      -1.096   1.726  -0.296  0.00  0.00    +0.141 C 
ATOM     12  S   UNL     1      -2.678   1.116  -0.527  0.00  0.00    -0.018 S 
ATOM     13  N   UNL     1      -0.749   3.025  -0.372  0.00  0.00    -0.292 N 
ATOM     14  H   UNL     1      -0.014   0.017   0.100  0.00  0.00    +0.157 HD
ATOM     15  H   UNL     1      -1.344   3.767  -0.564  0.00  0.00    +0.154 HD
ENDBRANCH   4   6
BRANCH   1  20
ATOM     16  C   UNL     1       6.690   0.028   0.189  0.00  0.00    +0.018 A 
ATOM     17  C   UNL     1       8.008   0.481   0.320  0.00  0.00    +0.011 A 
ATOM     18  C   UNL     1       8.272   1.834   0.393  0.00  0.00    +0.001 A 
ATOM     19  C   UNL     1       7.240   2.750   0.332  0.00  0.00    +0.011 A 
ATOM     20  C   UNL     1       5.918   2.313   0.207  0.00  0.00    +0.018 A 
ATOM     21  C   UNL     1       5.643   0.948   0.132  0.00  0.00    +0.023 A 
BRANCH  16  23
ATOM     22  C   UNL     1       7.533  -2.409   0.258  0.00  0.00    +0.091 C 
ATOM     23  C   UNL     1       6.410  -1.415   0.110  0.00  0.00    +0.160 C 
ATOM     24  O   UNL     1       5.277  -1.803  -0.073  0.00  0.00    -0.292 OA
ENDBRANCH  16  23
ENDBRANCH   1  20
TORSDOF 3
