REMARK  Name = ZINC20906058
REMARK  10 active torsions:
REMARK  status: ('A' for Active; 'I' for Inactive)
REMARK    1  A    between atoms: C_1  and  O_2
REMARK    2  A    between atoms: O_2  and  C_3
REMARK    3  A    between atoms: C_3  and  C_5
REMARK    4  A    between atoms: C_8  and  C_11
REMARK    5  A    between atoms: N_12  and  N_13
REMARK    6  A    between atoms: C_16  and  S_19
REMARK    7  A    between atoms: S_19  and  C_20
REMARK    8  A    between atoms: C_20  and  C_21
REMARK    9  A    between atoms: C_21  and  C_22
REMARK   10  A    between atoms: N_24  and  C_25
REMARK                            x       y       z     vdW  Elec       q    Type
REMARK                         _______ _______ _______ _____ _____    ______ ____
ROOT
ATOM      1  N   UNL     1       5.904 -10.305   0.696  0.00  0.00    -0.205 N 
ATOM      2  C   UNL     1       5.580  -8.960   0.591  0.00  0.00    +0.232 A 
ATOM      3  N   UNL     1       6.462  -7.911   0.547  0.00  0.00    -0.186 NA
ATOM      4  C   UNL     1       5.691  -6.784   0.444  0.00  0.00    +0.210 A 
ATOM      5  N   UNL     1       4.439  -7.172   0.437  0.00  0.00    -0.144 NA
ATOM      6  N   UNL     1       4.374  -8.453   0.518  0.00  0.00    -0.245 N 
ATOM      7  H   UNL     1       6.958 -10.614   0.751  0.00  0.00    +0.177 HD
ATOM      8  H   UNL     1       3.497  -9.117   0.531  0.00  0.00    +0.192 HD
ENDROOT
BRANCH   1  10
ATOM      9  C   UNL     1       5.191 -12.529   0.827  0.00  0.00    +0.138 C 
ATOM     10  N   UNL     1       4.888 -11.269   0.730  0.00  0.00    -0.188 NA
BRANCH   9  14
ATOM     11  C   UNL     1       2.120 -15.445   0.931  0.00  0.00    +0.059 A 
ATOM     12  C   UNL     1       3.461 -15.839   1.002  0.00  0.00    +0.015 A 
ATOM     13  C   UNL     1       4.451 -14.899   0.969  0.00  0.00    +0.010 A 
ATOM     14  C   UNL     1       4.125 -13.542   0.863  0.00  0.00    -0.005 A 
ATOM     15  C   UNL     1       2.783 -13.149   0.798  0.00  0.00    +0.010 A 
ATOM     16  C   UNL     1       1.794 -14.089   0.826  0.00  0.00    +0.015 A 
BRANCH  11  17
ATOM     17  C   UNL     1       1.052 -16.460   0.967  0.00  0.00    +0.339 C 
ATOM     18  O   UNL     1       1.335 -17.638   1.058  0.00  0.00    -0.245 OA
BRANCH  17  20
ATOM     19  C   UNL     1      -1.239 -17.134   0.939  0.00  0.00    +0.280 C 
ATOM     20  O   UNL     1      -0.240 -16.081   0.898  0.00  0.00    -0.464 OA
ENDBRANCH  17  20
ENDBRANCH  11  17
ENDBRANCH   9  14
ENDBRANCH   1  10
BRANCH   4  21
ATOM     21  S   UNL     1       6.271  -5.123   0.348  0.00  0.00    -0.084 S 
BRANCH  21  22
ATOM     22  C   UNL     1       4.693  -4.244   0.236  0.00  0.00    +0.086 C 
BRANCH  22  23
ATOM     23  C   UNL     1       4.953  -2.739   0.140  0.00  0.00    +0.107 C 
BRANCH  23  24
ATOM     24  C   UNL     1       3.639  -2.007   0.048  0.00  0.00    +0.218 C 
ATOM     25  O   UNL     1       2.597  -2.628   0.057  0.00  0.00    -0.275 OA
ATOM     26  N   UNL     1       3.621  -0.663  -0.046  0.00  0.00    -0.285 N 
ATOM     27  H   UNL     1       4.565  -0.106  -0.142  0.00  0.00    +0.155 HD
BRANCH  26  28
ATOM     28  C   UNL     1       2.401   0.025  -0.021  0.00  0.00    +0.037 A 
ATOM     29  C   UNL     1       1.346  -0.460   0.740  0.00  0.00    +0.027 A 
ATOM     30  C   UNL     1       0.142   0.217   0.764  0.00  0.00    +0.051 A 
ATOM     31  C   UNL     1      -0.016   1.384   0.030  0.00  0.00    +0.162 A 
ATOM     32  C   UNL     1       1.040   1.873  -0.730  0.00  0.00    +0.164 A 
ATOM     33  C   UNL     1       2.247   1.192  -0.756  0.00  0.00    +0.072 A 
ATOM     34  O   UNL     1       0.906   3.021  -1.451  0.00  0.00    -0.485 OA
ATOM     35  C   UNL     1      -0.429   3.473  -1.699  0.00  0.00    +0.270 C 
ATOM     36  C   UNL     1      -1.216   3.395  -0.384  0.00  0.00    +0.270 C 
ATOM     37  O   UNL     1      -1.213   2.033   0.059  0.00  0.00    -0.485 OA
ENDBRANCH  26  28
ENDBRANCH  23  24
ENDBRANCH  22  23
ENDBRANCH  21  22
ENDBRANCH   4  21
TORSDOF 9
