REMARK  Name = ZINC15545659
REMARK  7 active torsions:
REMARK  status: ('A' for Active; 'I' for Inactive)
REMARK    1  A    between atoms: C_1  and  C_2
REMARK    2  A    between atoms: C_15  and  C_17
REMARK    3  A    between atoms: C_17  and  C_19
REMARK    4  A    between atoms: C_17  and  N_20
REMARK    5  A    between atoms: N_23  and  S_26
REMARK    6  A    between atoms: S_26  and  C_29
REMARK    7  A    between atoms: C_32  and  C_35
REMARK                            x       y       z     vdW  Elec       q    Type
REMARK                         _______ _______ _______ _____ _____    ______ ____
ROOT
ATOM      1  C   UNL     1       2.301  -8.127   0.768  0.00  0.00    +0.120 C 
ATOM      2  C   UNL     1       3.430  -8.544  -0.177  0.00  0.00    +0.032 C 
ENDROOT
BRANCH   1  16
ATOM      3  C   UNL     1      -0.019   1.526   0.010  0.00  0.00    +0.008 C 
ATOM      4  C   UNL     1       0.002  -0.004   0.002  0.00  0.00    -0.009 C 
ATOM      5  C   UNL     1       0.726  -0.501  -1.253  0.00  0.00    +0.008 C 
ATOM      6  C   UNL     1       0.536  -2.011  -1.397  0.00  0.00    +0.037 C 
ATOM      7  C   UNL     1       0.949  -2.688  -0.093  0.00  0.00    -0.023 A 
ATOM      8  C   UNL     1       1.031  -1.976   1.055  0.00  0.00    -0.004 A 
ATOM      9  S   UNL     1       1.537  -3.145   2.292  0.00  0.00    -0.073 S 
ATOM     10  C   UNL     1       1.637  -4.581   1.270  0.00  0.00    +0.116 A 
ATOM     11  C   UNL     1       1.271  -4.101  -0.007  0.00  0.00    +0.075 A 
ATOM     12  C   UNL     1       1.257  -5.054  -1.081  0.00  0.00    +0.260 A 
ATOM     13  O   UNL     1       0.955  -4.742  -2.220  0.00  0.00    -0.267 OA
ATOM     14  N   UNL     1       1.599  -6.321  -0.747  0.00  0.00    -0.309 N 
ATOM     15  H   UNL     1       1.603  -6.997  -1.443  0.00  0.00    +0.170 HD
ATOM     16  C   UNL     1       1.938  -6.688   0.512  0.00  0.00    +0.128 A 
ATOM     17  N   UNL     1       1.962  -5.845   1.522  0.00  0.00    -0.225 NA
ATOM     18  C   UNL     1       0.751  -0.516   1.241  0.00  0.00    +0.046 C 
ENDBRANCH   1  16
BRANCH   1  19
ATOM     19  N   UNL     1       2.746  -8.280   2.160  0.00  0.00    -0.290 NA
ATOM     20  C   UNL     1       3.932  -7.454   2.427  0.00  0.00    +0.102 C 
ATOM     21  C   UNL     1       4.254  -7.499   3.925  0.00  0.00    +0.125 C 
ATOM     22  N   UNL     1       4.371  -8.906   4.335  0.00  0.00    -0.174 NA
ATOM     23  C   UNL     1       3.281  -9.828   3.981  0.00  0.00    +0.125 C 
ATOM     24  C   UNL     1       2.997  -9.691   2.481  0.00  0.00    +0.102 C 
BRANCH  22  25
ATOM     25  S   UNL     1       5.695  -9.439   5.175  0.00  0.00    +0.061 S 
ATOM     26  O   UNL     1       5.794 -10.836   4.934  0.00  0.00    -0.153 OA
ATOM     27  O   UNL     1       6.754  -8.539   4.879  0.00  0.00    -0.153 OA
BRANCH  25  28
ATOM     28  C   UNL     1       5.336  -9.248   6.889  0.00  0.00    +0.106 A 
ATOM     29  C   UNL     1       5.653  -8.065   7.532  0.00  0.00    +0.030 A 
ATOM     30  C   UNL     1       5.375  -7.909   8.874  0.00  0.00    +0.021 A 
ATOM     31  C   UNL     1       4.771  -8.948   9.584  0.00  0.00    +0.052 A 
ATOM     32  C   UNL     1       4.454 -10.140   8.929  0.00  0.00    +0.021 A 
ATOM     33  C   UNL     1       4.734 -10.281   7.586  0.00  0.00    +0.030 A 
BRANCH  31  34
ATOM     34  C   UNL     1       4.480  -8.793  10.977  0.00  0.00    +0.099 C 
ATOM     35  N   UNL     1       4.249  -8.670  12.083  0.00  0.00    -0.191 NA
ENDBRANCH  31  34
ENDBRANCH  25  28
ENDBRANCH  22  25
ENDBRANCH   1  19
TORSDOF 5
