REMARK  Name = ZINC12524525
REMARK  7 active torsions:
REMARK  status: ('A' for Active; 'I' for Inactive)
REMARK    1  A    between atoms: C_1  and  C_2
REMARK    2  A    between atoms: C_2  and  N_3
REMARK    3  A    between atoms: C_14  and  C_16
REMARK    4  A    between atoms: C_18  and  C_30
REMARK    5  A    between atoms: C_20  and  C_25
REMARK    6  A    between atoms: C_20  and  O_29
REMARK    7  A    between atoms: C_30  and  C_32
REMARK                            x       y       z     vdW  Elec       q    Type
REMARK                         _______ _______ _______ _____ _____    ______ ____
ROOT
ATOM      1  C   UNL     1      -2.926   6.373   0.714  0.00  0.00    +0.120 C 
ATOM      2  C   UNL     1      -4.214   7.161   0.455  0.00  0.00    +0.145 C 
ATOM      3  C   UNL     1      -4.100   7.846  -0.911  0.00  0.00    +0.243 C 
ATOM      4  N   UNL     1      -2.889   8.669  -0.936  0.00  0.00    -0.264 N 
ATOM      5  C   UNL     1      -1.813   8.350  -0.201  0.00  0.00    +0.302 C 
ATOM      6  O   UNL     1      -0.830   9.062  -0.266  0.00  0.00    -0.253 OA
ATOM      7  N   UNL     1      -1.779   7.276   0.601  0.00  0.00    -0.292 N 
ATOM      8  H   UNL     1      -2.865   9.462  -1.494  0.00  0.00    +0.153 HD
ATOM      9  H   UNL     1      -0.978   7.094   1.118  0.00  0.00    +0.151 HD
ENDROOT
BRANCH   1  21
ATOM     10  N   UNL     1      -2.970   4.372   5.996  0.00  0.00    -0.340 N 
ATOM     11  C   UNL     1      -2.387   5.419   6.687  0.00  0.00    +0.050 A 
ATOM     12  C   UNL     1      -2.086   5.599   8.034  0.00  0.00    +0.026 A 
ATOM     13  C   UNL     1      -1.491   6.768   8.457  0.00  0.00    +0.002 A 
ATOM     14  C   UNL     1      -1.185   7.772   7.551  0.00  0.00    +0.001 A 
ATOM     15  C   UNL     1      -1.476   7.612   6.213  0.00  0.00    +0.010 A 
ATOM     16  C   UNL     1      -2.078   6.436   5.772  0.00  0.00    +0.008 A 
ATOM     17  C   UNL     1      -2.510   5.952   4.447  0.00  0.00    +0.008 A 
ATOM     18  C   UNL     1      -3.053   4.674   4.648  0.00  0.00    +0.050 A 
ATOM     19  C   UNL     1      -3.549   3.966   3.558  0.00  0.00    +0.027 A 
ATOM     20  C   UNL     1      -3.509   4.522   2.298  0.00  0.00    +0.007 A 
ATOM     21  C   UNL     1      -2.967   5.782   2.100  0.00  0.00    -0.026 A 
ATOM     22  C   UNL     1      -2.471   6.500   3.167  0.00  0.00    +0.016 A 
BRANCH  10  24
ATOM     23  C   UNL     1      -4.896   3.272   7.027  0.00  0.00    +0.027 C 
ATOM     24  C   UNL     1      -3.434   3.122   6.604  0.00  0.00    +0.119 C 
ENDBRANCH  10  24
ENDBRANCH   1  21
BRANCH   3  25
ATOM     25  C   UNL     1      -4.019   6.785  -2.010  0.00  0.00    +0.436 C 
ATOM     26  F   UNL     1      -5.173   5.995  -1.981  0.00  0.00    -0.166 F 
ATOM     27  F   UNL     1      -3.915   7.412  -3.257  0.00  0.00    -0.166 F 
ATOM     28  F   UNL     1      -2.896   5.979  -1.799  0.00  0.00    -0.166 F 
ENDBRANCH   3  25
BRANCH   3  29
ATOM     29  O   UNL     1      -5.245   8.674  -1.127  0.00  0.00    -0.364 OA
ATOM     30  H   UNL     1      -5.239   9.139  -1.975  0.00  0.00    +0.212 HD
ENDBRANCH   3  29
BRANCH   2  31
ATOM     31  C   UNL     1      -4.396   8.202   1.530  0.00  0.00    +0.179 C 
ATOM     32  O   UNL     1      -3.429   8.773   1.991  0.00  0.00    -0.291 OA
BRANCH  31  33
ATOM     33  C   UNL     1      -5.691   8.512   2.000  0.00  0.00    +0.055 A 
ATOM     34  C   UNL     1      -6.074   9.433   2.970  0.00  0.00    +0.019 A 
ATOM     35  C   UNL     1      -7.414   9.532   3.240  0.00  0.00    +0.008 A 
ATOM     36  C   UNL     1      -8.290   8.749   2.553  0.00  0.00    +0.046 A 
ATOM     37  S   UNL     1      -7.262   7.831   1.501  0.00  0.00    -0.094 S 
ENDBRANCH  31  33
ENDBRANCH   2  31
TORSDOF 6
