REMARK  Name = ZINC35915464
REMARK  8 active torsions:
REMARK  status: ('A' for Active; 'I' for Inactive)
REMARK    1  A    between atoms: C_1  and  C_2
REMARK    2  A    between atoms: C_2  and  C_3
REMARK    3  A    between atoms: C_6  and  C_9
REMARK    4  A    between atoms: C_12  and  C_25
REMARK    5  A    between atoms: N_15  and  C_17
REMARK    6  A    between atoms: C_17  and  C_18
REMARK    7  A    between atoms: N_27  and  C_28
REMARK    8  A    between atoms: C_28  and  C_29
REMARK                            x       y       z     vdW  Elec       q    Type
REMARK                         _______ _______ _______ _____ _____    ______ ____
ROOT
ATOM      1  C   UNL     1      -5.419  -2.005   0.043  0.00  0.00    +0.034 C 
ATOM      2  C   UNL     1      -6.338  -1.009  -0.671  0.00  0.00    +0.023 C 
ATOM      3  C   UNL     1      -7.760  -1.575  -0.709  0.00  0.00    +0.090 C 
ATOM      4  C   UNL     1      -7.744  -2.934  -1.413  0.00  0.00    +0.097 C 
ATOM      5  N   UNL     1      -6.852  -3.851  -0.691  0.00  0.00    -0.297 NA
ATOM      6  C   UNL     1      -5.471  -3.352  -0.682  0.00  0.00    +0.093 C 
ENDROOT
BRANCH   1  10
ATOM      7  C   UNL     1      -1.412  -0.526   0.013  0.00  0.00    -0.048 A 
ATOM      8  C   UNL     1      -2.051  -0.766   1.215  0.00  0.00    +0.004 A 
ATOM      9  C   UNL     1      -3.348  -1.244   1.225  0.00  0.00    +0.004 A 
ATOM     10  C   UNL     1      -4.006  -1.482   0.032  0.00  0.00    -0.043 A 
ATOM     11  C   UNL     1      -3.367  -1.241  -1.170  0.00  0.00    +0.004 A 
ATOM     12  C   UNL     1      -2.072  -0.758  -1.179  0.00  0.00    +0.004 A 
BRANCH   7  14
ATOM     13  C   UNL     1      -0.019   1.526   0.010  0.00  0.00    +0.009 C 
ATOM     14  C   UNL     1       0.002  -0.004   0.002  0.00  0.00    +0.032 C 
ENDBRANCH   7  14
ENDBRANCH   1  10
BRANCH   3  15
ATOM     15  C   UNL     1      -8.659  -0.628  -1.461  0.00  0.00    +0.217 C 
ATOM     16  O   UNL     1      -8.207   0.399  -1.922  0.00  0.00    -0.275 OA
ATOM     17  N   UNL     1      -9.964  -0.922  -1.621  0.00  0.00    -0.315 N 
ATOM     18  H   UNL     1     -10.325  -1.744  -1.252  0.00  0.00    +0.149 HD
BRANCH  17  19
ATOM     19  C   UNL     1     -10.838  -0.002  -2.353  0.00  0.00    +0.107 C 
BRANCH  19  20
ATOM     20  C   UNL     1     -12.259  -0.568  -2.390  0.00  0.00    +0.006 C 
ATOM     21  C   UNL     1     -12.840  -0.928  -3.758  0.00  0.00    +0.005 C 
ATOM     22  C   UNL     1     -13.351   0.305  -3.010  0.00  0.00    +0.005 C 
ENDBRANCH  19  20
ENDBRANCH  17  19
ENDBRANCH   3  15
BRANCH   5  23
ATOM     23  C   UNL     1      -6.919  -5.205  -1.257  0.00  0.00    +0.122 C 
BRANCH  23  24
ATOM     24  C   UNL     1      -8.292  -5.781  -1.021  0.00  0.00    +0.002 A 
ATOM     25  C   UNL     1      -8.502  -6.663   0.022  0.00  0.00    +0.008 A 
ATOM     26  C   UNL     1      -9.760  -7.191   0.238  0.00  0.00    +0.000 A 
ATOM     27  C   UNL     1     -10.811  -6.838  -0.588  0.00  0.00    +0.003 A 
ATOM     28  C   UNL     1     -10.604  -5.956  -1.631  0.00  0.00    +0.038 A 
ATOM     29  C   UNL     1      -9.344  -5.422  -1.846  0.00  0.00    +0.128 A 
ATOM     30  F   UNL     1      -9.141  -4.555  -2.862  0.00  0.00    -0.205 F 
ENDBRANCH  23  24
ENDBRANCH   5  23
TORSDOF 7
