REMARK  Name = ZINC14457016
REMARK  6 active torsions:
REMARK  status: ('A' for Active; 'I' for Inactive)
REMARK    1  A    between atoms: C_1  and  O_2
REMARK    2  A    between atoms: O_2  and  C_3
REMARK    3  A    between atoms: C_6  and  C_10
REMARK    4  A    between atoms: C_8  and  O_9
REMARK    5  A    between atoms: C_21  and  S_26
REMARK    6  A    between atoms: S_26  and  N_29
REMARK                            x       y       z     vdW  Elec       q    Type
REMARK                         _______ _______ _______ _____ _____    ______ ____
ROOT
ATOM      1  C   UNL     1      -3.650   1.702  -0.396  0.00  0.00    +0.105 C 
ATOM      2  C   UNL     1      -3.765   3.032   0.353  0.00  0.00    +0.029 C 
ATOM      3  C   UNL     1      -4.865   3.873  -0.360  0.00  0.00    +0.033 C 
ATOM      4  C   UNL     1      -4.127   4.495  -1.530  0.00  0.00    -0.030 C 
ATOM      5  C   UNL     1      -2.837   4.519  -1.299  0.00  0.00    -0.023 C 
ATOM      6  C   UNL     1      -2.537   3.913   0.051  0.00  0.00    +0.049 C 
ATOM      7  C   UNL     1      -1.256   3.140   0.031  0.00  0.00    -0.018 A 
ATOM      8  C   UNL     1      -0.057   3.839   0.023  0.00  0.00    +0.034 A 
ATOM      9  C   UNL     1       1.147   3.165   0.008  0.00  0.00    +0.105 A 
ATOM     10  C   UNL     1       1.174   1.782   0.000  0.00  0.00    +0.030 A 
ATOM     11  C   UNL     1      -0.013   1.076   0.008  0.00  0.00    +0.025 A 
ATOM     12  C   UNL     1      -1.225   1.754   0.017  0.00  0.00    +0.031 A 
ATOM     13  N   UNL     1      -2.419   1.024   0.024  0.00  0.00    -0.336 N 
ATOM     14  H   UNL     1      -2.432   0.093   0.296  0.00  0.00    +0.147 HD
ENDROOT
BRANCH   1  18
ATOM     15  C   UNL     1      -3.509   2.438  -4.606  0.00  0.00    +0.161 A 
ATOM     16  C   UNL     1      -2.369   2.596  -3.834  0.00  0.00    +0.050 A 
ATOM     17  C   UNL     1      -2.418   2.357  -2.473  0.00  0.00    +0.009 A 
ATOM     18  C   UNL     1      -3.603   1.961  -1.880  0.00  0.00    -0.023 A 
ATOM     19  C   UNL     1      -4.742   1.796  -2.646  0.00  0.00    +0.054 A 
ATOM     20  C   UNL     1      -4.701   2.038  -4.009  0.00  0.00    +0.159 A 
BRANCH  15  22
ATOM     21  C   UNL     1      -2.206   3.080  -6.489  0.00  0.00    +0.277 C 
ATOM     22  O   UNL     1      -3.463   2.672  -5.945  0.00  0.00    -0.491 OA
ENDBRANCH  15  22
BRANCH  20  23
ATOM     23  O   UNL     1      -5.822   1.881  -4.763  0.00  0.00    -0.503 OA
ATOM     24  H   UNL     1      -5.933   0.990  -5.122  0.00  0.00    +0.292 HD
ENDBRANCH  20  23
ENDBRANCH   1  18
BRANCH   9  25
ATOM     25  S   UNL     1       2.659   4.071  -0.004  0.00  0.00    +0.056 S 
ATOM     26  O   UNL     1       2.373   5.345   0.557  0.00  0.00    -0.153 OA
ATOM     27  O   UNL     1       3.653   3.208   0.532  0.00  0.00    -0.153 OA
BRANCH  25  28
ATOM     28  N   UNL     1       3.062   4.330  -1.589  0.00  0.00    -0.204 NA
ATOM     29  H   UNL     1       2.489   3.995  -2.296  0.00  0.00    +0.144 HD
ATOM     30  H   UNL     1       3.871   4.817  -1.810  0.00  0.00    +0.144 HD
ENDBRANCH  25  28
ENDBRANCH   9  25
TORSDOF 5
