REMARK  Name = ZINC39605567
REMARK  9 active torsions:
REMARK  status: ('A' for Active; 'I' for Inactive)
REMARK    1  A    between atoms: C_1  and  O_2
REMARK    2  A    between atoms: O_2  and  C_3
REMARK    3  A    between atoms: C_6  and  C_13
REMARK    4  A    between atoms: C_7  and  O_11
REMARK    5  A    between atoms: C_8  and  O_9
REMARK    6  A    between atoms: O_9  and  C_10
REMARK    7  A    between atoms: O_11  and  C_12
REMARK    8  A    between atoms: C_13  and  S_14
REMARK    9  A    between atoms: S_14  and  C_15
REMARK                            x       y       z     vdW  Elec       q    Type
REMARK                         _______ _______ _______ _____ _____    ______ ____
ROOT
ATOM      1  C   UNL     1      -1.201  -0.638   0.010  0.00  0.00    +0.172 A 
ATOM      2  C   UNL     1      -1.803  -0.961   1.207  0.00  0.00    +0.049 A 
ATOM      3  C   UNL     1      -3.042  -1.613   1.222  0.00  0.00    +0.077 A 
ATOM      4  C   UNL     1      -3.667  -1.936   0.015  0.00  0.00    +0.022 A 
ATOM      5  C   UNL     1      -3.060  -1.610  -1.183  0.00  0.00    +0.170 A 
ATOM      6  C   UNL     1      -1.831  -0.957  -1.192  0.00  0.00    +0.204 A 
ATOM      7  C   UNL     1      -3.419  -1.819   2.630  0.00  0.00    +0.340 C 
ATOM      8  O   UNL     1      -4.441  -2.359   3.005  0.00  0.00    -0.245 OA
ATOM      9  O   UNL     1      -2.468  -1.323   3.439  0.00  0.00    -0.456 OA
ATOM     10  C   UNL     1      -1.415  -0.764   2.650  0.00  0.00    +0.272 C 
ENDROOT
BRANCH   1  12
ATOM     11  C   UNL     1      -0.017   1.425   0.010  0.00  0.00    +0.277 C 
ATOM     12  O   UNL     1       0.002  -0.004   0.002  0.00  0.00    -0.491 OA
ENDBRANCH   1  12
BRANCH   6  13
ATOM     13  O   UNL     1      -1.241  -0.635  -2.373  0.00  0.00    -0.488 OA
ATOM     14  C   UNL     1      -0.367  -1.608  -2.949  0.00  0.00    +0.277 C 
ENDBRANCH   6  13
BRANCH   5  15
ATOM     15  O   UNL     1      -3.669  -1.925  -2.358  0.00  0.00    -0.491 OA
ATOM     16  C   UNL     1      -4.553  -0.949  -2.913  0.00  0.00    +0.277 C 
ENDBRANCH   5  15
BRANCH   4  17
ATOM     17  C   UNL     1      -5.000  -2.638   0.021  0.00  0.00    +0.111 C 
BRANCH  17  18
ATOM     18  S   UNL     1      -6.332  -1.407   0.031  0.00  0.00    -0.122 S 
BRANCH  18  19
ATOM     19  C   UNL     1      -7.849  -2.401   0.036  0.00  0.00    +0.225 C 
ATOM     20  C   UNL     1      -7.984  -3.044  -1.325  0.00  0.00    +0.250 C 
ATOM     21  O   UNL     1      -7.104  -3.763  -1.756  0.00  0.00    -0.272 OA
ATOM     22  N   UNL     1      -9.082  -2.812  -2.048  0.00  0.00    -0.281 N 
ATOM     23  C   UNL     1     -10.054  -2.034  -1.602  0.00  0.00    +0.057 A 
ATOM     24  C   UNL     1     -11.203  -1.809  -2.392  0.00  0.00    +0.025 A 
ATOM     25  C   UNL     1     -12.200  -1.013  -1.941  0.00  0.00    +0.002 A 
ATOM     26  C   UNL     1     -12.157  -0.377  -0.690  0.00  0.00    +0.002 A 
ATOM     27  C   UNL     1     -11.105  -0.524   0.146  0.00  0.00    +0.027 A 
ATOM     28  C   UNL     1      -9.979  -1.375  -0.274  0.00  0.00    +0.058 A 
ATOM     29  N   UNL     1      -8.948  -1.541   0.502  0.00  0.00    -0.364 N 
ATOM     30  H   UNL     1      -8.905  -1.108   1.369  0.00  0.00    +0.161 HD
ATOM     31  H   UNL     1      -9.169  -3.224  -2.922  0.00  0.00    +0.155 HD
ENDBRANCH  18  19
ENDBRANCH  17  18
ENDBRANCH   4  17
TORSDOF 6
