REMARK  Name = ZINC59434868
REMARK  5 active torsions:
REMARK  status: ('A' for Active; 'I' for Inactive)
REMARK    1  A    between atoms: C_5  and  S_7
REMARK    2  A    between atoms: S_7  and  C_8
REMARK    3  A    between atoms: C_8  and  C_9
REMARK    4  A    between atoms: N_11  and  C_12
REMARK    5  A    between atoms: C_13  and  N_20
REMARK                            x       y       z     vdW  Elec       q    Type
REMARK                         _______ _______ _______ _____ _____    ______ ____
ROOT
ATOM      1  C   UNL     1       3.444  -4.240   0.541  0.00  0.00    +0.228 C 
ATOM      2  O   UNL     1       2.611  -4.903   1.121  0.00  0.00    -0.275 OA
ATOM      3  N   UNL     1       4.468  -4.848  -0.091  0.00  0.00    -0.282 N 
ATOM      4  H   UNL     1       5.089  -4.325  -0.622  0.00  0.00    +0.155 HD
ENDROOT
BRANCH   3   5
ATOM      5  C   UNL     1       4.634  -6.234   0.018  0.00  0.00    +0.078 A 
ATOM      6  C   UNL     1       5.851  -6.758   0.434  0.00  0.00    +0.149 A 
ATOM      7  C   UNL     1       6.012  -8.125   0.541  0.00  0.00    +0.050 A 
ATOM      8  C   UNL     1       4.963  -8.973   0.234  0.00  0.00    +0.021 A 
ATOM      9  C   UNL     1       3.749  -8.455  -0.181  0.00  0.00    +0.032 A 
ATOM     10  C   UNL     1       3.580  -7.087  -0.285  0.00  0.00    +0.042 A 
ATOM     11 BR   UNL     1       1.919  -6.378  -0.845  0.00  0.00    -0.048 Br
ATOM     12 BR   UNL     1       5.188 -10.845   0.382  0.00  0.00    -0.050 Br
BRANCH   6  13
ATOM     13  N   UNL     1       6.974  -5.852   0.762  0.00  0.00    +0.058 N 
ATOM     14  O   UNL     1       8.062  -6.308   1.026  0.00  0.00    -0.126 OA
ATOM     15  O   UNL     1       6.804  -4.655   0.766  0.00  0.00    -0.126 OA
ENDBRANCH   6  13
ENDBRANCH   3   5
BRANCH   1  16
ATOM     16  C   UNL     1       3.336  -2.737   0.527  0.00  0.00    +0.171 C 
BRANCH  16  17
ATOM     17  S   UNL     1       1.864  -2.229   1.457  0.00  0.00    -0.097 S 
BRANCH  17  22
ATOM     18  C   UNL     1       0.893   1.647   1.871  0.00  0.00    +0.004 A 
ATOM     19  C   UNL     1       1.928   2.246   1.164  0.00  0.00    +0.020 A 
ATOM     20  C   UNL     1       2.895   1.454   0.579  0.00  0.00    +0.112 A 
ATOM     21  N   UNL     1       2.848   0.139   0.683  0.00  0.00    -0.249 NA
ATOM     22  C   UNL     1       1.878  -0.470   1.349  0.00  0.00    +0.097 A 
ATOM     23  C   UNL     1       0.870   0.267   1.964  0.00  0.00    +0.035 A 
ENDBRANCH  17  22
ENDBRANCH  16  17
ENDBRANCH   1  16
TORSDOF 5
