REMARK  Name = ZINC15695321
REMARK  7 active torsions:
REMARK  status: ('A' for Active; 'I' for Inactive)
REMARK    1  A    between atoms: C_1  and  C_2
REMARK    2  A    between atoms: C_2  and  C_4
REMARK    3  A    between atoms: C_2  and  N_12
REMARK    4  A    between atoms: C_13  and  C_15
REMARK    5  A    between atoms: C_15  and  C_16
REMARK    6  A    between atoms: C_16  and  N_17
REMARK    7  A    between atoms: N_20  and  C_21
REMARK                            x       y       z     vdW  Elec       q    Type
REMARK                         _______ _______ _______ _____ _____    ______ ____
ROOT
ATOM      1  C   UNL     1       4.718   7.494   2.853  0.00  0.00    +0.115 C 
ENDROOT
BRANCH   1   2
ATOM      2  N   UNL     1       4.605   8.649   3.748  0.00  0.00    -0.299 N 
ATOM      3  C   UNL     1       5.712   9.184   4.300  0.00  0.00    +0.300 C 
ATOM      4  O   UNL     1       6.804   8.710   4.054  0.00  0.00    -0.253 OA
ATOM      5  N   UNL     1       5.608  10.246   5.123  0.00  0.00    -0.294 N 
ATOM      6  H   UNL     1       3.733   9.027   3.944  0.00  0.00    +0.150 HD
ATOM      7  H   UNL     1       4.736  10.625   5.319  0.00  0.00    +0.151 HD
BRANCH   5   8
ATOM      8  C   UNL     1       6.811  10.829   5.723  0.00  0.00    +0.037 C 
ATOM      9  C   UNL     1       7.521   9.772   6.570  0.00  0.00    +0.029 C 
ATOM     10  C   UNL     1       8.778  10.380   7.196  0.00  0.00    -0.008 C 
ATOM     11  C   UNL     1       8.384  11.564   8.082  0.00  0.00    +0.007 C 
ATOM     12  C   UNL     1       7.674  12.621   7.234  0.00  0.00    -0.008 C 
ATOM     13  C   UNL     1       6.417  12.013   6.609  0.00  0.00    +0.029 C 
ATOM     14  C   UNL     1       8.613  13.103   6.127  0.00  0.00    +0.007 C 
ATOM     15  C   UNL     1       9.007  11.919   5.242  0.00  0.00    -0.008 C 
ATOM     16  C   UNL     1       9.717  10.862   6.089  0.00  0.00    +0.007 C 
ATOM     17  C   UNL     1       7.750  11.310   4.615  0.00  0.00    +0.029 C 
ENDBRANCH   5   8
ENDBRANCH   1   2
BRANCH   1  18
ATOM     18  C   UNL     1       3.325   7.086   2.369  0.00  0.00    +0.114 C 
BRANCH  18  20
ATOM     19  N   UNL     1       2.334   5.363   0.896  0.00  0.00    -0.309 N 
ATOM     20  C   UNL     1       3.441   5.899   1.448  0.00  0.00    +0.215 C 
ATOM     21  O   UNL     1       4.531   5.426   1.203  0.00  0.00    -0.276 OA
ATOM     22  H   UNL     1       1.463   5.742   1.092  0.00  0.00    +0.149 HD
BRANCH  19  24
ATOM     23  C   UNL     1       2.743   4.693  -1.420  0.00  0.00    +0.033 C 
ATOM     24  C   UNL     1       2.448   4.209   0.001  0.00  0.00    +0.100 C 
BRANCH  24  25
ATOM     25  C   UNL     1       1.153   3.438   0.010  0.00  0.00    -0.025 A 
ATOM     26  C   UNL     1      -0.053   4.113   0.025  0.00  0.00    +0.008 A 
ATOM     27  C   UNL     1      -1.242   3.408   0.032  0.00  0.00    +0.041 A 
ATOM     28  C   UNL     1      -1.226   2.024   0.019  0.00  0.00    +0.158 A 
ATOM     29  C   UNL     1      -0.016   1.347   0.009  0.00  0.00    +0.159 A 
ATOM     30  C   UNL     1       1.172   2.056   0.002  0.00  0.00    +0.046 A 
ATOM     31  F   UNL     1       0.002  -0.004   0.002  0.00  0.00    -0.202 F 
ATOM     32  F   UNL     1      -2.387   1.335   0.021  0.00  0.00    -0.202 F 
ENDBRANCH  24  25
ENDBRANCH  19  24
ENDBRANCH  18  20
ENDBRANCH   1  18
TORSDOF 6
