REMARK  Name = ZINC06831954
REMARK  7 active torsions:
REMARK  status: ('A' for Active; 'I' for Inactive)
REMARK    1  A    between atoms: C_1  and  C_2
REMARK    2  A    between atoms: C_7  and  N_8
REMARK    3  A    between atoms: C_12  and  S_14
REMARK    4  A    between atoms: S_14  and  C_15
REMARK    5  A    between atoms: C_15  and  C_16
REMARK    6  A    between atoms: N_18  and  C_19
REMARK    7  A    between atoms: C_24  and  C_25
REMARK                            x       y       z     vdW  Elec       q    Type
REMARK                         _______ _______ _______ _____ _____    ______ ____
ROOT
ATOM      1  N   UNL     1      11.424   0.135  -0.888  0.00  0.00    -0.292 N 
ATOM      2  C   UNL     1      10.090   0.507  -0.763  0.00  0.00    +0.187 A 
ATOM      3  N   UNL     1       9.016  -0.252  -0.668  0.00  0.00    -0.125 NA
ATOM      4  N   UNL     1       7.775   0.330  -0.545  0.00  0.00    -0.133 NA
ATOM      5  C   UNL     1       7.665   1.645  -0.536  0.00  0.00    +0.160 A 
ATOM      6  S   UNL     1       9.374   2.142  -0.691  0.00  0.00    -0.024 S 
ATOM      7  H   UNL     1      12.119   0.810  -0.876  0.00  0.00    +0.154 HD
ENDROOT
BRANCH   1  14
ATOM      8  C   UNL     1      14.149  -0.521  -1.378  0.00  0.00    +0.045 C 
ATOM      9  C   UNL     1      13.080  -1.579  -1.271  0.00  0.00    -0.029 A 
ATOM     10  C   UNL     1      13.412  -2.913  -1.407  0.00  0.00    +0.005 A 
ATOM     11  C   UNL     1      12.431  -3.884  -1.314  0.00  0.00    +0.000 A 
ATOM     12  C   UNL     1      11.117  -3.523  -1.080  0.00  0.00    +0.002 A 
ATOM     13  C   UNL     1      10.779  -2.192  -0.938  0.00  0.00    +0.023 A 
ATOM     14  C   UNL     1      11.762  -1.214  -1.031  0.00  0.00    +0.036 A 
ENDBRANCH   1  14
BRANCH   5  15
ATOM     15  S   UNL     1       6.220   2.644  -0.400  0.00  0.00    -0.088 S 
BRANCH  15  16
ATOM     16  C   UNL     1       4.866   1.442  -0.280  0.00  0.00    +0.172 C 
BRANCH  16  17
ATOM     17  C   UNL     1       3.554   2.174  -0.157  0.00  0.00    +0.227 C 
ATOM     18  O   UNL     1       3.535   3.386  -0.150  0.00  0.00    -0.275 OA
ATOM     19  N   UNL     1       2.403   1.481  -0.053  0.00  0.00    -0.284 N 
ATOM     20  H   UNL     1       2.424   0.514   0.023  0.00  0.00    +0.155 HD
BRANCH  19  21
ATOM     21  C   UNL     1       1.182   2.153  -0.057  0.00  0.00    +0.051 A 
ATOM     22  C   UNL     1       1.074   3.399  -0.658  0.00  0.00    +0.024 A 
ATOM     23  C   UNL     1      -0.137   4.064  -0.661  0.00  0.00    +0.002 A 
ATOM     24  C   UNL     1      -1.250   3.494  -0.065  0.00  0.00    +0.001 A 
ATOM     25  C   UNL     1      -1.163   2.256   0.533  0.00  0.00    +0.021 A 
ATOM     26  C   UNL     1       0.056   1.574   0.548  0.00  0.00    +0.073 A 
BRANCH  26  27
ATOM     27  C   UNL     1       0.155   0.288   1.171  0.00  0.00    +0.101 C 
ATOM     28  N   UNL     1       0.233  -0.732   1.666  0.00  0.00    -0.191 NA
ENDBRANCH  26  27
ENDBRANCH  19  21
ENDBRANCH  16  17
ENDBRANCH  15  16
ENDBRANCH   5  15
TORSDOF 6
