REMARK  Name = ZINC04217043
REMARK  14 active torsions:
REMARK  status: ('A' for Active; 'I' for Inactive)
REMARK    1  A    between atoms: C_1  and  C_2
REMARK    2  A    between atoms: C_2  and  C_3
REMARK    3  A    between atoms: C_3  and  C_5
REMARK    4  A    between atoms: C_3  and  N_6
REMARK    5  A    between atoms: N_6  and  C_7
REMARK    6  A    between atoms: C_7  and  N_9
REMARK    7  A    between atoms: N_9  and  C_10
REMARK    8  A    between atoms: N_9  and  C_25
REMARK    9  A    between atoms: C_10  and  C_11
REMARK   10  A    between atoms: C_16  and  C_24
REMARK   11  A    between atoms: C_17  and  C_23
REMARK   12  A    between atoms: C_25  and  C_26
REMARK   13  A    between atoms: C_31  and  C_32
REMARK   14  A    between atoms: C_31  and  N_66
REMARK                            x       y       z     vdW  Elec       q    Type
REMARK                         _______ _______ _______ _____ _____    ______ ____
ROOT
ATOM      1  N   UNL     1       0.349  -0.721   3.238  0.00  0.00    -0.310 N 
ENDROOT
BRANCH   1   2
ATOM      2  C   UNL     1      -0.538  -0.417   2.269  0.00  0.00    +0.133 C 
ATOM      3  S   UNL     1      -1.560  -1.633   1.631  0.00  0.00    -0.019 S 
BRANCH   2   4
ATOM      4  N   UNL     1      -0.619   0.845   1.802  0.00  0.00    -0.324 N 
ATOM      5  H   UNL     1      -0.040   1.534   2.163  0.00  0.00    +0.148 HD
BRANCH   4   6
ATOM      6  C   UNL     1      -1.583   1.175   0.749  0.00  0.00    +0.069 C 
ATOM      7  C   UNL     1      -0.970   0.865  -0.619  0.00  0.00    +0.028 C 
BRANCH   6   9
ATOM      8  C   UNL     1      -2.657   2.950   2.142  0.00  0.00    +0.005 C 
ATOM      9  C   UNL     1      -1.932   2.663   0.825  0.00  0.00    +0.018 C 
ENDBRANCH   6   9
ENDBRANCH   4   6
ENDBRANCH   2   4
ENDBRANCH   1   2
BRANCH   1  10
ATOM     10  C   UNL     1       0.412  -2.083   3.772  0.00  0.00    +0.147 C 
BRANCH  10  11
ATOM     11  C   UNL     1      -0.509  -2.201   4.959  0.00  0.00    +0.035 A 
ATOM     12  C   UNL     1      -1.779  -2.644   4.787  0.00  0.00    +0.020 A 
ATOM     13  C   UNL     1      -2.648  -2.746   5.961  0.00  0.00    -0.001 A 
ATOM     14  C   UNL     1      -3.968  -3.197   5.847  0.00  0.00    +0.010 A 
ATOM     15  C   UNL     1      -4.753  -3.281   6.962  0.00  0.00    +0.004 A 
ATOM     16  C   UNL     1      -4.254  -2.924   8.207  0.00  0.00    -0.046 A 
ATOM     17  C   UNL     1      -2.957  -2.478   8.342  0.00  0.00    -0.024 A 
ATOM     18  C   UNL     1      -2.138  -2.383   7.222  0.00  0.00    +0.052 A 
ATOM     19  N   UNL     1      -0.837  -1.941   7.329  0.00  0.00    -0.322 N 
ATOM     20  H   UNL     1      -0.477  -1.680   8.225  0.00  0.00    +0.169 HD
ATOM     21  C   UNL     1      -0.044  -1.855   6.246  0.00  0.00    +0.254 A 
ATOM     22  O   UNL     1       1.102  -1.464   6.378  0.00  0.00    -0.268 OA
ATOM     23  C   UNL     1      -2.427  -2.094   9.700  0.00  0.00    +0.046 C 
ATOM     24  C   UNL     1      -5.139  -3.024   9.422  0.00  0.00    +0.044 C 
ENDBRANCH  10  11
ENDBRANCH   1  10
BRANCH   1  25
ATOM     25  C   UNL     1       1.249   0.312   3.757  0.00  0.00    +0.092 C 
BRANCH  25  26
ATOM     26  C   UNL     1       0.586   1.019   4.940  0.00  0.00    -0.051 C 
ATOM     27  C   UNL     1       1.407   2.266   5.352  0.00  0.00    -0.016 C 
ATOM     28  C   UNL     1       0.327   3.135   6.050  0.00  0.00    -0.020 C 
ATOM     29  C   UNL     1      -0.942   2.845   5.221  0.00  0.00    -0.078 C 
ATOM     30  N   UNL     1      -0.727   1.561   4.535  0.00  0.00    +0.382 N 
ATOM     31  H   UNL     1      -0.733   1.713   3.520  0.00  0.00    -0.081 HD
BRANCH  30  32
ATOM     32  C   UNL     1      -1.807   0.604   4.889  0.00  0.00    -0.082 C 
ATOM     33  C   UNL     1      -3.164   1.226   4.555  0.00  0.00    -0.017 C 
ENDBRANCH  30  32
ENDBRANCH  25  26
ENDBRANCH   1  25
TORSDOF 9
