REMARK  Name = ZINC67614511
REMARK  6 active torsions:
REMARK  status: ('A' for Active; 'I' for Inactive)
REMARK    1  A    between atoms: C_4  and  C_7
REMARK    2  A    between atoms: C_10  and  N_12
REMARK    3  A    between atoms: N_15  and  C_16
REMARK    4  A    between atoms: C_16  and  C_17
REMARK    5  A    between atoms: C_20  and  S_22
REMARK    6  A    between atoms: S_22  and  N_25
REMARK                            x       y       z     vdW  Elec       q    Type
REMARK                         _______ _______ _______ _____ _____    ______ ____
ROOT
ATOM      1  N   UNL     1       5.363  -1.736  -1.702  0.00  0.00    -0.296 N 
ATOM      2  C   UNL     1       5.608  -2.099  -2.976  0.00  0.00    +0.300 C 
ATOM      3  O   UNL     1       4.683  -2.347  -3.726  0.00  0.00    -0.253 OA
ATOM      4  N   UNL     1       6.878  -2.187  -3.420  0.00  0.00    -0.295 N 
ATOM      5  H   UNL     1       6.101  -1.538  -1.104  0.00  0.00    +0.151 HD
ATOM      6  H   UNL     1       7.615  -1.990  -2.822  0.00  0.00    +0.151 HD
ENDROOT
BRANCH   1   9
ATOM      7  C   UNL     1       3.711  -0.707  -0.038  0.00  0.00    +0.041 C 
ATOM      8  C   UNL     1       3.675  -2.224   0.162  0.00  0.00    +0.033 C 
ATOM      9  C   UNL     1       3.983  -1.640  -1.219  0.00  0.00    +0.082 C 
BRANCH   7  13
ATOM     10  C   UNL     1      -0.017   1.378   0.010  0.00  0.00    +0.000 A 
ATOM     11  C   UNL     1       1.171   2.086   0.002  0.00  0.00    +0.000 A 
ATOM     12  C   UNL     1       2.377   1.411  -0.013  0.00  0.00    +0.004 A 
ATOM     13  C   UNL     1       2.396   0.029  -0.020  0.00  0.00    -0.042 A 
ATOM     14  C   UNL     1       1.208  -0.679  -0.012  0.00  0.00    +0.004 A 
ATOM     15  C   UNL     1       0.002  -0.004   0.002  0.00  0.00    +0.000 A 
ENDBRANCH   7  13
ENDBRANCH   1   9
BRANCH   4  16
ATOM     16  C   UNL     1       7.144  -2.582  -4.806  0.00  0.00    +0.148 C 
BRANCH  16  17
ATOM     17  C   UNL     1       8.631  -2.604  -5.045  0.00  0.00    +0.009 A 
ATOM     18  C   UNL     1       9.505  -3.628  -4.892  0.00  0.00    +0.015 A 
ATOM     19  C   UNL     1      10.842  -3.417  -5.175  0.00  0.00    +0.036 A 
ATOM     20  C   UNL     1      11.239  -2.192  -5.597  0.00  0.00    +0.142 A 
ATOM     21  S   UNL     1       9.698  -1.289  -5.611  0.00  0.00    -0.072 S 
BRANCH  20  22
ATOM     22  S   UNL     1      12.855  -1.635  -6.026  0.00  0.00    +0.062 S 
ATOM     23  O   UNL     1      12.857  -0.225  -5.856  0.00  0.00    -0.153 OA
ATOM     24  O   UNL     1      13.770  -2.486  -5.349  0.00  0.00    -0.153 OA
BRANCH  22  25
ATOM     25  N   UNL     1      13.055  -1.917  -7.646  0.00  0.00    -0.203 NA
ATOM     26  H   UNL     1      12.339  -2.322  -8.160  0.00  0.00    +0.144 HD
ATOM     27  H   UNL     1      13.889  -1.678  -8.080  0.00  0.00    +0.144 HD
ENDBRANCH  22  25
ENDBRANCH  20  22
ENDBRANCH  16  17
ENDBRANCH   4  16
TORSDOF 6
