REMARK  Name = ZINC51347648
REMARK  15 active torsions:
REMARK  status: ('A' for Active; 'I' for Inactive)
REMARK    1  A    between atoms: C_1  and  C_2
REMARK    2  A    between atoms: C_2  and  C_3
REMARK    3  A    between atoms: C_2  and  C_4
REMARK    4  A    between atoms: C_4  and  N_5
REMARK    5  A    between atoms: C_6  and  C_8
REMARK    6  A    between atoms: C_8  and  C_9
REMARK    7  A    between atoms: C_9  and  C_10
REMARK    8  A    between atoms: C_10  and  O_12
REMARK    9  A    between atoms: O_12  and  C_13
REMARK   10  A    between atoms: C_13  and  C_14
REMARK   11  A    between atoms: C_14  and  C_16
REMARK   12  A    between atoms: C_16  and  O_41
REMARK   13  A    between atoms: C_21  and  C_40
REMARK   14  A    between atoms: C_23  and  O_39
REMARK   15  A    between atoms: C_37  and  C_38
REMARK                            x       y       z     vdW  Elec       q    Type
REMARK                         _______ _______ _______ _____ _____    ______ ____
ROOT
ATOM      1  C   UNL     1     -10.356  -0.417  -6.741  0.00  0.00    +0.133 C 
ATOM      2  C   UNL     1     -10.269  -1.538  -7.806  0.00  0.00    +0.043 C 
ATOM      3  C   UNL     1     -11.732  -1.982  -8.092  0.00  0.00    +0.008 C 
ATOM      4  C   UNL     1     -12.531  -0.743  -7.649  0.00  0.00    +0.002 C 
ATOM      5  C   UNL     1     -11.838  -0.401  -6.312  0.00  0.00    +0.009 C 
ATOM      6  C   UNL     1     -12.336   0.930  -5.808  0.00  0.00    +0.041 C 
ATOM      7  C   UNL     1     -13.861   1.044  -5.929  0.00  0.00    +0.119 C 
ATOM      8  C   UNL     1     -14.552  -0.277  -6.225  0.00  0.00    +0.031 C 
ATOM      9  C   UNL     1     -14.012  -0.926  -7.496  0.00  0.00    -0.001 C 
ATOM     10  C   UNL     1     -14.437  -2.386  -7.602  0.00  0.00    +0.008 C 
ATOM     11  C   UNL     1     -15.878  -2.552  -7.113  0.00  0.00    +0.032 C 
ATOM     12  C   UNL     1     -16.586  -1.222  -7.229  0.00  0.00    -0.060 C 
ATOM     13  C   UNL     1     -17.634  -1.084  -8.030  0.00  0.00    +0.046 C 
ATOM     14  C   UNL     1     -18.329   0.195  -8.157  0.00  0.00    +0.156 C 
ATOM     15  O   UNL     1     -19.313   0.280  -8.864  0.00  0.00    -0.293 OA
ATOM     16  C   UNL     1     -17.827   1.407  -7.417  0.00  0.00    +0.080 C 
ATOM     17  C   UNL     1     -16.335   1.252  -7.118  0.00  0.00    +0.019 C 
ATOM     18  C   UNL     1     -16.067  -0.066  -6.404  0.00  0.00    -0.005 C 
ATOM     19  C   UNL     1     -16.749  -0.087  -5.035  0.00  0.00    +0.016 C 
ATOM     20  C   UNL     1     -12.009  -1.494  -5.256  0.00  0.00    +0.015 C 
ENDROOT
BRANCH   1  21
ATOM     21  C   UNL     1      -9.485  -0.745  -5.559  0.00  0.00    +0.202 C 
ATOM     22  O   UNL     1      -9.175  -1.890  -5.337  0.00  0.00    -0.291 OA
BRANCH  21  23
ATOM     23  C   UNL     1      -8.999   0.357  -4.653  0.00  0.00    +0.309 C 
BRANCH  23  24
ATOM     24  O   UNL     1      -8.195  -0.203  -3.612  0.00  0.00    -0.457 OA
BRANCH  24  25
ATOM     25  C   UNL     1      -7.681   0.652  -2.713  0.00  0.00    +0.308 C 
ATOM     26  O   UNL     1      -7.905   1.835  -2.807  0.00  0.00    -0.251 OA
BRANCH  25  27
ATOM     27  C   UNL     1      -6.823   0.135  -1.587  0.00  0.00    +0.130 C 
BRANCH  27  28
ATOM     28  C   UNL     1      -6.369   1.305  -0.713  0.00  0.00    +0.107 C 
BRANCH  28  30
ATOM     29  N   UNL     1      -4.994   1.646   1.315  0.00  0.00    -0.315 N 
ATOM     30  C   UNL     1      -5.511   0.788   0.413  0.00  0.00    +0.214 C 
ATOM     31  O   UNL     1      -5.285  -0.400   0.507  0.00  0.00    -0.276 OA
ATOM     32  H   UNL     1      -5.175   2.596   1.240  0.00  0.00    +0.149 HD
BRANCH  29  33
ATOM     33  C   UNL     1      -4.161   1.143   2.410  0.00  0.00    +0.107 C 
BRANCH  33  35
ATOM     34  C   UNL     1      -4.923   2.948   3.960  0.00  0.00    +0.009 C 
ATOM     35  C   UNL     1      -3.706   2.314   3.284  0.00  0.00    -0.000 C 
ATOM     36  C   UNL     1      -2.736   1.806   4.352  0.00  0.00    +0.009 C 
ENDBRANCH  33  35
ENDBRANCH  29  33
ENDBRANCH  28  30
ENDBRANCH  27  28
ENDBRANCH  25  27
ENDBRANCH  24  25
ENDBRANCH  23  24
ENDBRANCH  21  23
ENDBRANCH   1  21
BRANCH   7  37
ATOM     37  O   UNL     1     -14.364   1.601  -4.708  0.00  0.00    -0.391 OA
ATOM     38  H   UNL     1     -14.015   2.480  -4.503  0.00  0.00    +0.210 HD
ENDBRANCH   7  37
BRANCH   1  39
ATOM     39  O   UNL     1      -9.991   0.838  -7.308  0.00  0.00    -0.380 OA
ATOM     40  H   UNL     1      -9.074   0.879  -7.614  0.00  0.00    +0.211 HD
ENDBRANCH   1  39
TORSDOF 11
