REMARK  Name = ZINC25422685
REMARK  10 active torsions:
REMARK  status: ('A' for Active; 'I' for Inactive)
REMARK    1  A    between atoms: C_1  and  C_2
REMARK    2  A    between atoms: C_4  and  C_31
REMARK    3  A    between atoms: C_6  and  C_26
REMARK    4  A    between atoms: C_10  and  C_11
REMARK    5  A    between atoms: C_11  and  O_13
REMARK    6  A    between atoms: O_13  and  C_14
REMARK    7  A    between atoms: C_14  and  C_15
REMARK    8  A    between atoms: N_17  and  C_18
REMARK    9  A    between atoms: C_18  and  C_19
REMARK   10  A    between atoms: C_19  and  C_20
REMARK                            x       y       z     vdW  Elec       q    Type
REMARK                         _______ _______ _______ _____ _____    ______ ____
ROOT
ATOM      1  C   UNL     1       3.568   9.573  -0.707  0.00  0.00    +0.046 C 
ATOM      2  C   UNL     1       2.114   9.181  -0.659  0.00  0.00    -0.020 A 
ATOM      3  C   UNL     1       1.730   7.979  -0.044  0.00  0.00    +0.023 A 
ATOM      4  C   UNL     1       2.557   7.006   0.583  0.00  0.00    +0.067 A 
ATOM      5  C   UNL     1       1.986   5.901   1.130  0.00  0.00    +0.042 A 
ATOM      6  C   UNL     1       0.598   5.712   1.068  0.00  0.00    +0.079 A 
ATOM      7  N   UNL     1      -0.174   6.621   0.480  0.00  0.00    -0.239 NA
ATOM      8  C   UNL     1       0.339   7.705  -0.054  0.00  0.00    +0.110 A 
ATOM      9  S   UNL     1      -0.347   9.107  -0.901  0.00  0.00    -0.062 S 
ATOM     10  C   UNL     1       1.170   9.992  -1.212  0.00  0.00    +0.102 A 
ENDROOT
BRANCH   6  11
ATOM     11  C   UNL     1      -0.007   4.504   1.660  0.00  0.00    +0.038 A 
ATOM     12  C   UNL     1      -1.327   4.136   1.711  0.00  0.00    +0.017 A 
ATOM     13  C   UNL     1      -1.659   2.947   2.318  0.00  0.00    +0.008 A 
ATOM     14  C   UNL     1      -0.673   2.181   2.857  0.00  0.00    +0.046 A 
ATOM     15  S   UNL     1       0.787   3.142   2.497  0.00  0.00    -0.095 S 
ENDBRANCH   6  11
BRANCH   4  16
ATOM     16  C   UNL     1       4.050   7.203   0.647  0.00  0.00    +0.418 C 
ATOM     17  F   UNL     1       4.652   6.041   1.141  0.00  0.00    -0.166 F 
ATOM     18  F   UNL     1       4.540   7.473  -0.635  0.00  0.00    -0.166 F 
ATOM     19  F   UNL     1       4.343   8.277   1.494  0.00  0.00    -0.166 F 
ENDBRANCH   4  16
BRANCH  10  20
ATOM     20  C   UNL     1       1.356  11.277  -1.894  0.00  0.00    +0.347 C 
ATOM     21  O   UNL     1       2.477  11.700  -2.099  0.00  0.00    -0.244 OA
BRANCH  20  22
ATOM     22  O   UNL     1       0.283  11.990  -2.293  0.00  0.00    -0.451 OA
BRANCH  22  23
ATOM     23  C   UNL     1       0.541  13.252  -2.962  0.00  0.00    +0.328 C 
BRANCH  23  24
ATOM     24  C   UNL     1      -0.767  13.902  -3.333  0.00  0.00    +0.251 C 
ATOM     25  O   UNL     1      -1.814  13.355  -3.060  0.00  0.00    -0.272 OA
ATOM     26  N   UNL     1      -0.773  15.091  -3.967  0.00  0.00    -0.312 N 
ATOM     27  H   UNL     1       0.177  15.587  -4.214  0.00  0.00    +0.149 HD
BRANCH  26  28
ATOM     28  C   UNL     1      -2.045  15.723  -4.327  0.00  0.00    +0.108 C 
BRANCH  28  29
ATOM     29  C   UNL     1      -1.772  17.053  -5.032  0.00  0.00    +0.049 C 
BRANCH  29  30
ATOM     30  C   UNL     1      -3.080  17.703  -5.402  0.00  0.00    -0.072 C 
ATOM     31  C   UNL     1      -3.576  18.577  -4.587  0.00  0.00    -0.028 C 
ATOM     32  C   UNL     1      -4.872  19.299  -4.814  0.00  0.00    +0.027 C 
ATOM     33  C   UNL     1      -5.287  19.187  -6.282  0.00  0.00    +0.004 C 
ATOM     34  C   UNL     1      -5.199  17.714  -6.701  0.00  0.00    +0.005 C 
ATOM     35  C   UNL     1      -3.724  17.300  -6.697  0.00  0.00    +0.030 C 
ENDBRANCH  29  30
ENDBRANCH  28  29
ENDBRANCH  26  28
ENDBRANCH  23  24
ENDBRANCH  22  23
ENDBRANCH  20  22
ENDBRANCH  10  20
TORSDOF 9
