REMARK  Name = ZINC01070256
REMARK  6 active torsions:
REMARK  status: ('A' for Active; 'I' for Inactive)
REMARK    1  A    between atoms: C_4  and  C_7
REMARK    2  A    between atoms: N_12  and  C_27
REMARK    3  A    between atoms: C_13  and  N_26
REMARK    4  A    between atoms: C_14  and  C_24
REMARK    5  A    between atoms: C_15  and  C_17
REMARK    6  A    between atoms: C_21  and  O_23
REMARK                            x       y       z     vdW  Elec       q    Type
REMARK                         _______ _______ _______ _____ _____    ______ ____
ROOT
ATOM      1  C   UNL     1       3.767  -0.836  -0.764  0.00  0.00    +0.230 A 
ATOM      2  N   UNL     1       3.938  -2.127  -0.581  0.00  0.00    -0.211 NA
ATOM      3  C   UNL     1       5.223  -2.352  -0.314  0.00  0.00    +0.116 A 
ATOM      4  C   UNL     1       5.865  -1.151  -0.329  0.00  0.00    +0.223 A 
ATOM      5  O   UNL     1       4.957  -0.214  -0.619  0.00  0.00    -0.421 OA
ATOM      6  N   UNL     1       7.230  -1.037  -0.074  0.00  0.00    -0.226 N 
ATOM      7  C   UNL     1       7.877  -2.135   0.455  0.00  0.00    +0.109 C 
ATOM      8  C   UNL     1       7.307  -3.364   0.497  0.00  0.00    +0.078 C 
ATOM      9  C   UNL     1       5.929  -3.652  -0.036  0.00  0.00    +0.116 C 
ENDROOT
BRANCH   1  13
ATOM     10  C   UNL     1       0.081   1.065  -1.677  0.00  0.00    +0.000 A 
ATOM     11  C   UNL     1       1.233   1.821  -1.554  0.00  0.00    +0.001 A 
ATOM     12  C   UNL     1       2.434   1.210  -1.257  0.00  0.00    +0.013 A 
ATOM     13  C   UNL     1       2.485  -0.174  -1.081  0.00  0.00    +0.037 A 
ATOM     14  C   UNL     1       1.317  -0.931  -1.206  0.00  0.00    +0.013 A 
ATOM     15  C   UNL     1       0.123  -0.307  -1.503  0.00  0.00    +0.001 A 
ENDBRANCH   1  13
BRANCH   9  16
ATOM     16  C   UNL     1       6.038  -4.448  -1.311  0.00  0.00    -0.030 A 
ATOM     17  C   UNL     1       6.722  -3.927  -2.394  0.00  0.00    +0.005 A 
ATOM     18  C   UNL     1       6.825  -4.655  -3.565  0.00  0.00    +0.004 A 
ATOM     19  C   UNL     1       6.243  -5.905  -3.656  0.00  0.00    +0.045 A 
ATOM     20  C   UNL     1       5.556  -6.430  -2.571  0.00  0.00    +0.117 A 
ATOM     21  C   UNL     1       5.460  -5.700  -1.395  0.00  0.00    +0.050 A 
BRANCH  20  22
ATOM     22  O   UNL     1       4.984  -7.659  -2.658  0.00  0.00    -0.507 OA
ATOM     23  H   UNL     1       5.565  -8.383  -2.389  0.00  0.00    +0.292 HD
ENDBRANCH  20  22
ENDBRANCH   9  16
BRANCH   6  24
ATOM     24  C   UNL     1       7.921   0.149  -0.345  0.00  0.00    +0.043 A 
ATOM     25  C   UNL     1       8.872   0.184  -1.357  0.00  0.00    +0.024 A 
ATOM     26  C   UNL     1       9.552   1.357  -1.623  0.00  0.00    +0.002 A 
ATOM     27  C   UNL     1       9.287   2.494  -0.882  0.00  0.00    +0.000 A 
ATOM     28  C   UNL     1       8.341   2.462   0.126  0.00  0.00    +0.002 A 
ATOM     29  C   UNL     1       7.654   1.295   0.393  0.00  0.00    +0.024 A 
ENDBRANCH   6  24
BRANCH   7  30
ATOM     30  N   UNL     1       9.146  -1.977   0.958  0.00  0.00    -0.345 N 
ATOM     31  H   UNL     1       9.536  -1.091   1.022  0.00  0.00    +0.144 HD
ATOM     32  H   UNL     1       9.653  -2.751   1.248  0.00  0.00    +0.144 HD
ENDBRANCH   7  30
BRANCH   8  33
ATOM     33  C   UNL     1       8.053  -4.441   1.076  0.00  0.00    +0.099 C 
ATOM     34  N   UNL     1       8.644  -5.295   1.535  0.00  0.00    -0.191 NA
ENDBRANCH   8  33
TORSDOF 6
