REMARK  Name = ZINC04949265
REMARK  4 active torsions:
REMARK  status: ('A' for Active; 'I' for Inactive)
REMARK    1  A    between atoms: C_1  and  C_2
REMARK    2  A    between atoms: N_8  and  N_9
REMARK    3  A    between atoms: C_10  and  C_12
REMARK    4  A    between atoms: C_15  and  C_17
REMARK                            x       y       z     vdW  Elec       q    Type
REMARK                         _______ _______ _______ _____ _____    ______ ____
ROOT
ATOM      1  N   UNL     1      -2.582   5.127  -1.153  0.00  0.00    -0.207 N 
ATOM      2  C   UNL     1      -3.470   6.141  -1.132  0.00  0.00    +0.236 C 
ATOM      3  O   UNL     1      -3.890   6.557  -0.073  0.00  0.00    -0.274 OA
ATOM      4  H   UNL     1      -2.247   4.794  -2.000  0.00  0.00    +0.177 HD
ENDROOT
BRANCH   1  11
ATOM      5  C   UNL     1      -0.902   0.581  -2.365  0.00  0.00    +0.008 C 
ATOM      6  C   UNL     1      -1.346   1.330  -1.107  0.00  0.00    -0.009 C 
ATOM      7  C   UNL     1      -0.574   0.798   0.102  0.00  0.00    +0.004 C 
ATOM      8  C   UNL     1      -1.076   1.479   1.376  0.00  0.00    +0.006 C 
ATOM      9  C   UNL     1      -0.779   2.981   1.302  0.00  0.00    +0.052 C 
ATOM     10  C   UNL     1      -1.382   3.526   0.027  0.00  0.00    +0.037 C 
ATOM     11  N   UNL     1      -2.144   4.554   0.048  0.00  0.00    -0.189 NA
ATOM     12  C   UNL     1      -1.061   2.826  -1.275  0.00  0.00    +0.055 C 
ENDBRANCH   1  11
BRANCH   2  13
ATOM     13  C   UNL     1      -3.942   6.757  -2.424  0.00  0.00    +0.085 C 
ATOM     14  C   UNL     1      -3.497   8.189  -2.727  0.00  0.00    +0.022 C 
ATOM     15  C   UNL     1      -4.948   7.905  -2.333  0.00  0.00    +0.032 C 
BRANCH  15  16
ATOM     16  C   UNL     1      -5.393   8.334  -0.959  0.00  0.00    -0.044 A 
ATOM     17  C   UNL     1      -4.463   8.788  -0.042  0.00  0.00    +0.004 A 
ATOM     18  C   UNL     1      -4.872   9.185   1.218  0.00  0.00    +0.000 A 
ATOM     19  C   UNL     1      -6.209   9.120   1.563  0.00  0.00    +0.000 A 
ATOM     20  C   UNL     1      -7.138   8.661   0.649  0.00  0.00    +0.000 A 
ATOM     21  C   UNL     1      -6.730   8.267  -0.612  0.00  0.00    +0.004 A 
ENDBRANCH  15  16
ENDBRANCH   2  13
TORSDOF 3
