REMARK  Name = ZINC15501795
REMARK  8 active torsions:
REMARK  status: ('A' for Active; 'I' for Inactive)
REMARK    1  A    between atoms: C_1  and  C_2
REMARK    2  A    between atoms: C_2  and  C_23
REMARK    3  A    between atoms: N_5  and  C_9
REMARK    4  A    between atoms: C_9  and  C_10
REMARK    5  A    between atoms: C_10  and  C_12
REMARK    6  A    between atoms: C_10  and  O_22
REMARK    7  A    between atoms: C_12  and  O_13
REMARK    8  A    between atoms: O_13  and  C_14
REMARK                            x       y       z     vdW  Elec       q    Type
REMARK                         _______ _______ _______ _____ _____    ______ ____
ROOT
ATOM      1  C   UNL     1       2.900   4.890   1.432  0.00  0.00    +0.047 C 
ATOM      2  C   UNL     1       2.442   4.593   0.003  0.00  0.00    +0.135 C 
ATOM      3  C   UNL     1       2.293   5.876  -0.791  0.00  0.00    +0.251 C 
ATOM      4  O   UNL     1       1.542   6.799  -0.557  0.00  0.00    -0.272 OA
ATOM      5  N   UNL     1       3.169   5.778  -1.810  0.00  0.00    -0.221 N 
ATOM      6  C   UNL     1       3.844   4.623  -1.772  0.00  0.00    +0.310 C 
ATOM      7  O   UNL     1       4.689   4.307  -2.586  0.00  0.00    -0.252 OA
ATOM      8  N   UNL     1       3.482   3.852  -0.731  0.00  0.00    -0.281 N 
ATOM      9  H   UNL     1       3.838   2.977  -0.507  0.00  0.00    +0.152 HD
ENDROOT
BRANCH   2  10
ATOM     10  C   UNL     1       1.148   3.822   0.011  0.00  0.00    -0.014 A 
ATOM     11  C   UNL     1      -0.059   4.497   0.026  0.00  0.00    +0.008 A 
ATOM     12  C   UNL     1      -1.247   3.791   0.034  0.00  0.00    +0.022 A 
ATOM     13  C   UNL     1      -1.230   2.408   0.021  0.00  0.00    +0.059 A 
ATOM     14  C   UNL     1      -0.021   1.732   0.012  0.00  0.00    +0.060 A 
ATOM     15  C   UNL     1       1.167   2.440   0.004  0.00  0.00    +0.027 A 
ATOM     16 CL   UNL     1       0.002  -0.004   0.002  0.00  0.00    -0.082 Cl
ATOM     17 CL   UNL     1      -2.722   1.521   0.023  0.00  0.00    -0.082 Cl
ENDBRANCH   2  10
BRANCH   5  18
ATOM     18  C   UNL     1       3.360   6.809  -2.834  0.00  0.00    +0.152 C 
BRANCH  18  19
ATOM     19  C   UNL     1       2.410   6.548  -4.004  0.00  0.00    +0.170 C 
BRANCH  19  20
ATOM     20  O   UNL     1       2.687   5.263  -4.565  0.00  0.00    -0.387 OA
ATOM     21  H   UNL     1       3.588   5.167  -4.902  0.00  0.00    +0.210 HD
ENDBRANCH  19  20
BRANCH  19  22
ATOM     22  C   UNL     1       2.609   7.624  -5.073  0.00  0.00    +0.262 C 
BRANCH  22  23
ATOM     23  O   UNL     1       1.643   7.449  -6.111  0.00  0.00    -0.486 OA
BRANCH  23  24
ATOM     24  C   UNL     1       1.683   8.329  -7.146  0.00  0.00    +0.157 A 
ATOM     25  C   UNL     1       0.938   9.499  -7.092  0.00  0.00    +0.084 A 
ATOM     26  C   UNL     1       0.984  10.396  -8.144  0.00  0.00    +0.024 A 
ATOM     27  C   UNL     1       1.763  10.123  -9.253  0.00  0.00    +0.003 A 
ATOM     28  C   UNL     1       2.502   8.956  -9.312  0.00  0.00    +0.024 A 
ATOM     29  C   UNL     1       2.464   8.058  -8.261  0.00  0.00    +0.084 A 
ATOM     30 CL   UNL     1       3.391   6.592  -8.336  0.00  0.00    -0.080 Cl
ATOM     31 CL   UNL     1      -0.047   9.839  -5.703  0.00  0.00    -0.080 Cl
ENDBRANCH  23  24
ENDBRANCH  22  23
ENDBRANCH  19  22
ENDBRANCH  18  19
ENDBRANCH   5  18
TORSDOF 7
