REMARK  Name = ZINC09215898
REMARK  11 active torsions:
REMARK  status: ('A' for Active; 'I' for Inactive)
REMARK    1  A    between atoms: C_1  and  C_2
REMARK    2  A    between atoms: C_2  and  C_3
REMARK    3  A    between atoms: C_3  and  C_4
REMARK    4  A    between atoms: C_4  and  C_5
REMARK    5  A    between atoms: C_5  and  O_6
REMARK    6  A    between atoms: O_6  and  C_7
REMARK    7  A    between atoms: C_10  and  C_13
REMARK    8  A    between atoms: C_16  and  O_34
REMARK    9  A    between atoms: N_18  and  C_25
REMARK   10  A    between atoms: C_30  and  C_32
REMARK   11  A    between atoms: C_30  and  C_33
REMARK                            x       y       z     vdW  Elec       q    Type
REMARK                         _______ _______ _______ _____ _____    ______ ____
ROOT
ATOM      1  C   UNL     1      -7.812  -6.647   0.040  0.00  0.00    +0.115 C 
ATOM      2  C   UNL     1      -7.934  -7.462  -1.209  0.00  0.00    +0.072 A 
ATOM      3  C   UNL     1      -7.220  -7.139  -2.387  0.00  0.00    +0.238 A 
ATOM      4  N   UNL     1      -7.516  -8.015  -3.308  0.00  0.00    -0.131 NA
ATOM      5  N   UNL     1      -8.421  -8.926  -2.766  0.00  0.00    -0.243 N 
ATOM      6  C   UNL     1      -8.671  -8.565  -1.463  0.00  0.00    +0.132 A 
ATOM      7  N   UNL     1      -9.541  -9.286  -0.681  0.00  0.00    -0.270 N 
ATOM      8  C   UNL     1      -9.930  -9.223   0.557  0.00  0.00    +0.228 C 
ATOM      9  O   UNL     1     -10.653 -10.131   0.911  0.00  0.00    -0.275 OA
ATOM     10  C   UNL     1      -9.633  -8.222   1.603  0.00  0.00    +0.166 C 
ATOM     11  S   UNL     1      -7.936  -7.627   1.539  0.00  0.00    -0.138 S 
ATOM     12  H   UNL     1      -9.962 -10.012  -1.167  0.00  0.00    +0.156 HD
ENDROOT
BRANCH   5  13
ATOM     13  C   UNL     1      -9.007 -10.073  -3.465  0.00  0.00    +0.114 C 
ATOM     14  C   UNL     1      -9.787  -9.583  -4.688  0.00  0.00    +0.055 C 
ATOM     15  C   UNL     1     -10.329 -10.792  -5.456  0.00  0.00    +0.162 C 
ATOM     16  O   UNL     1      -9.243 -11.642  -5.831  0.00  0.00    -0.374 OA
ATOM     17  C   UNL     1      -8.506 -12.168  -4.725  0.00  0.00    +0.066 C 
ATOM     18  C   UNL     1      -7.891 -11.015  -3.926  0.00  0.00    +0.061 C 
ATOM     19  C   UNL     1      -9.444 -12.970  -3.821  0.00  0.00    +0.041 C 
ATOM     20  C   UNL     1      -7.392 -13.081  -5.243  0.00  0.00    +0.041 C 
ENDBRANCH   5  13
BRANCH   1  24
ATOM     21  C   UNL     1      -4.031  -4.655   0.015  0.00  0.00    +0.121 A 
ATOM     22  C   UNL     1      -5.205  -3.917   0.025  0.00  0.00    +0.046 A 
ATOM     23  C   UNL     1      -6.426  -4.563   0.033  0.00  0.00    +0.008 A 
ATOM     24  C   UNL     1      -6.479  -5.945   0.032  0.00  0.00    -0.030 A 
ATOM     25  C   UNL     1      -5.309  -6.683   0.023  0.00  0.00    +0.008 A 
ATOM     26  C   UNL     1      -4.086  -6.042   0.009  0.00  0.00    +0.046 A 
BRANCH  21  27
ATOM     27  O   UNL     1      -2.829  -4.022   0.007  0.00  0.00    -0.492 OA
BRANCH  27  28
ATOM     28  C   UNL     1      -2.848  -2.593   0.015  0.00  0.00    +0.229 C 
BRANCH  28  29
ATOM     29  C   UNL     1      -1.413  -2.063   0.004  0.00  0.00    +0.041 C 
BRANCH  29  30
ATOM     30  C   UNL     1      -1.433  -0.534   0.013  0.00  0.00    +0.003 C 
BRANCH  30  32
ATOM     31  C   UNL     1      -0.019   1.526   0.010  0.00  0.00    +0.004 C 
ATOM     32  C   UNL     1       0.002  -0.004   0.002  0.00  0.00    -0.003 C 
ENDBRANCH  30  32
ENDBRANCH  29  30
ENDBRANCH  28  29
ENDBRANCH  27  28
ENDBRANCH  21  27
ENDBRANCH   1  24
BRANCH   3  33
ATOM     33  O   UNL     1      -6.368  -6.090  -2.535  0.00  0.00    -0.491 OA
ATOM     34  H   UNL     1      -5.450  -6.294  -2.310  0.00  0.00    +0.294 HD
ENDBRANCH   3  33
TORSDOF 8
