REMARK  Name = ZINC02700764
REMARK  11 active torsions:
REMARK  status: ('A' for Active; 'I' for Inactive)
REMARK    1  A    between atoms: CD1_1  and  CG_2
REMARK    2  A    between atoms: CG_2  and  CD2_3
REMARK    3  A    between atoms: CG_2  and  CB_4
REMARK    4  A    between atoms: CB_4  and  CA_5
REMARK    5  A    between atoms: CA_5  and  C_7
REMARK    6  A    between atoms: CA_5  and  N_50
REMARK    7  A    between atoms: C_9  and  C_10
REMARK    8  A    between atoms: C_9  and  N_50
REMARK    9  A    between atoms: C_10  and  C_12
REMARK   10  A    between atoms: C_10  and  O_26
REMARK   11  A    between atoms: C_12  and  N_13
REMARK                            x       y       z     vdW  Elec       q    Type
REMARK                         _______ _______ _______ _____ _____    ______ ____
ROOT
ATOM      1  C   UNK A   0       1.838   3.746   1.447  0.00  0.00    +0.117 C 
ENDROOT
BRANCH   1   2
ATOM      2  O   UNK A   0       2.917   3.048   2.072  0.00  0.00    -0.392 OA
ATOM      3  H   UNK A   0       3.772   3.175   1.637  0.00  0.00    +0.210 HD
ENDBRANCH   1   2
BRANCH   1   4
ATOM      4  C   UNK A   0       2.130   5.248   1.454  0.00  0.00    -0.048 C 
BRANCH   4   5
ATOM      5  N   LEU A   1       2.275   5.706   2.849  0.00  0.00    +0.390 N 
ATOM      6  H1  LEU A   1       1.404   5.517   3.360  0.00  0.00    -0.085 HD
ATOM      7  H2  LEU A   1       3.049   5.198   3.293  0.00  0.00    -0.085 HD
BRANCH   5   8
ATOM      8  CA  LEU A   1       2.557   7.153   2.886  0.00  0.00    +0.044 C 
BRANCH   8   9
ATOM      9  C   LEU A   1       4.038   7.381   2.723  0.00  0.00    +0.343 C 
ATOM     10  O   LEU A   1       4.782   6.440   2.582  0.00  0.00    -0.248 OA
ATOM     11  OXT LEU A   1       4.530   8.630   2.733  0.00  0.00    -0.248 OA
ENDBRANCH   8   9
BRANCH   8  12
ATOM     12  CB  LEU A   1       2.100   7.719   4.232  0.00  0.00    -0.002 C 
BRANCH  12  14
ATOM     13  CD1 LEU A   1       0.134   8.051   5.738  0.00  0.00    +0.007 C 
ATOM     14  CG  LEU A   1       0.579   7.600   4.345  0.00  0.00    -0.018 C 
ATOM     15  CD2 LEU A   1      -0.082   8.486   3.287  0.00  0.00    +0.007 C 
ENDBRANCH  12  14
ENDBRANCH   8  12
ENDBRANCH   5   8
ENDBRANCH   4   5
ENDBRANCH   1   4
BRANCH   1  16
ATOM     16  C   UNK A   0       1.686   3.263   0.004  0.00  0.00    +0.151 C 
BRANCH  16  17
ATOM     17  N   UNK A   0       1.290   1.853  -0.000  0.00  0.00    -0.337 N 
ATOM     18  C   UNK A   0      -0.017   1.399   0.010  0.00  0.00    +0.050 A 
ATOM     19  C   UNK A   0      -1.240   2.063   0.030  0.00  0.00    +0.026 A 
ATOM     20  C   UNK A   0      -2.416   1.344   0.033  0.00  0.00    +0.002 A 
ATOM     21  C   UNK A   0      -2.395  -0.042   0.025  0.00  0.00    +0.001 A 
ATOM     22  C   UNK A   0      -1.194  -0.718   0.010  0.00  0.00    +0.010 A 
ATOM     23  C   UNK A   0       0.002  -0.004   0.002  0.00  0.00    +0.008 A 
ATOM     24  C   UNK A   0       1.421  -0.403  -0.014  0.00  0.00    +0.008 A 
ATOM     25  C   UNK A   0       2.169   0.784  -0.014  0.00  0.00    +0.050 A 
ATOM     26  C   UNK A   0       3.558   0.714  -0.028  0.00  0.00    +0.026 A 
ATOM     27  C   UNK A   0       4.187  -0.512  -0.040  0.00  0.00    +0.002 A 
ATOM     28  C   UNK A   0       3.447  -1.685  -0.040  0.00  0.00    +0.001 A 
ATOM     29  C   UNK A   0       2.070  -1.636  -0.027  0.00  0.00    +0.010 A 
ENDBRANCH  16  17
ENDBRANCH   1  16
TORSDOF 9
