REMARK  Name = ZINC50864086
REMARK  6 active torsions:
REMARK  status: ('A' for Active; 'I' for Inactive)
REMARK    1  A    between atoms: C_1  and  C_2
REMARK    2  A    between atoms: C_3  and  C_18
REMARK    3  A    between atoms: C_5  and  C_10
REMARK    4  A    between atoms: C_7  and  N_8
REMARK    5  A    between atoms: N_8  and  C_9
REMARK    6  A    between atoms: C_10  and  C_11
REMARK                            x       y       z     vdW  Elec       q    Type
REMARK                         _______ _______ _______ _____ _____    ______ ____
ROOT
ATOM      1  C   UNL     1      -0.018   1.503   0.010  0.00  0.00    +0.049 C 
ATOM      2  C   UNL     1       0.002  -0.004   0.002  0.00  0.00    +0.010 A 
ATOM      3  C   UNL     1       0.006  -0.705  -1.188  0.00  0.00    +0.046 A 
ATOM      4  N   UNL     1       0.024  -2.030  -1.157  0.00  0.00    -0.236 NA
ATOM      5  C   UNL     1       0.038  -2.683  -0.013  0.00  0.00    +0.136 A 
ATOM      6  N   UNL     1       0.035  -2.055   1.146  0.00  0.00    -0.217 NA
ATOM      7  C   UNL     1       0.023  -0.726   1.197  0.00  0.00    +0.125 A 
ATOM      8  C   UNL     1      -0.010   0.027  -2.505  0.00  0.00    +0.066 C 
ENDROOT
BRANCH   7   9
ATOM      9  N   UNL     1       0.026  -0.069   2.417  0.00  0.00    -0.332 N 
ATOM     10  C   UNL     1       0.048  -0.838   3.663  0.00  0.00    +0.127 C 
ATOM     11  H   UNL     1       0.013   0.901   2.445  0.00  0.00    +0.147 HD
ENDBRANCH   7   9
BRANCH   5  12
ATOM     12  C   UNL     1       0.059  -4.190  -0.029  0.00  0.00    +0.111 C 
BRANCH  12  13
ATOM     13  C   UNL     1       1.486  -4.673  -0.040  0.00  0.00    -0.040 A 
ATOM     14  C   UNL     1       2.137  -4.876  -1.243  0.00  0.00    +0.005 A 
ATOM     15  C   UNL     1       3.446  -5.319  -1.254  0.00  0.00    +0.015 A 
ATOM     16  C   UNL     1       4.106  -5.558  -0.062  0.00  0.00    +0.018 A 
ATOM     17  C   UNL     1       3.454  -5.355   1.141  0.00  0.00    +0.015 A 
ATOM     18  C   UNL     1       2.146  -4.907   1.151  0.00  0.00    +0.005 A 
ATOM     19 BR   UNL     1       5.897  -6.164  -0.077  0.00  0.00    -0.050 Br
ENDBRANCH  12  13
ENDBRANCH   5  12
TORSDOF 3
