REMARK  Name = ZINC44321179
REMARK  9 active torsions:
REMARK  status: ('A' for Active; 'I' for Inactive)
REMARK    1  A    between atoms: C_1  and  C_2
REMARK    2  A    between atoms: C_7  and  C_10
REMARK    3  A    between atoms: C_14  and  C_17
REMARK    4  A    between atoms: C_17  and  CA_18
REMARK    5  A    between atoms: CA_18  and  C_20
REMARK    6  A    between atoms: CA_18  and  N_23
REMARK    7  A    between atoms: C_24  and  O_26
REMARK    8  A    between atoms: O_26  and  C_27
REMARK    9  A    between atoms: C_27  and  C_28
REMARK                            x       y       z     vdW  Elec       q    Type
REMARK                         _______ _______ _______ _____ _____    ______ ____
ROOT
ATOM      1  CA  UNL     1      -3.333  -5.809  -4.422  0.00  0.00    +0.193 C 
ENDROOT
BRANCH   1   2
ATOM      2  N   UNL     1      -3.178  -4.591  -5.221  0.00  0.00    -0.267 N 
ATOM      3  C   UNL     1      -2.114  -4.452  -6.037  0.00  0.00    +0.401 C 
ATOM      4  O   UNL     1      -1.283  -5.337  -6.109  0.00  0.00    -0.226 OA
ATOM      5  H   UNL     1      -3.840  -3.885  -5.164  0.00  0.00    +0.153 HD
BRANCH   3   6
ATOM      6  O   UNL     1      -1.970  -3.333  -6.772  0.00  0.00    -0.449 OA
BRANCH   6   7
ATOM      7  C   UNL     1      -0.819  -3.253  -7.614  0.00  0.00    +0.246 C 
BRANCH   7   8
ATOM      8  C   UNL     1      -0.828  -1.921  -8.366  0.00  0.00    +0.088 C 
ATOM      9  C   UNL     1      -1.957  -1.896  -9.366  0.00  0.00    -0.029 A 
ATOM     10  C   UNL     1      -3.325  -1.994  -9.221  0.00  0.00    +0.005 A 
ATOM     11  C   UNL     1      -4.145  -1.940 -10.334  0.00  0.00    +0.000 A 
ATOM     12  C   UNL     1      -3.595  -1.787 -11.594  0.00  0.00    +0.001 A 
ATOM     13  C   UNL     1      -2.228  -1.688 -11.749  0.00  0.00    +0.009 A 
ATOM     14  C   UNL     1      -1.394  -1.742 -10.630  0.00  0.00    -0.014 A 
ATOM     15  C   UNL     1       0.083  -1.662 -10.507  0.00  0.00    -0.014 A 
ATOM     16  C   UNL     1       0.442  -1.767  -9.166  0.00  0.00    -0.029 A 
ATOM     17  C   UNL     1       1.769  -1.720  -8.796  0.00  0.00    +0.005 A 
ATOM     18  C   UNL     1       2.752  -1.568  -9.759  0.00  0.00    +0.000 A 
ATOM     19  C   UNL     1       2.404  -1.464 -11.094  0.00  0.00    +0.001 A 
ATOM     20  C   UNL     1       1.079  -1.510 -11.473  0.00  0.00    +0.009 A 
ENDBRANCH   7   8
ENDBRANCH   6   7
ENDBRANCH   3   6
ENDBRANCH   1   2
BRANCH   1  21
ATOM     21  C   UNL     1      -4.011  -6.870  -5.249  0.00  0.00    +0.376 C 
ATOM     22  O   UNL     1      -4.798  -6.551  -6.124  0.00  0.00    -0.244 OA
ATOM     23  OXT UNL     1      -3.772  -8.048  -5.044  0.00  0.00    -0.244 OA
ENDBRANCH   1  21
BRANCH   1  24
ATOM     24  C   UNL     1      -4.185  -5.503  -3.188  0.00  0.00    +0.070 C 
BRANCH  24  36
ATOM     25  C   UNL     1      -0.045  -2.168   3.728  0.00  0.00    +0.039 C 
ATOM     26  C   UNL     1      -0.987  -1.773   2.589  0.00  0.00    +0.133 C 
ATOM     27  C   UNL     1      -0.596  -2.529   1.315  0.00  0.00    +0.137 C 
ATOM     28  N   UNL     1      -1.389  -1.995   0.196  0.00  0.00    -0.312 N 
ATOM     29  C   UNL     1      -1.418  -0.537   0.002  0.00  0.00    +0.137 C 
ATOM     30  C   UNL     1      -1.770   0.122   1.341  0.00  0.00    +0.133 C 
ATOM     31  O   UNL     1      -0.886  -0.366   2.353  0.00  0.00    -0.371 OA
ATOM     32  C   UNL     1      -3.214  -0.218   1.714  0.00  0.00    +0.039 C 
ATOM     33  C   UNL     1      -2.091  -2.844  -0.652  0.00  0.00    +0.099 A 
ATOM     34  C   UNL     1      -2.927  -2.308  -1.627  0.00  0.00    +0.042 A 
ATOM     35  C   UNL     1      -3.619  -3.164  -2.464  0.00  0.00    +0.008 A 
ATOM     36  C   UNL     1      -3.451  -4.533  -2.299  0.00  0.00    -0.029 A 
ATOM     37  C   UNL     1      -2.604  -4.995  -1.311  0.00  0.00    +0.087 A 
ATOM     38  N   UNL     1      -1.953  -4.155  -0.530  0.00  0.00    -0.349 N 
ATOM     39  H   UNL     1      -1.361  -4.507   0.154  0.00  0.00    +0.167 HD
ENDBRANCH  24  36
ENDBRANCH   1  24
TORSDOF 7
