REMARK  Name = ZINC09461960
REMARK  4 active torsions:
REMARK  status: ('A' for Active; 'I' for Inactive)
REMARK    1  A    between atoms: C_1  and  C_2
REMARK    2  A    between atoms: C_2  and  C_3
REMARK    3  A    between atoms: C_3  and  N_54
REMARK    4  A    between atoms: C_13  and  C_15
REMARK                            x       y       z     vdW  Elec       q    Type
REMARK                         _______ _______ _______ _____ _____    ______ ____
ROOT
ATOM      1  C   UNL     1      -1.322   6.319   0.608  0.00  0.00    -0.073 C 
ATOM      2  C   UNL     1      -2.215   6.136  -0.622  0.00  0.00    +0.052 C 
ATOM      3  C   UNL     1      -3.329   5.143  -0.295  0.00  0.00    +0.189 C 
ATOM      4  C   UNL     1      -4.122   5.633   0.915  0.00  0.00    +0.052 C 
ATOM      5  C   UNL     1      -3.171   5.833   2.098  0.00  0.00    -0.073 C 
ATOM      6  N   UNL     1      -2.753   3.822   0.004  0.00  0.00    -0.207 N 
ATOM      7  C   UNL     1      -3.632   2.648   0.207  0.00  0.00    +0.136 C 
ATOM      8  C   UNL     1      -2.671   1.467   0.023  0.00  0.00    +0.086 C 
ATOM      9  C   UNL     1      -1.302   2.116   0.020  0.00  0.00    +0.070 C 
ATOM     10  N   UNL     1      -1.435   3.402   0.033  0.00  0.00    -0.185 NA
ATOM     11  C   UNL     1      -4.689   2.689  -0.866  0.00  0.00    +0.018 A 
ATOM     12  C   UNL     1      -5.429   1.551  -1.128  0.00  0.00    +0.024 A 
ATOM     13  C   UNL     1      -6.416   1.568  -2.096  0.00  0.00    +0.018 A 
ATOM     14  C   UNL     1      -6.664   2.732  -2.802  0.00  0.00    +0.019 A 
ATOM     15  C   UNL     1      -5.923   3.865  -2.549  0.00  0.00    +0.047 A 
ATOM     16  C   UNL     1      -4.918   3.855  -1.582  0.00  0.00    +0.129 A 
ATOM     17  O   UNL     1      -4.195   4.993  -1.421  0.00  0.00    -0.467 OA
ATOM     18 BR   UNL     1      -7.424   0.008  -2.451  0.00  0.00    -0.050 Br
ATOM     19  N   UNL     1      -2.145   6.831   1.725  0.00  0.00    +0.380 N 
ATOM     20  H   UNL     1      -2.614   7.694   1.425  0.00  0.00    -0.082 HD
ENDROOT
BRANCH   9  21
ATOM     21  C   UNL     1      -0.017   1.393   0.010  0.00  0.00    +0.016 A 
ATOM     22  C   UNL     1       0.002  -0.004   0.002  0.00  0.00    +0.012 A 
ATOM     23  C   UNL     1       1.207  -0.674  -0.013  0.00  0.00    +0.021 A 
ATOM     24  C   UNL     1       2.397   0.034  -0.021  0.00  0.00    +0.042 A 
ATOM     25  C   UNL     1       2.387   1.418  -0.014  0.00  0.00    +0.040 A 
ATOM     26  C   UNL     1       1.188   2.102   0.002  0.00  0.00    +0.051 A 
ATOM     27 CL   UNL     1       1.176   3.838   0.011  0.00  0.00    -0.083 Cl
ATOM     28 CL   UNL     1       3.910  -0.819  -0.040  0.00  0.00    -0.083 Cl
ENDBRANCH   9  21
BRANCH  19  29
ATOM     29  C   UNL     1      -1.286   7.131   2.889  0.00  0.00    -0.079 C 
BRANCH  29  31
ATOM     30  C   UNL     1      -1.289   7.731   5.314  0.00  0.00    +0.002 C 
ATOM     31  C   UNL     1      -2.170   7.391   4.110  0.00  0.00    -0.022 C 
ENDBRANCH  29  31
ENDBRANCH  19  29
TORSDOF 3
