REMARK  Name = ZINC24973194
REMARK  5 active torsions:
REMARK  status: ('A' for Active; 'I' for Inactive)
REMARK    1  A    between atoms: C_1  and  S_2
REMARK    2  A    between atoms: S_2  and  C_5
REMARK    3  A    between atoms: C_10  and  C_11
REMARK    4  A    between atoms: C_11  and  N_12
REMARK    5  A    between atoms: C_15  and  N_18
REMARK                            x       y       z     vdW  Elec       q    Type
REMARK                         _______ _______ _______ _____ _____    ______ ____
ROOT
ATOM      1  N   UNL     1      -6.080   2.723   0.816  0.00  0.00    +0.383 N 
ATOM      2  C   UNL     1      -5.545   2.265  -0.473  0.00  0.00    -0.077 C 
ATOM      3  C   UNL     1      -4.300   1.407  -0.234  0.00  0.00    +0.004 C 
ATOM      4  C   UNL     1      -3.250   2.237   0.509  0.00  0.00    +0.071 C 
ATOM      5  C   UNL     1      -3.848   2.743   1.825  0.00  0.00    +0.004 C 
ATOM      6  C   UNL     1      -5.106   3.562   1.527  0.00  0.00    -0.077 C 
ATOM      7  H   UNL     1      -6.272   1.834   1.435  0.00  0.00    -0.081 HD
ENDROOT
BRANCH   4   8
ATOM      8  N   UNL     1      -2.078   1.405   0.792  0.00  0.00    -0.296 N 
ATOM      9  C   UNL     1      -0.870   1.977   0.963  0.00  0.00    +0.307 C 
ATOM     10  O   UNL     1      -0.767   3.188   0.973  0.00  0.00    -0.252 OA
ATOM     11  N   UNL     1       0.224   1.207   1.124  0.00  0.00    -0.255 N 
ATOM     12  C   UNL     1       0.214  -0.255   1.233  0.00  0.00    +0.120 C 
ATOM     13  C   UNL     1       1.687  -0.656   1.409  0.00  0.00    +0.056 C 
ATOM     14  C   UNL     1       2.444   0.653   1.384  0.00  0.00    -0.024 A 
ATOM     15  C   UNL     1       1.535   1.685   1.216  0.00  0.00    +0.041 A 
ATOM     16  C   UNL     1       2.003   2.999   1.163  0.00  0.00    +0.024 A 
ATOM     17  C   UNL     1       3.352   3.261   1.276  0.00  0.00    +0.002 A 
ATOM     18  C   UNL     1       4.251   2.224   1.443  0.00  0.00    +0.000 A 
ATOM     19  C   UNL     1       3.795   0.920   1.496  0.00  0.00    +0.005 A 
ATOM     20  H   UNL     1      -2.185   0.312   0.864  0.00  0.00    +0.151 HD
ENDBRANCH   4   8
BRANCH   1  21
ATOM     21  C   UNL     1      -7.353   3.433   0.635  0.00  0.00    -0.041 C 
BRANCH  21  27
ATOM     22  C   UNL     1      -8.706   2.684   2.603  0.00  0.00    +0.089 A 
ATOM     23  C   UNL     1      -9.284   2.915   3.838  0.00  0.00    +0.027 A 
ATOM     24  C   UNL     1      -9.139   4.146   4.450  0.00  0.00    +0.002 A 
ATOM     25  C   UNL     1      -8.417   5.147   3.827  0.00  0.00    +0.000 A 
ATOM     26  C   UNL     1      -7.835   4.915   2.595  0.00  0.00    +0.003 A 
ATOM     27  C   UNL     1      -7.983   3.685   1.981  0.00  0.00    -0.039 A 
BRANCH  22  29
ATOM     28  C   UNL     1      -9.952   1.429   0.388  0.00  0.00    +0.200 C 
ATOM     29  S   UNL     1      -8.889   1.115   1.824  0.00  0.00    -0.006 S 
ATOM     30  O   UNL     1      -7.579   0.766   1.397  0.00  0.00    -0.170 OA
ATOM     31  O   UNL     1      -9.577   0.315   2.776  0.00  0.00    -0.170 OA
ENDBRANCH  22  29
ENDBRANCH  21  27
ENDBRANCH   1  21
TORSDOF 4
