REMARK  Name = ZINC35993468
REMARK  12 active torsions:
REMARK  status: ('A' for Active; 'I' for Inactive)
REMARK    1  A    between atoms: C_1  and  C_2
REMARK    2  A    between atoms: C_2  and  O_3
REMARK    3  A    between atoms: O_3  and  C_4
REMARK    4  A    between atoms: C_4  and  C_6
REMARK    5  A    between atoms: C_7  and  C_22
REMARK    6  A    between atoms: N_8  and  C_21
REMARK    7  A    between atoms: C_12  and  C_14
REMARK    8  A    between atoms: C_19  and  C_20
REMARK    9  A    between atoms: C_22  and  N_23
REMARK   10  A    between atoms: N_32  and  C_33
REMARK   11  A    between atoms: C_33  and  C_34
REMARK   12  A    between atoms: C_33  and  C_35
REMARK                            x       y       z     vdW  Elec       q    Type
REMARK                         _______ _______ _______ _____ _____    ______ ____
ROOT
ATOM      1  C   UNL     1      -3.011  -2.355   0.542  0.00  0.00    +0.076 C 
ATOM      2  C   UNL     1      -3.084  -3.679   0.286  0.00  0.00    +0.010 C 
ATOM      3  N   UNL     1      -4.246  -4.249  -0.151  0.00  0.00    -0.264 N 
ATOM      4  C   UNL     1      -5.378  -3.564  -0.356  0.00  0.00    +0.307 C 
ATOM      5  O   UNL     1      -6.363  -4.160  -0.746  0.00  0.00    -0.252 OA
ATOM      6  N   UNL     1      -5.460  -2.236  -0.144  0.00  0.00    -0.288 N 
ATOM      7  C   UNL     1      -4.262  -1.526   0.335  0.00  0.00    +0.144 C 
ATOM      8  C   UNL     1      -4.254  -5.691  -0.410  0.00  0.00    +0.139 C 
ATOM      9  H   UNL     1      -6.291  -1.759  -0.299  0.00  0.00    +0.151 HD
ENDROOT
BRANCH   7  10
ATOM     10  C   UNL     1      -4.601  -0.862   1.644  0.00  0.00    -0.020 A 
ATOM     11  C   UNL     1      -5.444  -1.492   2.541  0.00  0.00    +0.006 A 
ATOM     12  C   UNL     1      -5.755  -0.882   3.742  0.00  0.00    +0.000 A 
ATOM     13  C   UNL     1      -5.223   0.357   4.046  0.00  0.00    +0.000 A 
ATOM     14  C   UNL     1      -4.380   0.986   3.150  0.00  0.00    +0.004 A 
ATOM     15  C   UNL     1      -4.066   0.375   1.951  0.00  0.00    -0.045 A 
ATOM     16  C   UNL     1      -3.142   1.059   0.976  0.00  0.00    +0.044 C 
ENDBRANCH   7  10
BRANCH   1  17
ATOM     17  C   UNL     1      -1.808  -1.764   0.995  0.00  0.00    +0.339 C 
ATOM     18  O   UNL     1      -1.685  -1.456   2.166  0.00  0.00    -0.245 OA
BRANCH  17  19
ATOM     19  O   UNL     1      -0.798  -1.540   0.128  0.00  0.00    -0.462 OA
BRANCH  19  21
ATOM     20  C   UNL     1       1.403  -0.738  -0.464  0.00  0.00    +0.048 C 
ATOM     21  C   UNL     1       0.426  -1.044   0.673  0.00  0.00    +0.229 C 
ENDBRANCH  19  21
ENDBRANCH  17  19
ENDBRANCH   1  17
BRANCH   2  22
ATOM     22  C   UNL     1      -1.864  -4.541   0.484  0.00  0.00    -0.026 C 
BRANCH  22  23
ATOM     23  N   UNL     1      -1.767  -4.936   1.895  0.00  0.00    +0.384 N 
ATOM     24  C   UNL     1      -0.475  -5.584   2.105  0.00  0.00    -0.077 C 
ATOM     25  C   UNL     1      -0.028  -5.355   3.532  0.00  0.00    +0.000 C 
ATOM     26  C   UNL     1      -0.478  -6.539   4.407  0.00  0.00    +0.107 C 
ATOM     27  N   UNL     1      -1.834  -6.990   4.033  0.00  0.00    -0.287 N 
ATOM     28  C   UNL     1      -2.902  -6.061   3.724  0.00  0.00    +0.091 C 
ATOM     29  C   UNL     1      -2.891  -5.731   2.214  0.00  0.00    -0.059 C 
ATOM     30  C   UNL     1      -2.087  -8.312   3.977  0.00  0.00    +0.302 C 
ATOM     31  O   UNL     1      -1.235  -9.109   4.319  0.00  0.00    -0.253 OA
ATOM     32  N   UNL     1      -3.285  -8.751   3.541  0.00  0.00    -0.297 N 
ATOM     33  H   UNL     1      -3.938  -8.120   3.200  0.00  0.00    +0.150 HD
ATOM     34  H   UNL     1      -1.798  -4.101   2.461  0.00  0.00    -0.081 HD
BRANCH  32  35
ATOM     35  C   UNL     1      -3.600 -10.181   3.584  0.00  0.00    +0.068 C 
ATOM     36  C   UNL     1      -4.136 -10.544   4.970  0.00  0.00    +0.027 C 
ATOM     37  C   UNL     1      -4.660 -10.501   2.528  0.00  0.00    +0.027 C 
ENDBRANCH  32  35
ENDBRANCH  22  23
ENDBRANCH   2  22
TORSDOF 7
