REMARK  Name = ZINC03453893
REMARK  6 active torsions:
REMARK  status: ('A' for Active; 'I' for Inactive)
REMARK    1  A    between atoms: C_1  and  C_2
REMARK    2  A    between atoms: C_5  and  S_9
REMARK    3  A    between atoms: C_7  and  C_8
REMARK    4  A    between atoms: S_9  and  C_10
REMARK    5  A    between atoms: N_20  and  S_21
REMARK    6  A    between atoms: S_21  and  C_24
REMARK                            x       y       z     vdW  Elec       q    Type
REMARK                         _______ _______ _______ _____ _____    ______ ____
ROOT
ATOM      1  C   UNL     1       4.971  -0.186  -3.804  0.00  0.00    +0.143 A 
ATOM      2  C   UNL     1       4.621   0.017  -2.448  0.00  0.00    +0.171 A 
ATOM      3  N   UNL     1       4.561   1.234  -1.950  0.00  0.00    -0.227 NA
ATOM      4  C   UNL     1       4.844   2.288  -2.730  0.00  0.00    +0.091 A 
ATOM      5  C   UNL     1       4.793   3.595  -2.221  0.00  0.00    +0.030 A 
ATOM      6  C   UNL     1       5.078   4.650  -3.034  0.00  0.00    +0.002 A 
ATOM      7  C   UNL     1       5.422   4.451  -4.369  0.00  0.00    +0.002 A 
ATOM      8  C   UNL     1       5.482   3.196  -4.896  0.00  0.00    +0.030 A 
ATOM      9  C   UNL     1       5.194   2.086  -4.086  0.00  0.00    +0.091 A 
ATOM     10  N   UNL     1       5.247   0.841  -4.583  0.00  0.00    -0.235 NA
ATOM     11  N   UNL     1       4.334  -1.073  -1.640  0.00  0.00    -0.197 N 
ATOM     12  H   UNL     1       4.374  -1.971  -2.005  0.00  0.00    +0.175 HD
ENDROOT
BRANCH  11  13
ATOM     13  S   UNL     1       3.924  -0.841  -0.052  0.00  0.00    +0.074 S 
ATOM     14  O   UNL     1       4.898   0.037   0.495  0.00  0.00    -0.150 OA
ATOM     15  O   UNL     1       3.667  -2.128   0.493  0.00  0.00    -0.150 OA
BRANCH  13  16
ATOM     16  C   UNL     1       2.393   0.030  -0.031  0.00  0.00    +0.112 A 
ATOM     17  C   UNL     1       1.201  -0.670  -0.024  0.00  0.00    +0.032 A 
ATOM     18  C   UNL     1      -0.002   0.009  -0.009  0.00  0.00    +0.051 A 
ATOM     19  C   UNL     1      -0.017   1.396  -0.000  0.00  0.00    +0.162 A 
ATOM     20  C   UNL     1       1.181   2.100  -0.005  0.00  0.00    +0.164 A 
ATOM     21  C   UNL     1       2.385   1.412  -0.022  0.00  0.00    +0.078 A 
ATOM     22  O   UNL     1       1.190   3.461   0.011  0.00  0.00    -0.485 OA
ATOM     23  C   UNL     1      -0.031   4.117  -0.349  0.00  0.00    +0.270 C 
ATOM     24  C   UNL     1      -1.183   3.430   0.396  0.00  0.00    +0.270 C 
ATOM     25  O   UNL     1      -1.210   2.052   0.007  0.00  0.00    -0.485 OA
ENDBRANCH  13  16
ENDBRANCH  11  13
BRANCH   1  26
ATOM     26  S   UNL     1       5.040  -1.822  -4.456  0.00  0.00    -0.066 S 
BRANCH  26  31
ATOM     27  C   UNL     1       6.120  -0.592 -10.266  0.00  0.00    +0.044 C 
ATOM     28  C   UNL     1       5.851  -0.899  -8.816  0.00  0.00    -0.047 A 
ATOM     29  C   UNL     1       4.551  -0.904  -8.341  0.00  0.00    +0.005 A 
ATOM     30  C   UNL     1       4.300  -1.190  -7.014  0.00  0.00    +0.015 A 
ATOM     31  C   UNL     1       5.355  -1.462  -6.152  0.00  0.00    +0.015 A 
ATOM     32  C   UNL     1       6.659  -1.456  -6.632  0.00  0.00    +0.018 A 
ATOM     33  C   UNL     1       6.903  -1.174  -7.962  0.00  0.00    -0.046 A 
ATOM     34  C   UNL     1       8.317  -1.167  -8.482  0.00  0.00    +0.044 C 
ENDBRANCH  26  31
ENDBRANCH   1  26
TORSDOF 4
