REMARK  Name = ZINC63571285
REMARK  2 active torsions:
REMARK  status: ('A' for Active; 'I' for Inactive)
REMARK    1  A    between atoms: C_5  and  C_7
REMARK    2  A    between atoms: N_24  and  C_25
REMARK                            x       y       z     vdW  Elec       q    Type
REMARK                         _______ _______ _______ _____ _____    ______ ____
ROOT
ATOM      1  C   UNL     1       1.233  -2.187  -0.010  0.00  0.00    +0.137 C 
ATOM      2  C   UNL     1       1.340  -2.682  -1.457  0.00  0.00    +0.131 C 
ATOM      3  C   UNL     1       1.058  -4.178  -1.426  0.00  0.00    -0.035 C 
ATOM      4  C   UNL     1       2.108  -4.770  -1.983  0.00  0.00    -0.001 A 
ATOM      5  C   UNL     1       2.386  -6.181  -2.296  0.00  0.00    +0.010 A 
ATOM      6  C   UNL     1       3.591  -6.442  -2.868  0.00  0.00    +0.001 A 
ATOM      7  C   UNL     1       4.536  -5.453  -3.155  0.00  0.00    +0.002 A 
ATOM      8  C   UNL     1       4.363  -4.130  -2.905  0.00  0.00    +0.026 A 
ATOM      9  C   UNL     1       3.132  -3.731  -2.310  0.00  0.00    +0.043 A 
ATOM     10  N   UNL     1       2.696  -2.526  -1.987  0.00  0.00    -0.375 N 
ATOM     11  C   UNL     1      -0.179  -4.757  -0.783  0.00  0.00    +0.052 C 
ATOM     12  C   UNL     1      -0.270  -4.148   0.628  0.00  0.00    +0.114 C 
ATOM     13  N   UNL     1      -0.023  -2.704   0.553  0.00  0.00    -0.276 N 
ATOM     14  C   UNL     1      -0.957  -1.843   1.004  0.00  0.00    +0.303 C 
ATOM     15  O   UNL     1      -0.805  -0.647   0.851  0.00  0.00    -0.253 OA
ATOM     16  N   UNL     1      -2.059  -2.309   1.625  0.00  0.00    -0.294 N 
ATOM     17  H   UNL     1      -2.145  -3.256   1.814  0.00  0.00    +0.151 HD
ATOM     18  H   UNL     1       3.177  -1.688  -2.076  0.00  0.00    +0.160 HD
ENDROOT
BRANCH  16  19
ATOM     19  C   UNL     1      -3.126  -1.384   2.015  0.00  0.00    +0.037 C 
ATOM     20  C   UNL     1      -2.567  -0.341   2.986  0.00  0.00    +0.029 C 
ATOM     21  C   UNL     1      -3.681   0.625   3.393  0.00  0.00    -0.008 C 
ATOM     22  C   UNL     1      -4.808  -0.154   4.074  0.00  0.00    +0.007 C 
ATOM     23  C   UNL     1      -5.367  -1.197   3.104  0.00  0.00    -0.008 C 
ATOM     24  C   UNL     1      -4.252  -2.163   2.697  0.00  0.00    +0.029 C 
ATOM     25  C   UNL     1      -5.913  -0.494   1.860  0.00  0.00    +0.007 C 
ATOM     26  C   UNL     1      -4.786   0.285   1.178  0.00  0.00    -0.008 C 
ATOM     27  C   UNL     1      -4.228   1.328   2.148  0.00  0.00    +0.007 C 
ATOM     28  C   UNL     1      -3.672  -0.681   0.771  0.00  0.00    +0.029 C 
ENDBRANCH  16  19
BRANCH   1  33
ATOM     29  C   UNL     1       0.925   1.409  -1.118  0.00  0.00    +0.000 A 
ATOM     30  C   UNL     1       1.198   2.086   0.057  0.00  0.00    +0.003 A 
ATOM     31  C   UNL     1       1.483   1.381   1.210  0.00  0.00    +0.039 A 
ATOM     32  C   UNL     1       1.495  -0.004   1.190  0.00  0.00    +0.128 A 
ATOM     33  C   UNL     1       1.221  -0.680   0.013  0.00  0.00    +0.010 A 
ATOM     34  C   UNL     1       0.936   0.027  -1.139  0.00  0.00    +0.008 A 
ATOM     35  F   UNL     1       1.774  -0.694   2.317  0.00  0.00    -0.205 F 
ENDBRANCH   1  33
TORSDOF 2
