REMARK  Name = ZINC04068216
REMARK  10 active torsions:
REMARK  status: ('A' for Active; 'I' for Inactive)
REMARK    1  A    between atoms: C_1  and  C_2
REMARK    2  A    between atoms: C_2  and  O_3
REMARK    3  A    between atoms: O_3  and  C_4
REMARK    4  A    between atoms: C_6  and  C_12
REMARK    5  A    between atoms: C_9  and  O_10
REMARK    6  A    between atoms: C_22  and  C_34
REMARK    7  A    between atoms: C_23  and  C_24
REMARK    8  A    between atoms: C_24  and  O_26
REMARK    9  A    between atoms: O_26  and  C_27
REMARK   10  A    between atoms: C_27  and  C_28
REMARK                            x       y       z     vdW  Elec       q    Type
REMARK                         _______ _______ _______ _____ _____    ______ ____
ROOT
ATOM      1  C   UNL     1      -1.212   6.279  -0.967  0.00  0.00    +0.092 C 
ATOM      2  C   UNL     1      -1.816   7.659  -0.969  0.00  0.00    +0.024 C 
ATOM      3  C   UNL     1      -2.333   8.185  -2.099  0.00  0.00    +0.015 C 
ATOM      4  C   UNL     1      -2.944   9.564  -2.107  0.00  0.00    +0.051 C 
ATOM      5  C   UNL     1      -2.248  10.440  -1.062  0.00  0.00    +0.014 C 
ATOM      6  C   UNL     1      -2.396   9.772   0.309  0.00  0.00    +0.080 C 
ATOM      7  C   UNL     1      -1.827   8.380   0.238  0.00  0.00    +0.162 C 
ATOM      8  O   UNL     1      -1.369   7.872   1.242  0.00  0.00    -0.292 OA
ATOM      9  N   UNL     1      -2.316   7.471  -3.268  0.00  0.00    -0.321 N 
ATOM     10  C   UNL     1      -2.161   6.113  -3.252  0.00  0.00    +0.016 C 
ATOM     11  C   UNL     1      -1.639   5.500  -2.176  0.00  0.00    +0.065 C 
ATOM     12  C   UNL     1      -2.576   5.298  -4.450  0.00  0.00    +0.061 C 
ATOM     13  H   UNL     1      -2.428   7.990  -4.231  0.00  0.00    +0.152 HD
ENDROOT
BRANCH   1  16
ATOM     14  C   UNL     1       2.402   6.001   0.098  0.00  0.00    +0.163 A 
ATOM     15  C   UNL     1       1.021   5.889   0.093  0.00  0.00    +0.054 A 
ATOM     16  C   UNL     1       0.290   6.402  -0.963  0.00  0.00    -0.030 A 
ATOM     17  C   UNL     1       0.934   7.022  -2.017  0.00  0.00    +0.023 A 
ATOM     18  C   UNL     1       2.312   7.142  -2.015  0.00  0.00    +0.063 A 
ATOM     19  C   UNL     1       3.051   6.630  -0.960  0.00  0.00    +0.173 A 
ATOM     20 BR   UNL     1       3.189   7.997  -3.456  0.00  0.00    -0.046 Br
BRANCH  19  21
ATOM     21  O   UNL     1       4.406   6.742  -0.959  0.00  0.00    -0.503 OA
ATOM     22  H   UNL     1       4.918   7.239  -1.796  0.00  0.00    +0.292 HD
ENDBRANCH  19  21
BRANCH  14  23
ATOM     23  O   UNL     1       3.123   5.497   1.136  0.00  0.00    -0.489 OA
BRANCH  23  25
ATOM     24  C   UNL     1       3.363   4.363   3.256  0.00  0.00    +0.048 C 
ATOM     25  C   UNL     1       2.390   4.864   2.187  0.00  0.00    +0.226 C 
ENDBRANCH  23  25
ENDBRANCH  14  23
ENDBRANCH   1  16
BRANCH  11  26
ATOM     26  C   UNL     1      -1.496   4.093  -2.180  0.00  0.00    +0.338 C 
ATOM     27  O   UNL     1      -1.938   3.439  -3.107  0.00  0.00    -0.245 OA
BRANCH  26  28
ATOM     28  O   UNL     1      -0.868   3.475  -1.158  0.00  0.00    -0.459 OA
BRANCH  28  29
ATOM     29  C   UNL     1      -0.759   2.052  -1.228  0.00  0.00    +0.264 C 
BRANCH  29  30
ATOM     30  C   UNL     1      -0.023   1.535   0.010  0.00  0.00    +0.156 C 
ATOM     31  C   UNL     1      -0.010  -0.006   0.006  0.00  0.00    +0.037 C 
ATOM     32  C   UNL     1       1.494  -0.373   0.029  0.00  0.00    +0.031 C 
ATOM     33  C   UNL     1       2.136   0.925   0.582  0.00  0.00    +0.160 C 
ATOM     34  O   UNL     1       1.345   1.974  -0.016  0.00  0.00    -0.373 OA
ENDBRANCH  29  30
ENDBRANCH  28  29
ENDBRANCH  26  28
ENDBRANCH  11  26
TORSDOF 8
