REMARK  Name = ZINC39778099
REMARK  7 active torsions:
REMARK  status: ('A' for Active; 'I' for Inactive)
REMARK    1  A    between atoms: C_1  and  C_2
REMARK    2  A    between atoms: C_3  and  S_12
REMARK    3  A    between atoms: S_12  and  C_13
REMARK    4  A    between atoms: C_13  and  C_15
REMARK    5  A    between atoms: C_13  and  C_16
REMARK    6  A    between atoms: C_21  and  C_28
REMARK    7  A    between atoms: C_22  and  C_27
REMARK                            x       y       z     vdW  Elec       q    Type
REMARK                         _______ _______ _______ _____ _____    ______ ____
ROOT
ATOM      1  C   UNL     1      -0.003  -1.077  -4.016  0.00  0.00    +0.115 C 
ATOM      2  C   UNL     1       1.316  -1.850  -3.950  0.00  0.00    +0.027 C 
ENDROOT
BRANCH   1   3
ATOM      3  C   UNL     1      -0.142  -0.436  -5.373  0.00  0.00    +0.137 C 
ATOM      4  N   UNL     1      -0.649  -1.152  -6.348  0.00  0.00    -0.160 NA
ATOM      5  C   UNL     1      -0.813  -0.674  -7.586  0.00  0.00    +0.271 C 
ATOM      6  O   UNL     1      -1.288  -1.367  -8.470  0.00  0.00    -0.268 OA
ATOM      7  C   UNL     1      -0.395   0.739  -7.853  0.00  0.00    +0.071 C 
ATOM      8  C   UNL     1      -0.465   1.424  -9.004  0.00  0.00    -0.045 C 
ATOM      9  C   UNL     1       0.028   2.853  -9.003  0.00  0.00    +0.076 C 
ATOM     10  S   UNL     1       0.565   3.061  -7.256  0.00  0.00    -0.098 S 
ATOM     11  C   UNL     1       0.159   1.435  -6.672  0.00  0.00    +0.111 C 
ATOM     12  N   UNL     1       0.248   0.820  -5.516  0.00  0.00    -0.226 NA
ATOM     13  C   UNL     1      -1.103   3.824  -9.348  0.00  0.00    +0.024 C 
ATOM     14  C   UNL     1      -1.017   0.791 -10.255  0.00  0.00    +0.041 C 
ENDBRANCH   1   3
BRANCH   1  15
ATOM     15  S   UNL     1      -0.014   0.209  -2.736  0.00  0.00    -0.093 S 
BRANCH  15  18
ATOM     16  C   UNL     1      -0.018   1.503   0.010  0.00  0.00    +0.068 C 
ATOM     17  C   UNL     1       0.002  -0.004   0.002  0.00  0.00    +0.071 A 
ATOM     18  C   UNL     1       0.006  -0.694  -1.224  0.00  0.00    +0.119 A 
ATOM     19  N   UNL     1       0.024  -2.014  -1.249  0.00  0.00    -0.237 NA
ATOM     20  C   UNL     1       0.038  -2.699  -0.098  0.00  0.00    +0.090 A 
ATOM     21  C   UNL     1       0.058  -4.104  -0.092  0.00  0.00    +0.030 A 
ATOM     22  C   UNL     1       0.073  -4.773   1.093  0.00  0.00    +0.002 A 
ATOM     23  C   UNL     1       0.069  -4.085   2.304  0.00  0.00    +0.002 A 
ATOM     24  C   UNL     1       0.050  -2.724   2.337  0.00  0.00    +0.030 A 
ATOM     25  C   UNL     1       0.035  -1.999   1.133  0.00  0.00    +0.090 A 
ATOM     26  N   UNL     1       0.022  -0.659   1.137  0.00  0.00    -0.248 NA
ENDBRANCH  15  18
ENDBRANCH   1  15
TORSDOF 3
