REMARK  Name = ZINC02632853
REMARK  2 active torsions:
REMARK  status: ('A' for Active; 'I' for Inactive)
REMARK    1  A    between atoms: C_3  and  C_8
REMARK    2  A    between atoms: C_11  and  C_18
REMARK                            x       y       z     vdW  Elec       q    Type
REMARK                         _______ _______ _______ _____ _____    ______ ____
ROOT
ATOM      1  C   UNL     1       3.672   2.186  -0.021  0.00  0.00    +0.156 C 
ATOM      2  C   UNL     1       4.175   2.276   1.408  0.00  0.00    +0.030 C 
ATOM      3  C   UNL     1       5.397   1.774   1.667  0.00  0.00    +0.073 C 
ATOM      4  N   UNL     1       6.155   1.208   0.694  0.00  0.00    -0.217 NA
ATOM      5  C   UNL     1       5.785   1.096  -0.562  0.00  0.00    +0.209 C 
ATOM      6  N   UNL     1       4.574   1.553  -0.992  0.00  0.00    -0.182 N 
ATOM      7  N   UNL     1       4.481   1.288  -2.359  0.00  0.00    -0.169 NA
ATOM      8  C   UNL     1       5.572   0.703  -2.738  0.00  0.00    +0.208 C 
ATOM      9  N   UNL     1       6.409   0.564  -1.659  0.00  0.00    -0.275 N 
ATOM     10  H   UNL     1       7.290   0.158  -1.672  0.00  0.00    +0.156 HD
ENDROOT
BRANCH   1  13
ATOM     11  C   UNL     1      -0.017   1.377   0.010  0.00  0.00    +0.003 A 
ATOM     12  C   UNL     1       1.171   2.086   0.002  0.00  0.00    +0.006 A 
ATOM     13  C   UNL     1       2.378   1.413  -0.013  0.00  0.00    -0.019 A 
ATOM     14  C   UNL     1       2.399   0.030  -0.021  0.00  0.00    +0.044 A 
ATOM     15  C   UNL     1       1.211  -0.679  -0.013  0.00  0.00    +0.124 A 
ATOM     16  C   UNL     1       0.002  -0.004   0.002  0.00  0.00    +0.038 A 
ATOM     17  F   UNL     1       1.230  -2.030  -0.022  0.00  0.00    -0.205 F 
ENDBRANCH   1  13
BRANCH   3  18
ATOM     18  C   UNL     1       5.929   1.841   3.050  0.00  0.00    +0.000 A 
ATOM     19  C   UNL     1       5.165   2.413   4.066  0.00  0.00    +0.011 A 
ATOM     20  C   UNL     1       5.664   2.473   5.351  0.00  0.00    +0.016 A 
ATOM     21  C   UNL     1       6.921   1.966   5.632  0.00  0.00    +0.018 A 
ATOM     22  C   UNL     1       7.684   1.397   4.627  0.00  0.00    +0.016 A 
ATOM     23  C   UNL     1       7.192   1.327   3.340  0.00  0.00    +0.011 A 
ATOM     24 BR   UNL     1       7.599   2.053   7.395  0.00  0.00    -0.050 Br
ENDBRANCH   3  18
TORSDOF 2
