REMARK  Name = ZINC63234366
REMARK  13 active torsions:
REMARK  status: ('A' for Active; 'I' for Inactive)
REMARK    1  A    between atoms: C_1  and  O_2
REMARK    2  A    between atoms: O_2  and  C_3
REMARK    3  A    between atoms: C_6  and  C_9
REMARK    4  A    between atoms: C_9  and  C_11
REMARK    5  A    between atoms: C_9  and  C_31
REMARK    6  A    between atoms: C_11  and  N_12
REMARK    7  A    between atoms: N_12  and  C_13
REMARK    8  A    between atoms: C_13  and  C_15
REMARK    9  A    between atoms: C_18  and  O_23
REMARK   10  A    between atoms: C_19  and  O_21
REMARK   11  A    between atoms: O_21  and  C_22
REMARK   12  A    between atoms: O_23  and  C_24
REMARK   13  A    between atoms: C_24  and  C_25
REMARK                            x       y       z     vdW  Elec       q    Type
REMARK                         _______ _______ _______ _____ _____    ______ ____
ROOT
ATOM      1  C   UNL     1      -5.105  -3.504  -1.214  0.00  0.00    +0.114 C 
ENDROOT
BRANCH   1   2
ATOM      2  N   UNL     1      -6.446  -4.093  -1.267  0.00  0.00    -0.337 N 
ATOM      3  H   UNL     1      -7.089  -3.898  -0.568  0.00  0.00    +0.147 HD
BRANCH   2   4
ATOM      4  C   UNL     1      -6.785  -4.905  -2.287  0.00  0.00    +0.080 C 
ATOM      5  S   UNL     1      -5.650  -5.249  -3.522  0.00  0.00    -0.035 S 
BRANCH   4   6
ATOM      6  C   UNL     1      -8.134  -5.498  -2.340  0.00  0.00    +0.007 A 
ATOM      7  C   UNL     1      -9.237  -4.770  -1.886  0.00  0.00    +0.014 A 
ATOM      8  C   UNL     1     -10.497  -5.325  -1.937  0.00  0.00    +0.050 A 
ATOM      9  C   UNL     1     -10.674  -6.607  -2.438  0.00  0.00    +0.162 A 
ATOM     10  C   UNL     1      -9.579  -7.339  -2.893  0.00  0.00    +0.162 A 
ATOM     11  C   UNL     1      -8.313  -6.787  -2.850  0.00  0.00    +0.059 A 
BRANCH  10  12
ATOM     12  O   UNL     1      -9.756  -8.595  -3.383  0.00  0.00    -0.491 OA
ATOM     13  C   UNL     1      -8.589  -9.287  -3.832  0.00  0.00    +0.277 C 
ENDBRANCH  10  12
BRANCH   9  14
ATOM     14  O   UNL     1     -11.918  -7.151  -2.486  0.00  0.00    -0.484 OA
BRANCH  14  15
ATOM     15  C   UNL     1     -12.996  -6.346  -2.003  0.00  0.00    +0.264 C 
BRANCH  15  16
ATOM     16  C   UNL     1     -14.290  -7.108  -2.133  0.00  0.00    -0.010 A 
ATOM     17  C   UNL     1     -15.035  -7.011  -3.293  0.00  0.00    +0.007 A 
ATOM     18  C   UNL     1     -16.222  -7.710  -3.413  0.00  0.00    +0.000 A 
ATOM     19  C   UNL     1     -16.663  -8.507  -2.373  0.00  0.00    +0.000 A 
ATOM     20  C   UNL     1     -15.917  -8.605  -1.213  0.00  0.00    +0.000 A 
ATOM     21  C   UNL     1     -14.728  -7.909  -1.095  0.00  0.00    +0.007 A 
ENDBRANCH  15  16
ENDBRANCH  14  15
ENDBRANCH   9  14
ENDBRANCH   4   6
ENDBRANCH   2   4
ENDBRANCH   1   2
BRANCH   1  22
ATOM     22  C   UNL     1      -4.981  -2.629   0.035  0.00  0.00    +0.064 C 
BRANCH  22  23
ATOM     23  C   UNL     1      -5.085  -3.493   1.265  0.00  0.00    -0.033 C 
ATOM     24  C   UNL     1      -6.013  -3.404   2.245  0.00  0.00    -0.000 A 
ATOM     25  C   UNL     1      -7.158  -2.509   2.452  0.00  0.00    +0.010 A 
ATOM     26  C   UNL     1      -7.923  -2.666   3.557  0.00  0.00    +0.001 A 
ATOM     27  C   UNL     1      -7.649  -3.660   4.507  0.00  0.00    +0.002 A 
ATOM     28  C   UNL     1      -6.615  -4.519   4.386  0.00  0.00    +0.026 A 
ATOM     29  C   UNL     1      -5.746  -4.445   3.263  0.00  0.00    +0.043 A 
ATOM     30  N   UNL     1      -4.694  -5.151   2.926  0.00  0.00    -0.380 N 
ATOM     31  C   UNL     1      -4.178  -4.640   1.651  0.00  0.00    +0.145 C 
ATOM     32  H   UNL     1      -4.322  -5.889   3.432  0.00  0.00    +0.160 HD
ENDBRANCH  22  23
BRANCH  22  36
ATOM     33  C   UNL     1      -1.200  -0.637   0.010  0.00  0.00    +0.120 A 
ATOM     34  C   UNL     1      -2.375   0.101   0.019  0.00  0.00    +0.046 A 
ATOM     35  C   UNL     1      -3.596  -0.545   0.027  0.00  0.00    +0.008 A 
ATOM     36  C   UNL     1      -3.648  -1.927   0.026  0.00  0.00    -0.038 A 
ATOM     37  C   UNL     1      -2.479  -2.665   0.017  0.00  0.00    +0.008 A 
ATOM     38  C   UNL     1      -1.255  -2.024   0.003  0.00  0.00    +0.046 A 
BRANCH  33  40
ATOM     39  C   UNL     1      -0.017   1.425   0.010  0.00  0.00    +0.277 C 
ATOM     40  O   UNL     1       0.002  -0.004   0.002  0.00  0.00    -0.495 OA
ENDBRANCH  33  40
ENDBRANCH  22  36
ENDBRANCH   1  22
TORSDOF 11
