REMARK  Name = ZINC03004971
REMARK  7 active torsions:
REMARK  status: ('A' for Active; 'I' for Inactive)
REMARK    1  A    between atoms: C_1  and  C_2
REMARK    2  A    between atoms: C_3  and  N_15
REMARK    3  A    between atoms: C_4  and  C_14
REMARK    4  A    between atoms: N_5  and  C_7
REMARK    5  A    between atoms: C_7  and  C_8
REMARK    6  A    between atoms: N_15  and  C_16
REMARK    7  A    between atoms: N_23  and  C_26
REMARK                            x       y       z     vdW  Elec       q    Type
REMARK                         _______ _______ _______ _____ _____    ______ ____
ROOT
ATOM      1  C   UNL     1       0.014   0.906  -2.765  0.00  0.00    +0.090 C 
ATOM      2  C   UNL     1      -0.150   1.357  -4.063  0.00  0.00    +0.113 C 
ATOM      3  C   UNL     1      -0.608   0.459  -5.137  0.00  0.00    +0.258 C 
ATOM      4  O   UNL     1      -0.856  -0.711  -4.910  0.00  0.00    -0.270 OA
ATOM      5  N   UNL     1      -0.746   0.967  -6.379  0.00  0.00    -0.235 N 
ATOM      6  C   UNL     1      -0.477   2.253  -6.643  0.00  0.00    +0.320 C 
ATOM      7  O   UNL     1      -0.621   2.650  -7.783  0.00  0.00    -0.251 OA
ATOM      8  N   UNL     1      -0.057   3.126  -5.716  0.00  0.00    -0.190 N 
ATOM      9  C   UNL     1       0.119   2.758  -4.430  0.00  0.00    +0.265 C 
ATOM     10  O   UNL     1       0.496   3.561  -3.597  0.00  0.00    -0.269 OA
ATOM     11  H   UNL     1      -1.046   0.389  -7.097  0.00  0.00    +0.159 HD
ENDROOT
BRANCH   8  12
ATOM     12  C   UNL     1       0.199   4.452  -6.090  0.00  0.00    +0.046 A 
ATOM     13  C   UNL     1       1.500   4.937  -6.085  0.00  0.00    +0.025 A 
ATOM     14  C   UNL     1       1.750   6.245  -6.455  0.00  0.00    +0.017 A 
ATOM     15  C   UNL     1       0.705   7.071  -6.829  0.00  0.00    +0.018 A 
ATOM     16  C   UNL     1      -0.592   6.590  -6.834  0.00  0.00    +0.017 A 
ATOM     17  C   UNL     1      -0.847   5.282  -6.472  0.00  0.00    +0.025 A 
ATOM     18 BR   UNL     1       1.050   8.860  -7.334  0.00  0.00    -0.050 Br
ENDBRANCH   8  12
BRANCH   1  19
ATOM     19  N   UNL     1      -0.345  -0.350  -2.438  0.00  0.00    -0.317 N 
ATOM     20  H   UNL     1      -0.652  -0.962  -3.125  0.00  0.00    +0.152 HD
BRANCH  19  23
ATOM     21  C   UNL     1      -0.426   1.553   0.028  0.00  0.00    +0.069 C 
ATOM     22  C   UNL     1      -0.308   0.051   0.033  0.00  0.00    +0.081 A 
ATOM     23  C   UNL     1      -0.274  -0.776  -1.100  0.00  0.00    +0.075 A 
ATOM     24  C   UNL     1      -0.160  -2.060  -0.674  0.00  0.00    +0.058 A 
ATOM     25  N   UNL     1      -0.124  -2.042   0.678  0.00  0.00    -0.262 N 
ATOM     26  N   UNL     1      -0.213  -0.708   1.095  0.00  0.00    -0.174 NA
ATOM     27  C   UNL     1      -0.088  -3.285  -1.549  0.00  0.00    +0.067 C 
BRANCH  25  28
ATOM     28  C   UNL     1      -0.007  -3.212   1.552  0.00  0.00    +0.179 C 
BRANCH  28  29
ATOM     29  C   UNL     1       1.449  -3.501   1.813  0.00  0.00    -0.026 A 
ATOM     30  C   UNL     1       2.148  -4.343   0.969  0.00  0.00    +0.005 A 
ATOM     31  C   UNL     1       3.483  -4.608   1.208  0.00  0.00    +0.000 A 
ATOM     32  C   UNL     1       4.120  -4.030   2.291  0.00  0.00    +0.000 A 
ATOM     33  C   UNL     1       3.421  -3.187   3.134  0.00  0.00    +0.000 A 
ATOM     34  C   UNL     1       2.086  -2.918   2.892  0.00  0.00    +0.005 A 
ENDBRANCH  28  29
ENDBRANCH  25  28
ENDBRANCH  19  23
ENDBRANCH   1  19
TORSDOF 5
