REMARK  Name = ZINC04108672
REMARK  6 active torsions:
REMARK  status: ('A' for Active; 'I' for Inactive)
REMARK    1  A    between atoms: C_1  and  C_2
REMARK    2  A    between atoms: C_4  and  C_21
REMARK    3  A    between atoms: C_13  and  C_15
REMARK    4  A    between atoms: C_26  and  O_27
REMARK    5  A    between atoms: O_27  and  C_28
REMARK    6  A    between atoms: C_28  and  C_30
REMARK                            x       y       z     vdW  Elec       q    Type
REMARK                         _______ _______ _______ _____ _____    ______ ____
ROOT
ATOM      1  C   UNL     1       0.849   0.743   0.682  0.00  0.00    +0.015 C 
ATOM      2  C   UNL     1       0.798  -0.786   0.645  0.00  0.00    +0.013 C 
ATOM      3  C   UNL     1      -0.525  -1.337   0.084  0.00  0.00    +0.038 C 
ATOM      4  C   UNL     1      -0.735  -2.674   0.810  0.00  0.00    +0.113 C 
ATOM      5  N   UNL     1       0.144  -2.694   1.982  0.00  0.00    -0.271 N 
ATOM      6  C   UNL     1       0.913  -1.445   2.047  0.00  0.00    +0.170 C 
ATOM      7  N   UNL     1       2.343  -1.750   2.201  0.00  0.00    -0.296 N 
ATOM      8  C   UNL     1       2.971  -1.762   1.013  0.00  0.00    +0.215 C 
ATOM      9  O   UNL     1       4.147  -2.012   0.851  0.00  0.00    -0.276 OA
ATOM     10  C   UNL     1       1.997  -1.420  -0.093  0.00  0.00    +0.106 C 
ATOM     11  C   UNL     1       0.233  -3.706   2.867  0.00  0.00    +0.249 C 
ATOM     12  O   UNL     1       0.893  -3.572   3.879  0.00  0.00    -0.270 OA
ATOM     13  H   UNL     1       2.777  -1.921   3.052  0.00  0.00    +0.150 HD
ENDROOT
BRANCH  11  14
ATOM     14  C   UNL     1      -0.472  -4.979   2.608  0.00  0.00    +0.037 A 
ATOM     15  C   UNL     1      -1.504  -5.030   1.669  0.00  0.00    +0.013 A 
ATOM     16  C   UNL     1      -2.158  -6.222   1.432  0.00  0.00    +0.001 A 
ATOM     17  C   UNL     1      -1.794  -7.364   2.123  0.00  0.00    +0.000 A 
ATOM     18  C   UNL     1      -0.773  -7.319   3.056  0.00  0.00    +0.001 A 
ATOM     19  C   UNL     1      -0.107  -6.136   3.298  0.00  0.00    +0.013 A 
ENDBRANCH  11  14
BRANCH   4  20
ATOM     20  C   UNL     1      -0.385  -3.815  -0.111  0.00  0.00    +0.015 A 
ATOM     21  C   UNL     1       0.865  -4.400  -0.041  0.00  0.00    +0.009 A 
ATOM     22  C   UNL     1       1.187  -5.447  -0.885  0.00  0.00    +0.001 A 
ATOM     23  C   UNL     1       0.260  -5.910  -1.801  0.00  0.00    +0.004 A 
ATOM     24  C   UNL     1      -0.990  -5.329  -1.874  0.00  0.00    +0.047 A 
ATOM     25  C   UNL     1      -1.318  -4.282  -1.024  0.00  0.00    +0.137 A 
BRANCH  25  26
ATOM     26  O   UNL     1      -2.550  -3.711  -1.091  0.00  0.00    -0.422 OA
BRANCH  26  27
ATOM     27  C   UNL     1      -2.711  -2.646  -1.900  0.00  0.00    +0.344 C 
ATOM     28  O   UNL     1      -1.801  -2.288  -2.621  0.00  0.00    -0.245 OA
BRANCH  27  29
ATOM     29  C   UNL     1      -3.994  -1.914  -1.910  0.00  0.00    +0.059 A 
ATOM     30  C   UNL     1      -5.040  -2.319  -1.078  0.00  0.00    +0.015 A 
ATOM     31  C   UNL     1      -6.235  -1.630  -1.093  0.00  0.00    +0.001 A 
ATOM     32  C   UNL     1      -6.399  -0.540  -1.929  0.00  0.00    +0.000 A 
ATOM     33  C   UNL     1      -5.367  -0.134  -2.756  0.00  0.00    +0.001 A 
ATOM     34  C   UNL     1      -4.164  -0.810  -2.748  0.00  0.00    +0.015 A 
ENDBRANCH  27  29
ENDBRANCH  26  27
ENDBRANCH  25  26
ENDBRANCH   4  20
TORSDOF 5
