REMARK  Name = ZINC37138164
REMARK  5 active torsions:
REMARK  status: ('A' for Active; 'I' for Inactive)
REMARK    1  A    between atoms: C_4  and  N_11
REMARK    2  A    between atoms: C_6  and  S_7
REMARK    3  A    between atoms: S_7  and  N_10
REMARK    4  A    between atoms: N_11  and  C_12
REMARK    5  A    between atoms: C_12  and  C_13
REMARK                            x       y       z     vdW  Elec       q    Type
REMARK                         _______ _______ _______ _____ _____    ______ ____
ROOT
ATOM      1  C   UNL     1      -0.017   1.378   0.010  0.00  0.00    +0.030 A 
ATOM      2  C   UNL     1       1.170   2.089   0.002  0.00  0.00    +0.024 A 
ATOM      3  C   UNL     1       2.378   1.419  -0.013  0.00  0.00    +0.062 A 
ATOM      4  C   UNL     1       2.400   0.029  -0.021  0.00  0.00    +0.048 A 
ATOM      5  C   UNL     1       1.207  -0.680  -0.013  0.00  0.00    +0.053 A 
ATOM      6  C   UNL     1       0.002  -0.004   0.002  0.00  0.00    +0.107 A 
ATOM      7 CL   UNL     1       3.867   2.312  -0.023  0.00  0.00    -0.082 Cl
ENDROOT
BRANCH   6   8
ATOM      8  S   UNL     1      -1.512  -0.904   0.012  0.00  0.00    +0.056 S 
ATOM      9  O   UNL     1      -1.220  -2.185   0.553  0.00  0.00    -0.153 OA
ATOM     10  O   UNL     1      -2.492  -0.045   0.577  0.00  0.00    -0.153 OA
BRANCH   8  11
ATOM     11  N   UNL     1      -1.949  -1.146  -1.567  0.00  0.00    -0.204 NA
ATOM     12  H   UNL     1      -1.389  -0.806  -2.282  0.00  0.00    +0.144 HD
ATOM     13  H   UNL     1      -2.764  -1.628  -1.776  0.00  0.00    +0.144 HD
ENDBRANCH   8  11
ENDBRANCH   6   8
BRANCH   4  14
ATOM     14  N   UNL     1       3.620  -0.652  -0.036  0.00  0.00    -0.339 N 
ATOM     15  H   UNL     1       4.453  -0.155  -0.042  0.00  0.00    +0.146 HD
BRANCH  14  16
ATOM     16  C   UNL     1       3.641  -2.117  -0.044  0.00  0.00    +0.138 C 
BRANCH  16  17
ATOM     17  C   UNL     1       5.069  -2.599  -0.061  0.00  0.00    -0.012 A 
ATOM     18  C   UNL     1       5.647  -3.005  -1.249  0.00  0.00    +0.008 A 
ATOM     19  C   UNL     1       6.957  -3.447  -1.265  0.00  0.00    +0.020 A 
ATOM     20  C   UNL     1       7.690  -3.482  -0.092  0.00  0.00    +0.042 A 
ATOM     21  C   UNL     1       7.112  -3.076   1.097  0.00  0.00    +0.040 A 
ATOM     22  C   UNL     1       5.802  -2.629   1.111  0.00  0.00    +0.047 A 
ATOM     23 CL   UNL     1       5.078  -2.112   2.602  0.00  0.00    -0.083 Cl
ATOM     24 CL   UNL     1       9.334  -4.038  -0.112  0.00  0.00    -0.083 Cl
ENDBRANCH  16  17
ENDBRANCH  14  16
ENDBRANCH   4  14
TORSDOF 5
