REMARK  Name = ZINC23450141
REMARK  6 active torsions:
REMARK  status: ('A' for Active; 'I' for Inactive)
REMARK    1  A    between atoms: C_1  and  C_2
REMARK    2  A    between atoms: C_8  and  C_12
REMARK    3  A    between atoms: N_15  and  S_18
REMARK    4  A    between atoms: S_18  and  C_21
REMARK    5  A    between atoms: C_26  and  O_27
REMARK    6  A    between atoms: O_27  and  C_28
REMARK                            x       y       z     vdW  Elec       q    Type
REMARK                         _______ _______ _______ _____ _____    ______ ____
ROOT
ATOM      1  C   UNL     1       5.453   1.212  -3.456  0.00  0.00    +0.024 C 
ATOM      2  C   UNL     1       5.694   1.956  -2.141  0.00  0.00    +0.025 C 
ATOM      3  C   UNL     1       4.352   2.430  -1.574  0.00  0.00    +0.110 C 
ATOM      4  N   UNL     1       3.452   1.274  -1.458  0.00  0.00    -0.176 NA
ATOM      5  C   UNL     1       3.227   0.432  -2.641  0.00  0.00    +0.110 C 
ATOM      6  C   UNL     1       4.577  -0.016  -3.197  0.00  0.00    +0.025 C 
ENDROOT
BRANCH   1  14
ATOM      7  C   UNL     1       7.166   3.006  -8.620  0.00  0.00    +0.044 C 
ATOM      8  C   UNL     1       7.651   2.129  -7.494  0.00  0.00    -0.050 A 
ATOM      9  C   UNL     1       8.879   1.490  -7.599  0.00  0.00    +0.005 A 
ATOM     10  C   UNL     1       9.341   0.684  -6.581  0.00  0.00    +0.026 A 
ATOM     11  C   UNL     1       8.570   0.507  -5.436  0.00  0.00    +0.047 A 
ATOM     12  C   UNL     1       7.327   1.157  -5.335  0.00  0.00    +0.003 A 
ATOM     13  C   UNL     1       6.878   1.969  -6.379  0.00  0.00    +0.013 A 
ATOM     14  C   UNL     1       6.774   0.773  -4.034  0.00  0.00    -0.019 A 
ATOM     15  C   UNL     1       7.671  -0.038  -3.451  0.00  0.00    +0.087 A 
ATOM     16  N   UNL     1       8.748  -0.213  -4.277  0.00  0.00    -0.360 N 
ATOM     17  H   UNL     1       9.660  -0.811  -4.135  0.00  0.00    +0.165 HD
ENDBRANCH   1  14
BRANCH   4  18
ATOM     18  S   UNL     1       2.712   0.922  -0.019  0.00  0.00    +0.064 S 
ATOM     19  O   UNL     1       3.514   1.500   1.002  0.00  0.00    -0.153 OA
ATOM     20  O   UNL     1       2.401  -0.465  -0.050  0.00  0.00    -0.153 OA
BRANCH  18  21
ATOM     21  C   UNL     1       1.175   1.782   0.000  0.00  0.00    +0.147 A 
ATOM     22  C   UNL     1      -0.013   1.076   0.008  0.00  0.00    +0.033 A 
ATOM     23  C   UNL     1      -1.219   1.750   0.017  0.00  0.00    +0.017 A 
ATOM     24  C   UNL     1      -1.241   3.134   0.030  0.00  0.00    +0.021 A 
ATOM     25  C   UNL     1      -0.056   3.844   0.022  0.00  0.00    +0.063 A 
ATOM     26  C   UNL     1       1.156   3.169   0.008  0.00  0.00    +0.157 A 
ATOM     27 BR   UNL     1      -2.894   4.052   0.050  0.00  0.00    -0.050 Br
BRANCH  26  28
ATOM     28  O   UNL     1       2.323   3.866   0.001  0.00  0.00    -0.404 OA
BRANCH  28  29
ATOM     29  C   UNL     1       2.227   5.292   0.009  0.00  0.00    +0.575 C 
ATOM     30  F   UNL     1       1.548   5.707   1.159  0.00  0.00    -0.133 F 
ATOM     31  F   UNL     1       3.512   5.845  -0.000  0.00  0.00    -0.133 F 
ATOM     32  F   UNL     1       1.528   5.718  -1.125  0.00  0.00    -0.133 F 
ENDBRANCH  28  29
ENDBRANCH  26  28
ENDBRANCH  18  21
ENDBRANCH   4  18
TORSDOF 5
