REMARK  Name = ZINC02049813
REMARK  9 active torsions:
REMARK  status: ('A' for Active; 'I' for Inactive)
REMARK    1  A    between atoms: C_1  and  N_2
REMARK    2  A    between atoms: N_2  and  C_3
REMARK    3  A    between atoms: N_2  and  C_4
REMARK    4  A    between atoms: C_4  and  C_5
REMARK    5  A    between atoms: C_5  and  C_6
REMARK    6  A    between atoms: C_6  and  O_7
REMARK    7  A    between atoms: O_7  and  C_8
REMARK    8  A    between atoms: C_11  and  N_14
REMARK    9  A    between atoms: N_14  and  C_15
REMARK                            x       y       z     vdW  Elec       q    Type
REMARK                         _______ _______ _______ _____ _____    ______ ____
ROOT
ATOM      1  N   UNL     1      -7.670  -6.563  -0.266  0.00  0.00    -0.333 N 
ATOM      2  H   UNL     1      -8.481  -6.031  -0.287  0.00  0.00    +0.147 HD
ENDROOT
BRANCH   1   3
ATOM      3  C   UNL     1      -7.736  -8.009  -0.495  0.00  0.00    +0.132 C 
ATOM      4  C   UNL     1      -7.546  -8.609   0.830  0.00  0.00    -0.019 A 
ATOM      5  C   UNL     1      -8.559  -8.233   1.741  0.00  0.00    +0.006 A 
ATOM      6  C   UNL     1      -8.596  -8.734   3.018  0.00  0.00    +0.000 A 
ATOM      7  C   UNL     1      -7.615  -9.633   3.396  0.00  0.00    +0.000 A 
ATOM      8  C   UNL     1      -6.633  -9.965   2.504  0.00  0.00    +0.005 A 
ATOM      9  C   UNL     1      -6.575  -9.414   1.193  0.00  0.00    -0.032 A 
ATOM     10  C   UNL     1      -5.279  -9.893   0.567  0.00  0.00    +0.109 C 
ATOM     11  S   UNL     1      -5.470 -10.479  -1.116  0.00  0.00    -0.120 S 
ATOM     12  C   UNL     1      -6.111  -9.128  -2.070  0.00  0.00    +0.013 A 
ATOM     13  C   UNL     1      -7.036  -8.220  -1.760  0.00  0.00    -0.009 A 
ATOM     14  C   UNL     1      -7.436  -7.283  -2.742  0.00  0.00    +0.007 A 
ATOM     15  C   UNL     1      -6.866  -7.245  -3.988  0.00  0.00    +0.000 A 
ATOM     16  C   UNL     1      -5.866  -8.152  -4.294  0.00  0.00    +0.001 A 
ATOM     17  C   UNL     1      -5.505  -9.076  -3.354  0.00  0.00    +0.015 A 
ENDBRANCH   1   3
BRANCH   1  21
ATOM     18  C   UNL     1      -3.998  -4.736   0.479  0.00  0.00    +0.121 A 
ATOM     19  C   UNL     1      -5.167  -3.991   0.532  0.00  0.00    +0.047 A 
ATOM     20  C   UNL     1      -6.383  -4.596   0.286  0.00  0.00    +0.026 A 
ATOM     21  C   UNL     1      -6.437  -5.950  -0.016  0.00  0.00    +0.028 A 
ATOM     22  C   UNL     1      -5.267  -6.695  -0.070  0.00  0.00    +0.026 A 
ATOM     23  C   UNL     1      -4.050  -6.088   0.172  0.00  0.00    +0.047 A 
BRANCH  18  24
ATOM     24  O   UNL     1      -2.800  -4.140   0.722  0.00  0.00    -0.492 OA
BRANCH  24  25
ATOM     25  C   UNL     1      -2.820  -2.745   1.032  0.00  0.00    +0.227 C 
BRANCH  25  26
ATOM     26  C   UNL     1      -1.391  -2.256   1.272  0.00  0.00    +0.022 C 
BRANCH  26  27
ATOM     27  C   UNL     1      -1.413  -0.762   1.604  0.00  0.00    -0.076 C 
BRANCH  27  29
ATOM     28  C   UNL     1      -0.049   1.163   2.035  0.00  0.00    -0.097 C 
ATOM     29  N   UNL     1      -0.040  -0.292   1.835  0.00  0.00    +0.376 N 
ATOM     30  C   UNL     1       0.507  -0.948   3.030  0.00  0.00    -0.097 C 
ATOM     31  H   UNL     1       0.532  -0.518   1.035  0.00  0.00    -0.083 HD
ENDBRANCH  27  29
ENDBRANCH  26  27
ENDBRANCH  25  26
ENDBRANCH  24  25
ENDBRANCH  18  24
ENDBRANCH   1  21
TORSDOF 7
