REMARK  Name = ZINC20357445
REMARK  17 active torsions:
REMARK  status: ('A' for Active; 'I' for Inactive)
REMARK    1  A    between atoms: C_1  and  C_2
REMARK    2  A    between atoms: C_2  and  N_3
REMARK    3  A    between atoms: N_3  and  C_4
REMARK    4  A    between atoms: N_3  and  C_6
REMARK    5  A    between atoms: C_4  and  C_5
REMARK    6  A    between atoms: C_6  and  C_7
REMARK    7  A    between atoms: C_7  and  N_8
REMARK    8  A    between atoms: C_9  and  C_29
REMARK    9  A    between atoms: C_11  and  C_16
REMARK   10  A    between atoms: C_16  and  C_18
REMARK   11  A    between atoms: C_25  and  C_28
REMARK   12  A    between atoms: C_33  and  O_35
REMARK   13  A    between atoms: O_35  and  C_36
REMARK   14  A    between atoms: C_36  and  C_37
REMARK   15  A    between atoms: C_37  and  C_38
REMARK   16  A    between atoms: C_38  and  C_39
REMARK   17  A    between atoms: C_38  and  C_40
REMARK                            x       y       z     vdW  Elec       q    Type
REMARK                         _______ _______ _______ _____ _____    ______ ____
ROOT
ATOM      1  N   UNL     1      -5.011   0.784  -0.737  0.00  0.00    -0.285 N 
ATOM      2  C   UNL     1      -3.571   1.067  -0.745  0.00  0.00    +0.145 C 
ATOM      3  C   UNL     1      -3.434   2.544  -1.035  0.00  0.00    +0.076 C 
ATOM      4  C   UNL     1      -4.688   3.034  -1.168  0.00  0.00    +0.249 C 
ATOM      5  C   UNL     1      -5.660   1.935  -0.987  0.00  0.00    +0.288 C 
ATOM      6  O   UNL     1      -6.868   2.055  -1.051  0.00  0.00    -0.266 OA
ATOM      7  O   UNL     1      -5.003   4.324  -1.428  0.00  0.00    -0.282 OA
ENDROOT
BRANCH   2   8
ATOM      8  C   UNL     1      -2.891   0.263  -1.823  0.00  0.00    -0.019 A 
ATOM      9  C   UNL     1      -3.479   0.140  -3.069  0.00  0.00    +0.006 A 
ATOM     10  C   UNL     1      -2.855  -0.592  -4.061  0.00  0.00    +0.004 A 
ATOM     11  C   UNL     1      -1.647  -1.213  -3.807  0.00  0.00    +0.045 A 
ATOM     12  C   UNL     1      -1.058  -1.096  -2.557  0.00  0.00    +0.121 A 
ATOM     13  C   UNL     1      -1.683  -0.356  -1.564  0.00  0.00    +0.051 A 
BRANCH  12  14
ATOM     14  O   UNL     1       0.130  -1.706  -2.305  0.00  0.00    -0.492 OA
BRANCH  14  15
ATOM     15  C   UNL     1       0.717  -2.452  -3.374  0.00  0.00    +0.229 C 
BRANCH  15  16
ATOM     16  C   UNL     1       2.039  -3.061  -2.905  0.00  0.00    +0.044 C 
BRANCH  16  17
ATOM     17  C   UNL     1       2.667  -3.859  -4.049  0.00  0.00    -0.014 C 
ATOM     18  C   UNL     1       3.041  -2.909  -5.189  0.00  0.00    +0.007 C 
ATOM     19  C   UNL     1       3.925  -4.570  -3.546  0.00  0.00    +0.007 C 
ENDBRANCH  16  17
ENDBRANCH  15  16
ENDBRANCH  14  15
ENDBRANCH  12  14
ENDBRANCH   2   8
BRANCH   3  20
ATOM     20  C   UNL     1      -2.183   3.302  -1.143  0.00  0.00    +0.195 C 
ATOM     21  O   UNL     1      -1.851   3.777  -2.213  0.00  0.00    -0.287 OA
BRANCH  20  22
ATOM     22  C   UNL     1      -1.327   3.487   0.045  0.00  0.00    +0.023 A 
ATOM     23  C   UNL     1      -1.737   3.005   1.292  0.00  0.00    +0.015 A 
ATOM     24  C   UNL     1      -0.940   3.180   2.397  0.00  0.00    +0.046 A 
ATOM     25  C   UNL     1       0.290   3.833   2.286  0.00  0.00    +0.124 A 
ATOM     26  C   UNL     1       0.693   4.311   1.042  0.00  0.00    -0.002 A 
ATOM     27  C   UNL     1      -0.096   4.143  -0.068  0.00  0.00    +0.019 A 
ATOM     28  C   UNL     1       2.043   4.975   1.238  0.00  0.00    +0.083 C 
ATOM     29  C   UNL     1       2.097   5.137   2.776  0.00  0.00    +0.175 C 
ATOM     30  O   UNL     1       1.225   4.093   3.239  0.00  0.00    -0.488 OA
ATOM     31  C   UNL     1       1.568   6.510   3.195  0.00  0.00    +0.052 C 
ENDBRANCH  20  22
ENDBRANCH   3  20
BRANCH   1  32
ATOM     32  C   UNL     1      -5.631  -0.522  -0.498  0.00  0.00    +0.090 C 
BRANCH  32  33
ATOM     33  C   UNL     1      -5.894  -0.695   0.999  0.00  0.00    -0.060 C 
BRANCH  33  34
ATOM     34  N   UNL     1      -6.516  -2.004   1.239  0.00  0.00    +0.380 N 
ATOM     35  H   UNL     1      -5.891  -2.769   0.753  0.00  0.00    -0.082 HD
BRANCH  34  37
ATOM     36  C   UNL     1      -5.172  -2.706   3.162  0.00  0.00    -0.017 C 
ATOM     37  C   UNL     1      -6.567  -2.308   2.675  0.00  0.00    -0.082 C 
ENDBRANCH  34  37
BRANCH  34  38
ATOM     38  C   UNL     1      -7.855  -2.068   0.639  0.00  0.00    -0.082 C 
ATOM     39  C   UNL     1      -8.312  -3.527   0.566  0.00  0.00    -0.017 C 
ENDBRANCH  34  38
ENDBRANCH  33  34
ENDBRANCH  32  33
ENDBRANCH   1  32
TORSDOF 12
