REMARK  Name = ZINC35726900
REMARK  12 active torsions:
REMARK  status: ('A' for Active; 'I' for Inactive)
REMARK    1  A    between atoms: C_1  and  C_2
REMARK    2  A    between atoms: C_2  and  C_3
REMARK    3  A    between atoms: C_3  and  C_4
REMARK    4  A    between atoms: C_4  and  C_5
REMARK    5  A    between atoms: C_5  and  C_6
REMARK    6  A    between atoms: C_13  and  C_15
REMARK    7  A    between atoms: C_20  and  S_22
REMARK    8  A    between atoms: S_22  and  C_23
REMARK    9  A    between atoms: C_23  and  C_24
REMARK   10  A    between atoms: N_26  and  C_27
REMARK   11  A    between atoms: C_27  and  C_28
REMARK   12  A    between atoms: C_28  and  N_29
REMARK                            x       y       z     vdW  Elec       q    Type
REMARK                         _______ _______ _______ _____ _____    ______ ____
ROOT
ATOM      1  C   UNL     1       1.218  -4.067  -2.690  0.00  0.00    +0.216 C 
ATOM      2  O   UNL     1       0.733  -4.686  -1.766  0.00  0.00    -0.276 OA
ATOM      3  N   UNL     1       1.915  -4.717  -3.643  0.00  0.00    -0.296 N 
ATOM      4  C   UNL     1       2.421  -3.998  -4.821  0.00  0.00    +0.127 C 
ATOM      5  C   UNL     1       1.903  -4.700  -6.083  0.00  0.00    +0.125 C 
ATOM      6  N   UNL     1       2.170  -6.140  -5.963  0.00  0.00    -0.312 N 
ATOM      7  C   UNL     1       1.664  -6.859  -4.786  0.00  0.00    +0.128 C 
ATOM      8  C   UNL     1       2.187  -6.156  -3.521  0.00  0.00    +0.090 C 
ATOM      9  C   UNL     1       1.470  -6.712  -2.289  0.00  0.00    +0.029 C 
ATOM     10  C   UNL     1       2.886  -6.808  -6.944  0.00  0.00    +0.127 A 
ATOM     11  C   UNL     1       3.546  -6.096  -7.947  0.00  0.00    +0.083 A 
ATOM     12  C   UNL     1       4.249  -6.805  -8.905  0.00  0.00    +0.135 A 
ATOM     13  N   UNL     1       4.275  -8.129  -8.842  0.00  0.00    -0.210 NA
ATOM     14  C   UNL     1       3.639  -8.778  -7.877  0.00  0.00    +0.192 A 
ATOM     15  N   UNL     1       2.959  -8.135  -6.939  0.00  0.00    -0.207 NA
ATOM     16 CL   UNL     1       5.087  -5.969 -10.175  0.00  0.00    -0.062 Cl
ENDROOT
BRANCH   1  17
ATOM     17  C   UNL     1       1.042  -2.573  -2.772  0.00  0.00    +0.096 C 
BRANCH  17  18
ATOM     18  C   UNL     1       0.220  -2.090  -1.576  0.00  0.00    +0.009 C 
BRANCH  18  19
ATOM     19  C   UNL     1       0.041  -0.573  -1.659  0.00  0.00    +0.000 C 
BRANCH  19  21
ATOM     20  C   UNL     1      -0.960   1.427  -0.546  0.00  0.00    +0.004 C 
ATOM     21  C   UNL     1      -0.782  -0.090  -0.463  0.00  0.00    -0.003 C 
ENDBRANCH  19  21
ENDBRANCH  18  19
ENDBRANCH  17  18
ENDBRANCH   1  17
BRANCH  14  22
ATOM     22  S   UNL     1       3.705 -10.538  -7.838  0.00  0.00    -0.077 S 
BRANCH  22  23
ATOM     23  C   UNL     1       4.725 -10.972  -9.273  0.00  0.00    +0.173 C 
BRANCH  23  24
ATOM     24  C   UNL     1       4.863 -12.470  -9.357  0.00  0.00    +0.223 C 
ATOM     25  O   UNL     1       4.326 -13.176  -8.530  0.00  0.00    -0.275 OA
ATOM     26  N   UNL     1       5.583 -13.026 -10.352  0.00  0.00    -0.316 N 
ATOM     27  H   UNL     1       6.013 -12.461 -11.013  0.00  0.00    +0.149 HD
BRANCH  26  28
ATOM     28  C   UNL     1       5.717 -14.482 -10.433  0.00  0.00    +0.085 C 
BRANCH  28  29
ATOM     29  C   UNL     1       6.578 -14.848 -11.644  0.00  0.00    -0.060 C 
BRANCH  29  30
ATOM     30  N   UNL     1       6.712 -16.309 -11.726  0.00  0.00    +0.381 N 
ATOM     31  C   UNL     1       7.448 -16.797 -10.554  0.00  0.00    -0.079 C 
ATOM     32  C   UNL     1       7.521 -18.325 -10.593  0.00  0.00    -0.019 C 
ATOM     33  C   UNL     1       8.242 -18.764 -11.871  0.00  0.00    -0.004 C 
ATOM     34  C   UNL     1       7.508 -18.187 -13.084  0.00  0.00    -0.019 C 
ATOM     35  C   UNL     1       7.436 -16.664 -12.953  0.00  0.00    -0.079 C 
ATOM     36  H   UNL     1       5.795 -16.729 -11.745  0.00  0.00    -0.082 HD
ENDBRANCH  29  30
ENDBRANCH  28  29
ENDBRANCH  26  28
ENDBRANCH  23  24
ENDBRANCH  22  23
ENDBRANCH  14  22
TORSDOF 10
