REMARK  Name = ZINC43763690
REMARK  10 active torsions:
REMARK  status: ('A' for Active; 'I' for Inactive)
REMARK    1  A    between atoms: C_1  and  C_2
REMARK    2  A    between atoms: C_13  and  C_32
REMARK    3  A    between atoms: C_14  and  O_27
REMARK    4  A    between atoms: C_17  and  C_24
REMARK    5  A    between atoms: C_17  and  C_25
REMARK    6  A    between atoms: C_18  and  O_23
REMARK    7  A    between atoms: C_20  and  C_22
REMARK    8  A    between atoms: O_27  and  C_28
REMARK    9  A    between atoms: C_28  and  C_30
REMARK   10  A    between atoms: C_30  and  O_31
REMARK                            x       y       z     vdW  Elec       q    Type
REMARK                         _______ _______ _______ _____ _____    ______ ____
ROOT
ATOM      1  C   UNL     1      -0.794   1.082  -1.117  0.00  0.00    +0.008 C 
ATOM      2  C   UNL     1      -0.658  -0.347  -0.625  0.00  0.00    -0.004 C 
ATOM      3  C   UNL     1      -0.396  -1.351  -1.757  0.00  0.00    +0.004 C 
ATOM      4  C   UNL     1       0.976  -1.947  -1.978  0.00  0.00    +0.008 C 
ATOM      5  C   UNL     1       2.070  -1.683  -0.958  0.00  0.00    -0.014 C 
ATOM      6  C   UNL     1       3.396  -1.264  -1.679  0.00  0.00    +0.015 C 
ATOM      7  C   UNL     1       4.116  -0.682  -0.425  0.00  0.00    +0.075 C 
ATOM      8  C   UNL     1       3.023   0.247   0.128  0.00  0.00    +0.138 C 
ATOM      9  O   UNL     1       3.217   1.259   0.755  0.00  0.00    -0.297 OA
ATOM     10  C   UNL     1       1.719  -0.285  -0.416  0.00  0.00    +0.071 C 
ATOM     11  C   UNL     1       0.484  -0.512   0.382  0.00  0.00    +0.018 C 
ATOM     12  C   UNL     1       0.448   0.069   1.768  0.00  0.00    +0.184 C 
ATOM     13  C   UNL     1       1.806  -0.315   2.403  0.00  0.00    +0.058 C 
ATOM     14  C   UNL     1       2.337  -1.677   2.404  0.00  0.00    +0.015 C 
ATOM     15  C   UNL     1       2.694  -2.769   1.426  0.00  0.00    +0.128 C 
ATOM     16  C   UNL     1       2.426  -2.843  -0.057  0.00  0.00    +0.022 C 
ATOM     17  C   UNL     1       3.527  -3.728  -0.687  0.00  0.00    +0.011 C 
ATOM     18  C   UNL     1       3.711  -1.464   3.147  0.00  0.00    +0.018 C 
ATOM     19  C   UNL     1       0.101  -1.928   0.689  0.00  0.00    +0.016 C 
ENDROOT
BRANCH  15  20
ATOM     20  O   UNL     1       4.080  -3.135   1.658  0.00  0.00    -0.391 OA
ATOM     21  H   UNL     1       4.217  -3.675   2.448  0.00  0.00    +0.210 HD
ENDBRANCH  15  20
BRANCH  14  22
ATOM     22  C   UNL     1       1.553  -2.395   3.516  0.00  0.00    -0.025 C 
ATOM     23  C   UNL     1       0.554  -1.789   4.110  0.00  0.00    +0.004 C 
ENDBRANCH  14  22
BRANCH  12  24
ATOM     24  O   UNL     1       0.279   1.494   1.716  0.00  0.00    -0.459 OA
BRANCH  24  25
ATOM     25  C   UNL     1      -0.367   2.070   2.742  0.00  0.00    +0.333 C 
ATOM     26  O   UNL     1      -0.777   1.391   3.655  0.00  0.00    -0.248 OA
BRANCH  25  27
ATOM     27  C   UNL     1      -0.581   3.561   2.757  0.00  0.00    +0.276 C 
BRANCH  27  28
ATOM     28  O   UNL     1      -1.287   3.929   3.944  0.00  0.00    -0.384 OA
ATOM     29  H   UNL     1      -1.460   4.878   4.020  0.00  0.00    +0.210 HD
ENDBRANCH  27  28
ENDBRANCH  25  27
ENDBRANCH  24  25
ENDBRANCH  12  24
TORSDOF 6
