REMARK  Name = ZINC20758972
REMARK  8 active torsions:
REMARK  status: ('A' for Active; 'I' for Inactive)
REMARK    1  A    between atoms: C_1  and  C_2
REMARK    2  A    between atoms: C_2  and  C_3
REMARK    3  A    between atoms: C_2  and  N_4
REMARK    4  A    between atoms: N_4  and  S_5
REMARK    5  A    between atoms: S_5  and  C_8
REMARK    6  A    between atoms: C_21  and  C_24
REMARK    7  A    between atoms: C_27  and  S_30
REMARK    8  A    between atoms: S_30  and  C_31
REMARK                            x       y       z     vdW  Elec       q    Type
REMARK                         _______ _______ _______ _____ _____    ______ ____
ROOT
ATOM      1  C   UNL     1       1.562  -2.896   0.556  0.00  0.00    +0.106 A 
ATOM      2  C   UNL     1       0.216  -2.605   0.426  0.00  0.00    +0.030 A 
ATOM      3  C   UNL     1      -0.199  -1.300   0.262  0.00  0.00    +0.025 A 
ATOM      4  C   UNL     1       0.730  -0.268   0.223  0.00  0.00    +0.031 A 
ATOM      5  C   UNL     1       2.091  -0.570   0.341  0.00  0.00    -0.018 A 
ATOM      6  C   UNL     1       2.495  -1.876   0.513  0.00  0.00    +0.034 A 
ATOM      7  C   UNL     1       3.050   0.552   0.252  0.00  0.00    +0.049 C 
ATOM      8  C   UNL     1       4.388   0.495   0.895  0.00  0.00    -0.023 C 
ATOM      9  C   UNL     1       4.738   1.723   1.257  0.00  0.00    -0.030 C 
ATOM     10  C   UNL     1       3.623   2.710   0.904  0.00  0.00    +0.033 C 
ATOM     11  C   UNL     1       2.389   1.798   0.915  0.00  0.00    +0.029 C 
ATOM     12  C   UNL     1       1.238   2.179   0.002  0.00  0.00    +0.105 C 
ATOM     13  N   UNL     1       0.284   1.051   0.071  0.00  0.00    -0.336 N 
ATOM     14  H   UNL     1      -0.797   1.240   0.003  0.00  0.00    +0.147 HD
ENDROOT
BRANCH  12  15
ATOM     15  C   UNL     1       1.731   2.358  -1.411  0.00  0.00    -0.027 A 
ATOM     16  C   UNL     1       2.168   3.599  -1.837  0.00  0.00    +0.006 A 
ATOM     17  C   UNL     1       2.625   3.766  -3.129  0.00  0.00    +0.015 A 
ATOM     18  C   UNL     1       2.636   2.687  -4.005  0.00  0.00    +0.008 A 
ATOM     19  C   UNL     1       2.191   1.443  -3.575  0.00  0.00    +0.015 A 
ATOM     20  C   UNL     1       1.740   1.282  -2.280  0.00  0.00    +0.006 A 
BRANCH  18  21
ATOM     21  S   UNL     1       3.211   2.897  -5.657  0.00  0.00    -0.129 S 
ATOM     22  C   UNL     1       3.672   4.649  -5.742  0.00  0.00    +0.090 C 
ENDBRANCH  18  21
ENDBRANCH  12  15
BRANCH   1  23
ATOM     23  S   UNL     1       2.087  -4.563   0.776  0.00  0.00    +0.059 S 
ATOM     24  O   UNL     1       3.354  -4.508   1.418  0.00  0.00    -0.153 OA
ATOM     25  O   UNL     1       0.983  -5.267   1.329  0.00  0.00    -0.153 OA
BRANCH  23  26
ATOM     26  N   UNL     1       2.347  -5.198  -0.731  0.00  0.00    -0.187 NA
ATOM     27  H   UNL     1       1.615  -5.904  -1.150  0.00  0.00    +0.148 HD
BRANCH  26  29
ATOM     28  C   UNL     1       4.034  -5.794  -2.398  0.00  0.00    +0.025 C 
ATOM     29  C   UNL     1       3.415  -4.661  -1.578  0.00  0.00    +0.070 C 
ATOM     30  C   UNL     1       2.836  -3.606  -2.522  0.00  0.00    +0.025 C 
ENDBRANCH  26  29
ENDBRANCH  23  26
ENDBRANCH   1  23
TORSDOF 5
