REMARK  Name = ZINC51330277
REMARK  2 active torsions:
REMARK  status: ('A' for Active; 'I' for Inactive)
REMARK    1  A    between atoms: C_4  and  C_7
REMARK    2  A    between atoms: C_9  and  C_12
REMARK                            x       y       z     vdW  Elec       q    Type
REMARK                         _______ _______ _______ _____ _____    ______ ____
ROOT
ATOM      1  C   UNL     1       3.695  -0.685  -0.038  0.00  0.00    +0.228 A 
ATOM      2  N   UNL     1       3.843  -1.987  -0.052  0.00  0.00    -0.207 NA
ATOM      3  C   UNL     1       5.163  -2.269  -0.065  0.00  0.00    +0.128 A 
ATOM      4  C   UNL     1       5.833  -1.088  -0.059  0.00  0.00    +0.227 A 
ATOM      5  O   UNL     1       4.910  -0.109  -0.048  0.00  0.00    -0.443 OA
ENDROOT
BRANCH   3   6
ATOM      6  C   UNL     1       5.769  -3.621  -0.083  0.00  0.00    +0.093 A 
ATOM      7  C   UNL     1       4.933  -4.749  -0.092  0.00  0.00    +0.030 A 
ATOM      8  C   UNL     1       5.478  -5.998  -0.108  0.00  0.00    +0.012 A 
ATOM      9  C   UNL     1       6.883  -6.114  -0.114  0.00  0.00    +0.000 A 
ATOM     10  C   UNL     1       7.509  -7.370  -0.131  0.00  0.00    +0.010 A 
ATOM     11  C   UNL     1       8.869  -7.444  -0.137  0.00  0.00    +0.001 A 
ATOM     12  C   UNL     1       9.648  -6.289  -0.126  0.00  0.00    +0.002 A 
ATOM     13  C   UNL     1       9.074  -5.055  -0.109  0.00  0.00    +0.028 A 
ATOM     14  C   UNL     1       7.673  -4.938  -0.104  0.00  0.00    +0.072 A 
ATOM     15  N   UNL     1       7.084  -3.738  -0.094  0.00  0.00    -0.245 NA
ENDBRANCH   3   6
BRANCH   1  19
ATOM     16  C   UNL     1      -0.017   1.379   0.010  0.00  0.00    +0.000 A 
ATOM     17  C   UNL     1       1.168   2.093   0.002  0.00  0.00    +0.001 A 
ATOM     18  C   UNL     1       2.377   1.429  -0.013  0.00  0.00    +0.013 A 
ATOM     19  C   UNL     1       2.403   0.034  -0.021  0.00  0.00    +0.037 A 
ATOM     20  C   UNL     1       1.204  -0.681  -0.013  0.00  0.00    +0.013 A 
ATOM     21  C   UNL     1       0.002  -0.004   0.002  0.00  0.00    +0.001 A 
ENDBRANCH   1  19
TORSDOF 2
