REMARK  Name = ZINC09670663
REMARK  10 active torsions:
REMARK  status: ('A' for Active; 'I' for Inactive)
REMARK    1  A    between atoms: C_1  and  C_2
REMARK    2  A    between atoms: C_2  and  C_4
REMARK    3  A    between atoms: C_2  and  N_12
REMARK    4  A    between atoms: C_4  and  C_5
REMARK    5  A    between atoms: C_5  and  C_6
REMARK    6  A    between atoms: N_12  and  S_13
REMARK    7  A    between atoms: S_13  and  C_16
REMARK    8  A    between atoms: C_20  and  C_22
REMARK    9  A    between atoms: N_24  and  C_25
REMARK   10  A    between atoms: C_25  and  C_32
REMARK                            x       y       z     vdW  Elec       q    Type
REMARK                         _______ _______ _______ _____ _____    ______ ____
ROOT
ATOM      1  C   UNL     1       0.252   3.455   3.840  0.00  0.00    +0.106 A 
ATOM      2  C   UNL     1       0.105   4.591   3.062  0.00  0.00    +0.030 A 
ATOM      3  C   UNL     1      -0.568   5.693   3.557  0.00  0.00    +0.022 A 
ATOM      4  C   UNL     1      -1.088   5.671   4.836  0.00  0.00    +0.053 A 
ATOM      5  C   UNL     1      -0.938   4.530   5.628  0.00  0.00    +0.057 A 
ATOM      6  C   UNL     1      -0.262   3.420   5.119  0.00  0.00    +0.043 A 
ATOM      7 CL   UNL     1      -1.926   7.059   5.459  0.00  0.00    -0.083 Cl
ENDROOT
BRANCH   5   8
ATOM      8  C   UNL     1      -1.492   4.499   6.997  0.00  0.00    +0.246 C 
ATOM      9  O   UNL     1      -2.079   5.467   7.438  0.00  0.00    -0.270 OA
ATOM     10  N   UNL     1      -1.345   3.396   7.758  0.00  0.00    -0.304 N 
ATOM     11  H   UNL     1      -0.876   2.623   7.407  0.00  0.00    +0.150 HD
BRANCH  10  12
ATOM     12  C   UNL     1      -1.894   3.365   9.116  0.00  0.00    +0.053 C 
ATOM     13  C   UNL     1      -1.523   2.037   9.759  0.00  0.00    +0.049 C 
ATOM     14  C   UNL     1      -2.740   1.199  10.211  0.00  0.00    +0.168 C 
ATOM     15  S   UNL     1      -4.074   1.897   9.143  0.00  0.00    -0.029 S 
ATOM     16  O   UNL     1      -4.015   1.292   7.859  0.00  0.00    -0.174 OA
ATOM     17  O   UNL     1      -5.299   1.903   9.864  0.00  0.00    -0.174 OA
ATOM     18  C   UNL     1      -3.417   3.614   9.038  0.00  0.00    +0.191 C 
ATOM     19  C   UNL     1      -1.255   4.495   9.926  0.00  0.00    +0.033 C 
ENDBRANCH  10  12
ENDBRANCH   5   8
BRANCH   1  20
ATOM     20  S   UNL     1       1.106   2.055   3.196  0.00  0.00    +0.059 S 
ATOM     21  O   UNL     1       1.588   1.324   4.315  0.00  0.00    -0.153 OA
ATOM     22  O   UNL     1       1.966   2.538   2.173  0.00  0.00    -0.153 OA
BRANCH  20  23
ATOM     23  N   UNL     1      -0.020   1.094   2.454  0.00  0.00    -0.187 NA
ATOM     24  H   UNL     1      -0.211   0.210   2.804  0.00  0.00    +0.148 HD
BRANCH  23  26
ATOM     25  C   UNL     1      -0.013   1.086   0.008  0.00  0.00    +0.025 C 
ATOM     26  C   UNL     1      -0.729   1.579   1.267  0.00  0.00    +0.074 C 
BRANCH  26  27
ATOM     27  C   UNL     1      -2.164   1.050   1.278  0.00  0.00    +0.025 C 
BRANCH  27  28
ATOM     28  C   UNL     1      -2.918   1.643   2.470  0.00  0.00    +0.037 C 
BRANCH  28  29
ATOM     29  C   UNL     1      -4.332   1.121   2.481  0.00  0.00    -0.047 A 
ATOM     30  C   UNL     1      -5.327   1.809   1.812  0.00  0.00    +0.003 A 
ATOM     31  C   UNL     1      -6.623   1.328   1.817  0.00  0.00    +0.000 A 
ATOM     32  C   UNL     1      -6.925   0.165   2.500  0.00  0.00    +0.000 A 
ATOM     33  C   UNL     1      -5.931  -0.520   3.174  0.00  0.00    +0.000 A 
ATOM     34  C   UNL     1      -4.634  -0.042   3.164  0.00  0.00    +0.003 A 
ENDBRANCH  28  29
ENDBRANCH  27  28
ENDBRANCH  26  27
ENDBRANCH  23  26
ENDBRANCH  20  23
ENDBRANCH   1  20
TORSDOF 8
