REMARK  Name = ZINC08313285
REMARK  6 active torsions:
REMARK  status: ('A' for Active; 'I' for Inactive)
REMARK    1  A    between atoms: C_4  and  C_7
REMARK    2  A    between atoms: C_7  and  C_8
REMARK    3  A    between atoms: C_8  and  C_10
REMARK    4  A    between atoms: C_8  and  N_23
REMARK    5  A    between atoms: N_15  and  C_18
REMARK    6  A    between atoms: C_24  and  C_26
REMARK                            x       y       z     vdW  Elec       q    Type
REMARK                         _______ _______ _______ _____ _____    ______ ____
ROOT
ATOM      1  C   UNL     1       0.147   9.333  -2.694  0.00  0.00    +0.164 C 
ENDROOT
BRANCH   1   2
ATOM      2  C   UNL     1       0.907   8.788  -1.512  0.00  0.00    +0.236 C 
ATOM      3  O   UNL     1       2.093   9.015  -1.397  0.00  0.00    -0.274 OA
ATOM      4  N   UNL     1       0.269   8.049  -0.584  0.00  0.00    -0.297 N 
ATOM      5  C   UNL     1      -1.181   7.819  -0.667  0.00  0.00    +0.127 C 
ATOM      6  C   UNL     1      -1.809   8.177   0.684  0.00  0.00    +0.125 C 
ATOM      7  N   UNL     1      -1.123   7.436   1.751  0.00  0.00    -0.314 N 
ATOM      8  C   UNL     1       0.291   7.822   1.844  0.00  0.00    +0.125 C 
ATOM      9  C   UNL     1       1.005   7.449   0.540  0.00  0.00    +0.127 C 
BRANCH   7  10
ATOM     10  C   UNL     1      -1.768   7.608   2.971  0.00  0.00    +0.099 A 
ATOM     11  C   UNL     1      -1.268   6.983   4.109  0.00  0.00    +0.042 A 
ATOM     12  C   UNL     1      -1.916   7.167   5.317  0.00  0.00    +0.005 A 
ATOM     13  C   UNL     1      -3.053   7.965   5.344  0.00  0.00    +0.018 A 
ATOM     14  C   UNL     1      -3.493   8.555   4.177  0.00  0.00    +0.084 A 
ATOM     15  N   UNL     1      -2.878   8.401   2.974  0.00  0.00    -0.350 N 
ATOM     16  H   UNL     1      -3.228   8.852   2.120  0.00  0.00    +0.166 HD
ENDBRANCH   7  10
ENDBRANCH   1   2
BRANCH   1  17
ATOM     17  N   UNL     1       0.996  10.272  -3.430  0.00  0.00    -0.299 N 
ATOM     18  C   UNL     1       0.436  11.241  -4.182  0.00  0.00    +0.251 C 
ATOM     19  O   UNL     1      -0.775  11.334  -4.249  0.00  0.00    -0.270 OA
ATOM     20  H   UNL     1       1.962  10.198  -3.376  0.00  0.00    +0.150 HD
BRANCH  18  21
ATOM     21  C   UNL     1       1.286  12.181  -4.918  0.00  0.00    +0.074 A 
ATOM     22  C   UNL     1       0.916  13.236  -5.738  0.00  0.00    +0.021 A 
ATOM     23  C   UNL     1       1.926  13.967  -6.311  0.00  0.00    +0.008 A 
ATOM     24  C   UNL     1       3.217  13.630  -6.053  0.00  0.00    +0.046 A 
ATOM     25  S   UNL     1       3.066  12.271  -4.986  0.00  0.00    -0.092 S 
ENDBRANCH  18  21
ENDBRANCH   1  17
BRANCH   1  26
ATOM     26  C   UNL     1      -0.256   8.180  -3.616  0.00  0.00    +0.067 C 
BRANCH  26  30
ATOM     27  C   UNL     1      -2.735   9.671  -6.760  0.00  0.00    +0.000 A 
ATOM     28  C   UNL     1      -1.363   9.628  -6.923  0.00  0.00    +0.000 A 
ATOM     29  C   UNL     1      -0.561   9.145  -5.905  0.00  0.00    +0.004 A 
ATOM     30  C   UNL     1      -1.131   8.706  -4.725  0.00  0.00    -0.045 A 
ATOM     31  C   UNL     1      -2.503   8.745  -4.564  0.00  0.00    +0.004 A 
ATOM     32  C   UNL     1      -3.305   9.232  -5.579  0.00  0.00    +0.000 A 
ENDBRANCH  26  30
ENDBRANCH   1  26
TORSDOF 6
