REMARK  Name = ZINC20690269
REMARK  6 active torsions:
REMARK  status: ('A' for Active; 'I' for Inactive)
REMARK    1  A    between atoms: C_1  and  O_2
REMARK    2  A    between atoms: O_2  and  C_3
REMARK    3  A    between atoms: C_6  and  C_10
REMARK    4  A    between atoms: C_8  and  O_9
REMARK    5  A    between atoms: C_21  and  S_26
REMARK    6  A    between atoms: S_26  and  N_29
REMARK                            x       y       z     vdW  Elec       q    Type
REMARK                         _______ _______ _______ _____ _____    ______ ____
ROOT
ATOM      1  C   UNL     1       0.044  -2.902   0.018  0.00  0.00    +0.105 C 
ATOM      2  C   UNL     1      -1.097  -2.472   0.922  0.00  0.00    +0.029 C 
ATOM      3  C   UNL     1      -2.351  -3.357   0.936  0.00  0.00    +0.033 C 
ATOM      4  C   UNL     1      -3.443  -2.337   1.263  0.00  0.00    -0.030 C 
ATOM      5  C   UNL     1      -3.067  -1.126   0.870  0.00  0.00    -0.023 C 
ATOM      6  C   UNL     1      -1.732  -1.230   0.227  0.00  0.00    +0.049 C 
ATOM      7  C   UNL     1      -0.748  -0.127   0.286  0.00  0.00    -0.018 A 
ATOM      8  C   UNL     1      -1.123   1.192   0.428  0.00  0.00    +0.034 A 
ATOM      9  C   UNL     1      -0.166   2.189   0.460  0.00  0.00    +0.106 A 
ATOM     10  C   UNL     1       1.174   1.866   0.345  0.00  0.00    +0.030 A 
ATOM     11  C   UNL     1       1.559   0.549   0.203  0.00  0.00    +0.025 A 
ATOM     12  C   UNL     1       0.606  -0.463   0.178  0.00  0.00    +0.031 A 
ATOM     13  N   UNL     1       1.023  -1.794   0.058  0.00  0.00    -0.336 N 
ATOM     14  H   UNL     1       2.100  -2.009  -0.008  0.00  0.00    +0.147 HD
ENDROOT
BRANCH   1  18
ATOM     15  C   UNL     1      -1.369  -3.475  -3.978  0.00  0.00    +0.161 A 
ATOM     16  C   UNL     1      -0.880  -2.240  -3.583  0.00  0.00    +0.050 A 
ATOM     17  C   UNL     1      -0.425  -2.058  -2.291  0.00  0.00    +0.009 A 
ATOM     18  C   UNL     1      -0.455  -3.106  -1.389  0.00  0.00    -0.023 A 
ATOM     19  C   UNL     1      -0.936  -4.343  -1.778  0.00  0.00    +0.054 A 
ATOM     20  C   UNL     1      -1.400  -4.530  -3.070  0.00  0.00    +0.159 A 
BRANCH  15  22
ATOM     21  C   UNL     1      -1.757  -2.529  -6.125  0.00  0.00    +0.277 C 
ATOM     22  O   UNL     1      -1.818  -3.656  -5.248  0.00  0.00    -0.491 OA
ENDBRANCH  15  22
BRANCH  20  23
ATOM     23  O   UNL     1      -1.878  -5.744  -3.453  0.00  0.00    -0.503 OA
ATOM     24  H   UNL     1      -1.902  -6.577  -2.735  0.00  0.00    +0.292 HD
ENDBRANCH  20  23
ENDBRANCH   1  18
BRANCH   9  25
ATOM     25  S   UNL     1      -0.653   3.872   0.648  0.00  0.00    +0.061 S 
ATOM     26  O   UNL     1       0.394   4.662   0.101  0.00  0.00    -0.153 OA
ATOM     27  O   UNL     1      -1.994   3.960   0.187  0.00  0.00    -0.153 OA
BRANCH  25  28
ATOM     28  N   UNL     1      -0.689   4.193   2.272  0.00  0.00    -0.177 NA
ATOM     29  C   UNL     1      -1.922   3.976   2.995  0.00  0.00    +0.109 C 
ATOM     30  C   UNL     1      -2.783   5.255   2.961  0.00  0.00    +0.017 C 
ATOM     31  C   UNL     1      -2.184   6.297   3.809  0.00  0.00    +0.001 C 
ATOM     32  C   UNL     1      -0.802   6.758   3.357  0.00  0.00    +0.001 C 
ATOM     33  C   UNL     1       0.244   5.829   3.920  0.00  0.00    +0.017 C 
ATOM     34  C   UNL     1       0.539   4.695   2.921  0.00  0.00    +0.109 C 
ENDBRANCH  25  28
ENDBRANCH   9  25
TORSDOF 5
