REMARK  Name = ZINC40885546
REMARK  3 active torsions:
REMARK  status: ('A' for Active; 'I' for Inactive)
REMARK    1  A    between atoms: C_1  and  O_2
REMARK    2  A    between atoms: O_2  and  C_3
REMARK    3  A    between atoms: C_11  and  C_19
REMARK                            x       y       z     vdW  Elec       q    Type
REMARK                         _______ _______ _______ _____ _____    ______ ____
ROOT
ATOM      1  C   UNL     1       0.504  -0.675   1.196  0.00  0.00    +0.121 C 
ATOM      2  C   UNL     1       1.909  -0.930   0.646  0.00  0.00    +0.050 C 
ATOM      3  C   UNL     1       2.816  -1.418   1.780  0.00  0.00    +0.109 C 
ATOM      4  N   UNL     1       2.194  -2.589   2.412  0.00  0.00    -0.315 N 
ATOM      5  C   UNL     1       0.811  -2.479   2.896  0.00  0.00    +0.109 C 
ATOM      6  C   UNL     1      -0.074  -1.980   1.749  0.00  0.00    +0.050 C 
ATOM      7  C   UNL     1       2.898  -3.775   2.550  0.00  0.00    +0.122 A 
ATOM      8  C   UNL     1       4.278  -3.786   2.297  0.00  0.00    +0.049 A 
ATOM      9  C   UNL     1       4.983  -4.944   2.429  0.00  0.00    -0.020 A 
ATOM     10  C   UNL     1       4.290  -6.107   2.821  0.00  0.00    +0.005 A 
ATOM     11  C   UNL     1       4.955  -7.333   2.977  0.00  0.00    +0.010 A 
ATOM     12  C   UNL     1       4.253  -8.437   3.357  0.00  0.00    +0.001 A 
ATOM     13  C   UNL     1       2.883  -8.365   3.594  0.00  0.00    +0.002 A 
ATOM     14  C   UNL     1       2.207  -7.192   3.453  0.00  0.00    +0.028 A 
ATOM     15  C   UNL     1       2.897  -6.032   3.062  0.00  0.00    +0.073 A 
ATOM     16  N   UNL     1       2.258  -4.865   2.921  0.00  0.00    -0.232 NA
ENDROOT
BRANCH   1  18
ATOM     17  C   UNL     1      -0.339   1.235   0.017  0.00  0.00    +0.194 C 
ATOM     18  O   UNL     1      -0.337  -0.188   0.148  0.00  0.00    -0.380 OA
ENDBRANCH   1  18
BRANCH   9  19
ATOM     19  C   UNL     1       6.466  -4.980   2.163  0.00  0.00    +0.144 C 
ATOM     20 CL   UNL     1       7.360  -4.625   3.688  0.00  0.00    -0.120 Cl
ENDBRANCH   9  19
TORSDOF 2
