REMARK  Name = ZINC63348948
REMARK  4 active torsions:
REMARK  status: ('A' for Active; 'I' for Inactive)
REMARK    1  A    between atoms: C_4  and  C_7
REMARK    2  A    between atoms: C_13  and  C_15
REMARK    3  A    between atoms: C_15  and  S_16
REMARK    4  A    between atoms: S_16  and  C_17
REMARK                            x       y       z     vdW  Elec       q    Type
REMARK                         _______ _______ _______ _____ _____    ______ ____
ROOT
ATOM      1  C   UNL     1       3.325  -3.317   2.800  0.00  0.00    +0.170 C 
ENDROOT
BRANCH   1   7
ATOM      2  C   UNL     1       3.711  -0.707  -0.038  0.00  0.00    +0.136 C 
ATOM      3  C   UNL     1       4.021  -1.234  -1.453  0.00  0.00    +0.078 C 
ATOM      4  C   UNL     1       4.080  -2.734  -1.275  0.00  0.00    +0.105 C 
ATOM      5  N   UNL     1       3.861  -3.031  -0.060  0.00  0.00    -0.189 NA
ATOM      6  N   UNL     1       3.631  -1.934   0.773  0.00  0.00    -0.185 N 
ATOM      7  C   UNL     1       3.378  -1.986   2.096  0.00  0.00    +0.245 C 
ATOM      8  O   UNL     1       3.192  -0.962   2.719  0.00  0.00    -0.273 OA
BRANCH   2  12
ATOM      9  C   UNL     1      -0.017   1.378   0.010  0.00  0.00    +0.000 A 
ATOM     10  C   UNL     1       1.171   2.086   0.002  0.00  0.00    +0.000 A 
ATOM     11  C   UNL     1       2.377   1.411  -0.013  0.00  0.00    +0.005 A 
ATOM     12  C   UNL     1       2.396   0.029  -0.020  0.00  0.00    -0.025 A 
ATOM     13  C   UNL     1       1.208  -0.679  -0.012  0.00  0.00    +0.005 A 
ATOM     14  C   UNL     1       0.002  -0.004   0.002  0.00  0.00    +0.000 A 
ENDBRANCH   2  12
ENDBRANCH   1   7
BRANCH   1  15
ATOM     15  S   UNL     1       2.967  -3.056   4.559  0.00  0.00    -0.102 S 
BRANCH  15  16
ATOM     16  C   UNL     1       2.937  -4.731   5.255  0.00  0.00    +0.290 C 
ATOM     17  N   UNL     1       1.562  -5.124   5.598  0.00  0.00    -0.147 NA
ATOM     18  N   UNL     1       1.505  -5.336   6.810  0.00  0.00    -0.112 NA
ATOM     19  C   UNL     1       2.693  -5.150   7.457  0.00  0.00    +0.253 A 
ATOM     20  N   UNL     1       3.646  -4.769   6.540  0.00  0.00    -0.274 N 
ATOM     21  C   UNL     1       4.830  -4.590   7.207  0.00  0.00    +0.073 A 
ATOM     22  C   UNL     1       6.113  -4.215   6.826  0.00  0.00    +0.028 A 
ATOM     23  C   UNL     1       7.110  -4.127   7.772  0.00  0.00    +0.002 A 
ATOM     24  C   UNL     1       6.844  -4.409   9.106  0.00  0.00    +0.002 A 
ATOM     25  C   UNL     1       5.592  -4.779   9.502  0.00  0.00    +0.030 A 
ATOM     26  C   UNL     1       4.560  -4.877   8.560  0.00  0.00    +0.091 A 
ATOM     27  N   UNL     1       3.251  -5.208   8.648  0.00  0.00    -0.209 NA
ENDBRANCH  15  16
ENDBRANCH   1  15
TORSDOF 4
