REMARK  Name = ZINC13127662
REMARK  7 active torsions:
REMARK  status: ('A' for Active; 'I' for Inactive)
REMARK    1  A    between atoms: C_1  and  C_2
REMARK    2  A    between atoms: C_9  and  C_11
REMARK    3  A    between atoms: C_14  and  S_16
REMARK    4  A    between atoms: S_16  and  C_17
REMARK    5  A    between atoms: C_17  and  C_19
REMARK    6  A    between atoms: C_17  and  C_20
REMARK    7  A    between atoms: N_22  and  C_23
REMARK                            x       y       z     vdW  Elec       q    Type
REMARK                         _______ _______ _______ _____ _____    ______ ____
ROOT
ATOM      1  S   UNL     1      -0.888   3.121   8.746  0.00  0.00    -0.053 S 
ENDROOT
BRANCH   1   5
ATOM      2  C   UNL     1      -0.456   2.204   5.000  0.00  0.00    +0.256 A 
ATOM      3  N   UNL     1       0.722   1.894   5.492  0.00  0.00    -0.106 NA
ATOM      4  N   UNL     1       0.738   2.147   6.754  0.00  0.00    -0.101 NA
ATOM      5  C   UNL     1      -0.428   2.627   7.119  0.00  0.00    +0.278 A 
ATOM      6  O   UNL     1      -1.206   2.679   6.020  0.00  0.00    -0.410 OA
BRANCH   2  14
ATOM      7  C   UNL     1      -0.193   0.918  -2.472  0.00  0.00    +0.008 C 
ATOM      8  C   UNL     1      -0.795   1.555  -1.218  0.00  0.00    -0.009 C 
ATOM      9  C   UNL     1      -2.278   1.187  -1.123  0.00  0.00    +0.009 C 
ATOM     10  C   UNL     1      -2.928   2.039  -0.023  0.00  0.00    +0.043 C 
ATOM     11  C   UNL     1      -2.057   1.984   1.190  0.00  0.00    -0.006 A 
ATOM     12  C   UNL     1      -0.764   1.550   1.268  0.00  0.00    -0.036 A 
ATOM     13  C   UNL     1      -0.164   1.595   2.517  0.00  0.00    +0.024 A 
ATOM     14  C   UNL     1      -0.879   2.065   3.599  0.00  0.00    +0.076 A 
ATOM     15  S   UNL     1      -2.452   2.461   2.852  0.00  0.00    -0.088 S 
ATOM     16  C   UNL     1      -0.050   1.046   0.017  0.00  0.00    +0.039 C 
ENDBRANCH   2  14
ENDBRANCH   1   5
BRANCH   1  17
ATOM     17  C   UNL     1       0.652   2.766   9.629  0.00  0.00    +0.139 C 
ATOM     18  C   UNL     1       1.760   3.684   9.111  0.00  0.00    +0.029 C 
BRANCH  17  19
ATOM     19  C   UNL     1       0.451   3.004  11.104  0.00  0.00    +0.230 C 
ATOM     20  O   UNL     1      -0.464   3.702  11.487  0.00  0.00    -0.274 OA
ATOM     21  N   UNL     1       1.289   2.441  11.997  0.00  0.00    -0.284 N 
ATOM     22  H   UNL     1       1.980   1.830  11.697  0.00  0.00    +0.155 HD
BRANCH  21  23
ATOM     23  C   UNL     1       1.163   2.740  13.360  0.00  0.00    +0.037 A 
ATOM     24  C   UNL     1       2.294   2.817  14.162  0.00  0.00    +0.027 A 
ATOM     25  C   UNL     1       2.171   3.115  15.505  0.00  0.00    +0.051 A 
ATOM     26  C   UNL     1       0.919   3.329  16.059  0.00  0.00    +0.166 A 
ATOM     27  C   UNL     1      -0.218   3.246  15.258  0.00  0.00    +0.168 A 
ATOM     28  C   UNL     1      -0.094   2.952  13.911  0.00  0.00    +0.072 A 
ATOM     29  O   UNL     1      -1.315   3.494  16.032  0.00  0.00    -0.453 OA
ATOM     30  C   UNL     1      -0.873   3.326  17.392  0.00  0.00    +0.466 C 
ATOM     31  O   UNL     1       0.533   3.628  17.334  0.00  0.00    -0.453 OA
ENDBRANCH  21  23
ENDBRANCH  17  19
ENDBRANCH   1  17
TORSDOF 5
