REMARK  Name = ZINC14550165
REMARK  5 active torsions:
REMARK  status: ('A' for Active; 'I' for Inactive)
REMARK    1  A    between atoms: C_1  and  C_2
REMARK    2  A    between atoms: C_5  and  N_26
REMARK    3  A    between atoms: C_9  and  C_18
REMARK    4  A    between atoms: C_22  and  O_24
REMARK    5  A    between atoms: O_24  and  C_25
REMARK                            x       y       z     vdW  Elec       q    Type
REMARK                         _______ _______ _______ _____ _____    ______ ____
ROOT
ATOM      1  C   UNL     1       1.864  -0.732  -3.764  0.00  0.00    +0.045 C 
ATOM      2  C   UNL     1       2.202   0.486  -2.942  0.00  0.00    -0.029 A 
ATOM      3  C   UNL     1       2.934   1.506  -3.508  0.00  0.00    +0.007 A 
ATOM      4  C   UNL     1       3.250   2.630  -2.767  0.00  0.00    +0.033 A 
ATOM      5  C   UNL     1       2.835   2.720  -1.452  0.00  0.00    +0.132 A 
ATOM      6  C   UNL     1       2.110   1.699  -0.875  0.00  0.00    +0.011 A 
ATOM      7  C   UNL     1       1.769   0.566  -1.618  0.00  0.00    +0.037 A 
ATOM      8  N   UNL     1       1.016  -0.496  -1.121  0.00  0.00    -0.336 N 
ATOM      9  C   UNL     1       0.663  -0.447   0.307  0.00  0.00    +0.105 C 
ATOM     10  C   UNL     1       0.326   0.994   0.632  0.00  0.00    +0.029 C 
ATOM     11  C   UNL     1       1.689   1.748   0.542  0.00  0.00    +0.051 C 
ATOM     12  C   UNL     1       1.419   3.019   1.256  0.00  0.00    -0.023 C 
ATOM     13  C   UNL     1       0.472   2.801   2.162  0.00  0.00    -0.030 C 
ATOM     14  C   UNL     1       0.006   1.344   2.090  0.00  0.00    +0.033 C 
ATOM     15  H   UNL     1       0.199  -0.659  -1.690  0.00  0.00    +0.147 HD
ENDROOT
BRANCH   9  16
ATOM     16  C   UNL     1       1.833  -0.901   1.141  0.00  0.00    -0.024 A 
ATOM     17  C   UNL     1       1.623  -1.379   2.422  0.00  0.00    +0.006 A 
ATOM     18  C   UNL     1       2.693  -1.802   3.188  0.00  0.00    +0.004 A 
ATOM     19  C   UNL     1       3.976  -1.739   2.680  0.00  0.00    +0.045 A 
ATOM     20  C   UNL     1       4.190  -1.255   1.398  0.00  0.00    +0.120 A 
ATOM     21  C   UNL     1       3.113  -0.836   0.629  0.00  0.00    +0.051 A 
BRANCH  20  22
ATOM     22  O   UNL     1       5.451  -1.190   0.896  0.00  0.00    -0.495 OA
ATOM     23  C   UNL     1       6.510  -1.639   1.744  0.00  0.00    +0.277 C 
ENDBRANCH  20  22
ENDBRANCH   9  16
BRANCH   5  24
ATOM     24  N   UNL     1       3.171   3.922  -0.656  0.00  0.00    +0.057 N 
ATOM     25  O   UNL     1       2.920   5.031  -1.093  0.00  0.00    -0.126 OA
ATOM     26  O   UNL     1       3.699   3.802   0.435  0.00  0.00    -0.126 OA
ENDBRANCH   5  24
TORSDOF 3
