REMARK  Name = ZINC10628495
REMARK  11 active torsions:
REMARK  status: ('A' for Active; 'I' for Inactive)
REMARK    1  A    between atoms: C_1  and  C_2
REMARK    2  A    between atoms: C_18  and  S_19
REMARK    3  A    between atoms: S_19  and  C_20
REMARK    4  A    between atoms: C_20  and  C_21
REMARK    5  A    between atoms: N_23  and  C_24
REMARK    6  A    between atoms: C_24  and  C_26
REMARK    7  A    between atoms: C_24  and  C_34
REMARK    8  A    between atoms: C_29  and  O_32
REMARK    9  A    between atoms: O_32  and  C_33
REMARK   10  A    between atoms: C_34  and  C_35
REMARK   11  A    between atoms: C_34  and  C_36
REMARK                            x       y       z     vdW  Elec       q    Type
REMARK                         _______ _______ _______ _____ _____    ______ ____
ROOT
ATOM      1  C   UNL     1      -0.209  -8.386  -0.141  0.00  0.00    +0.045 C 
ATOM      2  C   UNL     1      -0.140  -6.882  -0.069  0.00  0.00    -0.032 A 
ATOM      3  C   UNL     1      -0.000  -6.244   1.156  0.00  0.00    +0.008 A 
ATOM      4  C   UNL     1       0.066  -4.862   1.177  0.00  0.00    +0.047 A 
ATOM      5  C   UNL     1      -0.022  -4.163  -0.021  0.00  0.00    +0.142 A 
ATOM      6  N   UNL     1      -0.155  -4.807  -1.169  0.00  0.00    -0.237 NA
ATOM      7  C   UNL     1      -0.214  -6.124  -1.221  0.00  0.00    +0.116 A 
ATOM      8  N   UNL     1       0.037  -2.767  -0.014  0.00  0.00    -0.239 N 
ATOM      9  C   UNL     1       1.236  -2.145  -0.097  0.00  0.00    +0.268 A 
ATOM     10  O   UNL     1       2.272  -2.780  -0.179  0.00  0.00    -0.267 OA
ATOM     11  C   UNL     1       1.242  -0.677  -0.086  0.00  0.00    +0.065 A 
ATOM     12  C   UNL     1       2.426   0.056  -0.167  0.00  0.00    +0.015 A 
ATOM     13  C   UNL     1       2.375   1.422  -0.151  0.00  0.00    +0.001 A 
ATOM     14  C   UNL     1       1.159   2.086  -0.057  0.00  0.00    +0.002 A 
ATOM     15  C   UNL     1      -0.016   1.394   0.025  0.00  0.00    +0.028 A 
ATOM     16  C   UNL     1       0.003  -0.004   0.012  0.00  0.00    +0.079 A 
ATOM     17  N   UNL     1      -1.137  -0.730   0.090  0.00  0.00    -0.223 NA
ATOM     18  C   UNL     1      -1.118  -2.039   0.078  0.00  0.00    +0.178 A 
ENDROOT
BRANCH  18  19
ATOM     19  S   UNL     1      -2.650  -2.904   0.183  0.00  0.00    -0.078 S 
BRANCH  19  20
ATOM     20  C   UNL     1      -3.794  -1.505   0.280  0.00  0.00    +0.173 C 
BRANCH  20  21
ATOM     21  C   UNL     1      -5.208  -2.018   0.380  0.00  0.00    +0.224 C 
ATOM     22  O   UNL     1      -5.420  -3.212   0.385  0.00  0.00    -0.275 OA
ATOM     23  N   UNL     1      -6.235  -1.150   0.463  0.00  0.00    -0.308 N 
ATOM     24  H   UNL     1      -6.065  -0.195   0.458  0.00  0.00    +0.149 HD
BRANCH  23  25
ATOM     25  C   UNL     1      -7.609  -1.649   0.560  0.00  0.00    +0.106 C 
BRANCH  25  26
ATOM     26  C   UNL     1      -8.473  -0.614   1.235  0.00  0.00    -0.027 A 
ATOM     27  C   UNL     1      -8.299   0.726   0.943  0.00  0.00    +0.009 A 
ATOM     28  C   UNL     1      -9.093   1.676   1.556  0.00  0.00    +0.046 A 
ATOM     29  C   UNL     1     -10.058   1.285   2.473  0.00  0.00    +0.120 A 
ATOM     30  C   UNL     1     -10.226  -0.060   2.768  0.00  0.00    +0.046 A 
ATOM     31  C   UNL     1      -9.434  -1.006   2.148  0.00  0.00    +0.009 A 
BRANCH  29  32
ATOM     32  O   UNL     1     -10.836   2.218   3.082  0.00  0.00    -0.495 OA
ATOM     33  C   UNL     1     -10.607   3.584   2.730  0.00  0.00    +0.277 C 
ENDBRANCH  29  32
ENDBRANCH  25  26
BRANCH  25  34
ATOM     34  C   UNL     1      -8.151  -1.929  -0.843  0.00  0.00    +0.008 C 
ATOM     35  C   UNL     1      -7.274  -2.979  -1.528  0.00  0.00    +0.009 C 
ATOM     36  C   UNL     1      -9.586  -2.449  -0.742  0.00  0.00    +0.009 C 
ENDBRANCH  25  34
ENDBRANCH  23  25
ENDBRANCH  20  21
ENDBRANCH  19  20
ENDBRANCH  18  19
TORSDOF 7
