REMARK  Name = ZINC19334856
REMARK  4 active torsions:
REMARK  status: ('A' for Active; 'I' for Inactive)
REMARK    1  A    between atoms: C_6  and  C_7
REMARK    2  A    between atoms: C_7  and  C_8
REMARK    3  A    between atoms: C_14  and  C_16
REMARK    4  A    between atoms: C_18  and  C_22
REMARK                            x       y       z     vdW  Elec       q    Type
REMARK                         _______ _______ _______ _____ _____    ______ ____
ROOT
ATOM      1  C   UNL     1       1.504   6.172   0.021  0.00  0.00    +0.015 A 
ATOM      2  C   UNL     1       0.243   5.675   0.031  0.00  0.00    +0.124 A 
ATOM      3  N   UNL     1       0.084   4.366   0.025  0.00  0.00    -0.233 NA
ATOM      4  C   UNL     1       1.121   3.551   0.010  0.00  0.00    +0.165 A 
ATOM      5  S   UNL     1       2.457   4.660   0.011  0.00  0.00    -0.057 S 
ATOM      6  N   UNL     1       1.140   2.162   0.003  0.00  0.00    -0.259 N 
ATOM      7  C   UNL     1      -0.018   1.472   0.010  0.00  0.00    +0.270 C 
ATOM      8  O   UNL     1      -1.079   2.066   0.018  0.00  0.00    -0.268 OA
ATOM      9  H   UNL     1       2.100   1.625  -0.009  0.00  0.00    +0.157 HD
ENDROOT
BRANCH   7  10
ATOM     10  C   UNL     1       0.002  -0.004   0.002  0.00  0.00    +0.148 A 
ATOM     11  C   UNL     1      -1.124  -0.862   0.014  0.00  0.00    +0.066 A 
ATOM     12  C   UNL     1      -0.621  -2.118  -0.004  0.00  0.00    +0.139 A 
ATOM     13  N   UNL     1       0.725  -2.011  -0.015  0.00  0.00    -0.272 N 
ATOM     14  H   UNL     1       1.349  -2.917  -0.026  0.00  0.00    +0.189 HD
ATOM     15  N   UNL     1       1.072  -0.774  -0.012  0.00  0.00    -0.169 NA
BRANCH  12  16
ATOM     16  C   UNL     1      -1.416  -3.399  -0.003  0.00  0.00    +0.434 C 
ATOM     17  F   UNL     1      -0.541  -4.491  -0.017  0.00  0.00    -0.164 F 
ATOM     18  F   UNL     1      -2.212  -3.453   1.146  0.00  0.00    -0.164 F 
ATOM     19  F   UNL     1      -2.232  -3.442  -1.139  0.00  0.00    -0.164 F 
ENDBRANCH  12  16
ENDBRANCH   7  10
BRANCH   1  20
ATOM     20  C   UNL     1       1.973   7.604   0.024  0.00  0.00    +0.079 C 
BRANCH  20  26
ATOM     21  C   UNL     1       1.085   8.667   2.108  0.00  0.00    +0.007 A 
ATOM     22  C   UNL     1       1.239   9.094   3.414  0.00  0.00    +0.038 A 
ATOM     23  C   UNL     1       2.457   8.937   4.054  0.00  0.00    +0.123 A 
ATOM     24  C   UNL     1       3.517   8.348   3.387  0.00  0.00    +0.038 A 
ATOM     25  C   UNL     1       3.360   7.917   2.084  0.00  0.00    +0.007 A 
ATOM     26  C   UNL     1       2.144   8.074   1.445  0.00  0.00    -0.042 A 
ATOM     27  F   UNL     1       2.610   9.358   5.329  0.00  0.00    -0.205 F 
ENDBRANCH  20  26
ENDBRANCH   1  20
TORSDOF 4
