REMARK  Name = ZINC37118587
REMARK  6 active torsions:
REMARK  status: ('A' for Active; 'I' for Inactive)
REMARK    1  A    between atoms: C_1  and  C_2
REMARK    2  A    between atoms: C_8  and  C_20
REMARK    3  A    between atoms: C_8  and  C_21
REMARK    4  A    between atoms: C_10  and  N_12
REMARK    5  A    between atoms: N_12  and  C_13
REMARK    6  A    between atoms: C_13  and  C_14
REMARK                            x       y       z     vdW  Elec       q    Type
REMARK                         _______ _______ _______ _____ _____    ______ ____
ROOT
ATOM      1  C   UNL     1       0.218   1.422   0.294  0.00  0.00    +0.086 C 
ATOM      2  C   UNL     1       0.165  -0.081   0.199  0.00  0.00    +0.102 A 
ATOM      3  C   UNL     1      -0.956  -0.828   0.151  0.00  0.00    +0.046 A 
ATOM      4  C   UNL     1      -0.542  -2.170   0.066  0.00  0.00    -0.020 A 
ATOM      5  C   UNL     1       0.806  -2.171   0.065  0.00  0.00    +0.107 A 
ATOM      6  O   UNL     1       1.228  -0.903   0.141  0.00  0.00    -0.465 OA
ATOM      7  C   UNL     1       1.647  -3.422  -0.018  0.00  0.00    +0.081 C 
ATOM      8  C   UNL     1       0.759  -4.571  -0.511  0.00  0.00    -0.029 C 
ATOM      9  C   UNL     1      -0.523  -4.622   0.325  0.00  0.00    -0.004 C 
ATOM     10  C   UNL     1      -1.399  -3.407  -0.010  0.00  0.00    -0.037 C 
ATOM     11  C   UNL     1       0.401  -4.344  -1.981  0.00  0.00    +0.011 C 
ATOM     12  C   UNL     1       1.512  -5.895  -0.369  0.00  0.00    +0.011 C 
ENDROOT
BRANCH  10  13
ATOM     13  N   UNL     1      -2.499  -3.308   0.958  0.00  0.00    +0.386 N 
ATOM     14  H   UNL     1      -2.124  -3.314   1.895  0.00  0.00    -0.085 HD
ATOM     15  H   UNL     1      -3.006  -2.449   0.805  0.00  0.00    -0.085 HD
BRANCH  13  16
ATOM     16  C   UNL     1      -3.406  -4.450   0.786  0.00  0.00    -0.045 C 
BRANCH  16  17
ATOM     17  C   UNL     1      -4.600  -4.283   1.691  0.00  0.00    -0.056 A 
ATOM     18  C   UNL     1      -4.580  -4.787   2.979  0.00  0.00    +0.024 A 
ATOM     19  C   UNL     1      -5.671  -4.620   3.767  0.00  0.00    +0.055 A 
ATOM     20  S   UNL     1      -6.775  -3.727   2.684  0.00  0.00    -0.090 S 
ATOM     21  C   UNL     1      -5.707  -3.632   1.257  0.00  0.00    +0.048 A 
ATOM     22 BR   UNL     1      -5.951  -5.185   5.549  0.00  0.00    -0.043 Br
ENDBRANCH  16  17
ENDBRANCH  13  16
ENDBRANCH  10  13
TORSDOF 3
