REMARK  Name = ZINC14460779
REMARK  5 active torsions:
REMARK  status: ('A' for Active; 'I' for Inactive)
REMARK    1  A    between atoms: C_1  and  C_2
REMARK    2  A    between atoms: C_2  and  O_3
REMARK    3  A    between atoms: O_3  and  C_4
REMARK    4  A    between atoms: C_17  and  C_20
REMARK    5  A    between atoms: C_25  and  O_26
REMARK                            x       y       z     vdW  Elec       q    Type
REMARK                         _______ _______ _______ _____ _____    ______ ____
ROOT
ATOM      1  C   UNL     1      -4.795   0.883  -1.566  0.00  0.00    +0.121 A 
ATOM      2  C   UNL     1      -4.022   1.012  -2.710  0.00  0.00    +0.047 A 
ATOM      3  C   UNL     1      -2.659   1.200  -2.596  0.00  0.00    +0.027 A 
ATOM      4  C   UNL     1      -2.067   1.260  -1.341  0.00  0.00    +0.032 A 
ATOM      5  C   UNL     1      -2.833   1.133  -0.193  0.00  0.00    -0.016 A 
ATOM      6  C   UNL     1      -4.203   0.943  -0.316  0.00  0.00    +0.051 A 
ATOM      7  C   UNL     1      -2.237   1.194   1.177  0.00  0.00    +0.049 C 
ATOM      8  C   UNL     1      -2.151  -0.177   1.804  0.00  0.00    -0.023 C 
ATOM      9  C   UNL     1      -1.055  -0.277   2.527  0.00  0.00    -0.030 C 
ATOM     10  C   UNL     1      -0.267   1.018   2.481  0.00  0.00    +0.033 C 
ATOM     11  C   UNL     1      -0.780   1.704   1.181  0.00  0.00    +0.029 C 
ATOM     12  C   UNL     1      -0.013   1.086   0.008  0.00  0.00    +0.108 C 
ATOM     13  N   UNL     1      -0.681   1.451  -1.245  0.00  0.00    -0.336 N 
ATOM     14  H   UNL     1      -0.177   1.815  -1.989  0.00  0.00    +0.147 HD
ENDROOT
BRANCH  12  15
ATOM     15  C   UNL     1       1.400   1.610  -0.003  0.00  0.00    +0.015 A 
ATOM     16  C   UNL     1       2.444   0.792   0.388  0.00  0.00    +0.024 A 
ATOM     17  C   UNL     1       3.741   1.273   0.378  0.00  0.00    +0.018 A 
ATOM     18  C   UNL     1       3.996   2.573  -0.022  0.00  0.00    +0.019 A 
ATOM     19  C   UNL     1       2.956   3.393  -0.413  0.00  0.00    +0.047 A 
ATOM     20  C   UNL     1       1.655   2.911  -0.410  0.00  0.00    +0.122 A 
ATOM     21 BR   UNL     1       5.167   0.152   0.912  0.00  0.00    -0.050 Br
BRANCH  20  22
ATOM     22  O   UNL     1       0.630   3.715  -0.799  0.00  0.00    -0.506 OA
ATOM     23  H   UNL     1       0.236   4.227  -0.080  0.00  0.00    +0.292 HD
ENDBRANCH  20  22
ENDBRANCH  12  15
BRANCH   1  24
ATOM     24  O   UNL     1      -6.138   0.698  -1.671  0.00  0.00    -0.492 OA
BRANCH  24  26
ATOM     25  C   UNL     1      -8.197   0.434  -2.910  0.00  0.00    +0.048 C 
ATOM     26  C   UNL     1      -6.684   0.646  -2.991  0.00  0.00    +0.225 C 
ENDBRANCH  24  26
ENDBRANCH   1  24
TORSDOF 4
