REMARK  Name = ZINC38703836
REMARK  9 active torsions:
REMARK  status: ('A' for Active; 'I' for Inactive)
REMARK    1  A    between atoms: C_1  and  C_2
REMARK    2  A    between atoms: C_2  and  C_3
REMARK    3  A    between atoms: C_6  and  O_33
REMARK    4  A    between atoms: C_7  and  C_9
REMARK    5  A    between atoms: C_12  and  C_14
REMARK    6  A    between atoms: N_16  and  C_17
REMARK    7  A    between atoms: C_19  and  C_32
REMARK    8  A    between atoms: N_21  and  C_31
REMARK    9  A    between atoms: N_22  and  C_25
REMARK                            x       y       z     vdW  Elec       q    Type
REMARK                         _______ _______ _______ _____ _____    ______ ____
ROOT
ATOM      1  C   UNL     1       7.740  -1.821  -1.716  0.00  0.00    +0.261 C 
ATOM      2  O   UNL     1       7.616  -1.599  -0.525  0.00  0.00    -0.269 OA
ATOM      3  N   UNL     1       8.958  -2.083  -2.229  0.00  0.00    -0.297 N 
ATOM      4  H   UNL     1       9.057  -2.259  -3.178  0.00  0.00    +0.150 HD
ENDROOT
BRANCH   3   5
ATOM      5  C   UNL     1      10.133  -2.101  -1.354  0.00  0.00    +0.179 C 
ATOM      6  C   UNL     1      11.429  -1.864  -2.167  0.00  0.00    +0.102 C 
ATOM      7  N   UNL     1      12.382  -2.776  -1.493  0.00  0.00    -0.218 NA
ATOM      8  N   UNL     1      11.665  -3.788  -0.928  0.00  0.00    -0.201 N 
ATOM      9  C   UNL     1      10.357  -3.488  -0.779  0.00  0.00    +0.256 C 
ATOM     10  O   UNL     1       9.511  -4.198  -0.279  0.00  0.00    -0.272 OA
ATOM     11  C   UNL     1      13.169  -2.059  -0.480  0.00  0.00    +0.128 C 
ATOM     12  C   UNL     1      11.235  -2.260  -3.632  0.00  0.00    +0.028 C 
BRANCH   8  13
ATOM     13  C   UNL     1      12.225  -5.009  -0.538  0.00  0.00    +0.053 A 
ATOM     14  C   UNL     1      11.932  -5.543   0.710  0.00  0.00    +0.025 A 
ATOM     15  C   UNL     1      12.488  -6.749   1.091  0.00  0.00    +0.002 A 
ATOM     16  C   UNL     1      13.334  -7.424   0.232  0.00  0.00    +0.000 A 
ATOM     17  C   UNL     1      13.628  -6.895  -1.012  0.00  0.00    +0.002 A 
ATOM     18  C   UNL     1      13.071  -5.693  -1.401  0.00  0.00    +0.025 A 
ENDBRANCH   8  13
ENDBRANCH   3   5
BRANCH   1  22
ATOM     19  C   UNL     1       4.412  -1.656  -3.535  0.00  0.00    +0.080 C 
ATOM     20  N   UNL     1       5.364  -1.940  -4.395  0.00  0.00    -0.153 NA
ATOM     21  N   UNL     1       6.528  -2.018  -3.880  0.00  0.00    -0.148 NA
ATOM     22  C   UNL     1       6.564  -1.802  -2.591  0.00  0.00    +0.131 C 
ATOM     23  C   UNL     1       5.122  -1.522  -2.198  0.00  0.00    +0.120 C 
BRANCH  19  28
ATOM     24  C   UNL     1       0.753  -1.040  -3.028  0.00  0.00    -0.047 A 
ATOM     25  C   UNL     1       0.270  -1.198  -4.319  0.00  0.00    +0.007 A 
ATOM     26  C   UNL     1       1.130  -1.505  -5.355  0.00  0.00    +0.046 A 
ATOM     27  C   UNL     1       2.486  -1.658  -5.113  0.00  0.00    +0.126 A 
ATOM     28  C   UNL     1       2.981  -1.498  -3.806  0.00  0.00    +0.040 A 
ATOM     29  C   UNL     1       2.096  -1.181  -2.766  0.00  0.00    +0.017 A 
BRANCH  24  31
ATOM     30  C   UNL     1      -0.323   0.815  -1.782  0.00  0.00    +0.009 C 
ATOM     31  C   UNL     1      -0.198  -0.705  -1.908  0.00  0.00    +0.032 C 
ENDBRANCH  24  31
BRANCH  27  32
ATOM     32  O   UNL     1       3.330  -1.960  -6.130  0.00  0.00    -0.506 OA
ATOM     33  H   UNL     1       3.700  -1.187  -6.578  0.00  0.00    +0.292 HD
ENDBRANCH  27  32
ENDBRANCH  19  28
ENDBRANCH   1  22
TORSDOF 6
