REMARK  Name = ZINC10044251
REMARK  6 active torsions:
REMARK  status: ('A' for Active; 'I' for Inactive)
REMARK    1  A    between atoms: C_4  and  C_7
REMARK    2  A    between atoms: C_7  and  C_9
REMARK    3  A    between atoms: C_7  and  N_12
REMARK    4  A    between atoms: N_12  and  S_13
REMARK    5  A    between atoms: S_13  and  C_16
REMARK    6  A    between atoms: C_21  and  C_22
REMARK                            x       y       z     vdW  Elec       q    Type
REMARK                         _______ _______ _______ _____ _____    ______ ____
ROOT
ATOM      1  N   UNL     1      -1.688   1.924  -0.985  0.00  0.00    -0.174 NA
ATOM      2  H   UNL     1      -2.063   1.239  -1.560  0.00  0.00    +0.149 HD
ENDROOT
BRANCH   1   3
ATOM      3  S   UNL     1      -0.373   1.579  -0.037  0.00  0.00    +0.060 S 
ATOM      4  O   UNL     1      -0.080   0.203  -0.234  0.00  0.00    -0.153 OA
ATOM      5  O   UNL     1       0.581   2.604  -0.279  0.00  0.00    -0.153 OA
BRANCH   3   6
ATOM      6  C   UNL     1      -0.882   1.750   1.641  0.00  0.00    +0.117 A 
ATOM      7  C   UNL     1      -0.346   2.753   2.427  0.00  0.00    +0.029 A 
ATOM      8  C   UNL     1      -0.749   2.890   3.742  0.00  0.00    +0.002 A 
ATOM      9  C   UNL     1      -1.680   2.018   4.275  0.00  0.00    +0.001 A 
ATOM     10  C   UNL     1      -2.212   1.012   3.490  0.00  0.00    +0.014 A 
ATOM     11  C   UNL     1      -1.813   0.878   2.173  0.00  0.00    +0.081 A 
BRANCH  11  12
ATOM     12  C   UNL     1      -2.393  -0.219   1.318  0.00  0.00    +0.419 C 
ATOM     13  F   UNL     1      -3.400  -0.881   2.029  0.00  0.00    -0.166 F 
ATOM     14  F   UNL     1      -2.931   0.334   0.152  0.00  0.00    -0.166 F 
ATOM     15  F   UNL     1      -1.385  -1.129   0.981  0.00  0.00    -0.166 F 
ENDBRANCH  11  12
ENDBRANCH   3   6
ENDBRANCH   1   3
BRANCH   1  16
ATOM     16  C   UNL     1      -2.282   3.262  -0.954  0.00  0.00    +0.192 C 
BRANCH  16  20
ATOM     17  C   UNL     1      -6.523   2.946  -1.362  0.00  0.00    +0.000 A 
ATOM     18  C   UNL     1      -5.979   3.861  -0.479  0.00  0.00    +0.000 A 
ATOM     19  C   UNL     1      -4.607   3.963  -0.348  0.00  0.00    +0.006 A 
ATOM     20  C   UNL     1      -3.778   3.150  -1.098  0.00  0.00    -0.020 A 
ATOM     21  C   UNL     1      -4.321   2.239  -1.984  0.00  0.00    +0.006 A 
ATOM     22  C   UNL     1      -5.694   2.134  -2.113  0.00  0.00    +0.000 A 
ENDBRANCH  16  20
BRANCH  16  23
ATOM     23  C   UNL     1      -1.728   4.084  -2.089  0.00  0.00    +0.234 C 
ATOM     24  O   UNL     1      -0.917   3.599  -2.849  0.00  0.00    -0.274 OA
ATOM     25  N   UNL     1      -2.135   5.357  -2.260  0.00  0.00    -0.328 N 
ATOM     26  H   UNL     1      -2.784   5.745  -1.652  0.00  0.00    +0.145 HD
ATOM     27  H   UNL     1      -1.779   5.887  -2.991  0.00  0.00    +0.145 HD
ENDBRANCH  16  23
ENDBRANCH   1  16
TORSDOF 6
