REMARK  Name = ZINC35911140
REMARK  10 active torsions:
REMARK  status: ('A' for Active; 'I' for Inactive)
REMARK    1  A    between atoms: C_1  and  C_2
REMARK    2  A    between atoms: C_2  and  C_3
REMARK    3  A    between atoms: C_2  and  C_4
REMARK    4  A    between atoms: C_4  and  C_5
REMARK    5  A    between atoms: C_5  and  N_6
REMARK    6  A    between atoms: C_7  and  C_9
REMARK    7  A    between atoms: C_15  and  O_33
REMARK    8  A    between atoms: N_22  and  C_25
REMARK    9  A    between atoms: C_25  and  C_26
REMARK   10  A    between atoms: O_33  and  C_34
REMARK                            x       y       z     vdW  Elec       q    Type
REMARK                         _______ _______ _______ _____ _____    ______ ____
ROOT
ATOM      1  C   UNL     1       0.888  -0.881   6.133  0.00  0.00    +0.098 C 
ATOM      2  C   UNL     1       2.283  -0.293   6.132  0.00  0.00    +0.051 C 
ATOM      3  C   UNL     1       2.290   1.144   6.566  0.00  0.00    -0.025 A 
ATOM      4  C   UNL     1       3.261   2.002   6.081  0.00  0.00    +0.009 A 
ATOM      5  C   UNL     1       3.279   3.326   6.475  0.00  0.00    +0.046 A 
ATOM      6  C   UNL     1       2.322   3.800   7.362  0.00  0.00    +0.122 A 
ATOM      7  C   UNL     1       1.348   2.945   7.849  0.00  0.00    +0.069 A 
ATOM      8  C   UNL     1       1.330   1.613   7.449  0.00  0.00    +0.037 A 
ATOM      9  N   UNL     1       0.345   0.760   7.931  0.00  0.00    -0.329 N 
ATOM     10  C   UNL     1       0.070  -0.542   7.348  0.00  0.00    +0.069 C 
ATOM     11  C   UNL     1       0.183  -1.607   8.439  0.00  0.00    -0.055 C 
ATOM     12  N   UNL     1      -0.707  -1.247   9.553  0.00  0.00    +0.385 N 
ATOM     13  C   UNL     1      -0.294   0.029  10.149  0.00  0.00    -0.059 C 
ATOM     14  C   UNL     1      -0.445   1.149   9.118  0.00  0.00    +0.087 C 
ATOM     15  H   UNL     1      -1.652  -1.163   9.210  0.00  0.00    -0.081 HD
ENDROOT
BRANCH   1  17
ATOM     16  N   UNL     1       0.667  -0.609   3.684  0.00  0.00    -0.315 N 
ATOM     17  C   UNL     1       0.159  -0.382   4.912  0.00  0.00    +0.218 C 
ATOM     18  O   UNL     1      -0.884   0.224   5.034  0.00  0.00    -0.275 OA
ATOM     19  H   UNL     1       1.502  -1.093   3.586  0.00  0.00    +0.149 HD
BRANCH  16  20
ATOM     20  C   UNL     1      -0.042  -0.124   2.497  0.00  0.00    +0.104 C 
BRANCH  20  21
ATOM     21  C   UNL     1       0.742  -0.511   1.242  0.00  0.00    +0.022 C 
BRANCH  21  23
ATOM     22  C   UNL     1      -0.019   1.526   0.010  0.00  0.00    +0.007 C 
ATOM     23  C   UNL     1       0.002  -0.004   0.002  0.00  0.00    -0.016 C 
ATOM     24  C   UNL     1       0.718  -0.497  -1.257  0.00  0.00    +0.007 C 
ENDBRANCH  21  23
ENDBRANCH  20  21
ENDBRANCH  16  20
ENDBRANCH   1  17
BRANCH   6  25
ATOM     25  O   UNL     1       2.342   5.102   7.751  0.00  0.00    -0.495 OA
ATOM     26  C   UNL     1       3.375   5.926   7.209  0.00  0.00    +0.277 C 
ENDBRANCH   6  25
BRANCH  12  27
ATOM     27  C   UNL     1      -0.654  -2.300  10.576  0.00  0.00    -0.043 C 
BRANCH  27  28
ATOM     28  C   UNL     1      -1.655  -1.997  11.661  0.00  0.00    -0.064 A 
ATOM     29  C   UNL     1      -1.283  -1.233  12.751  0.00  0.00    +0.003 A 
ATOM     30  C   UNL     1      -2.200  -0.955  13.746  0.00  0.00    +0.020 A 
ATOM     31  C   UNL     1      -3.492  -1.441  13.651  0.00  0.00    +0.041 A 
ATOM     32  C   UNL     1      -3.864  -2.206  12.560  0.00  0.00    +0.020 A 
ATOM     33  C   UNL     1      -2.947  -2.478  11.563  0.00  0.00    +0.003 A 
ATOM     34 CL   UNL     1      -4.645  -1.093  14.901  0.00  0.00    -0.084 Cl
ENDBRANCH  27  28
ENDBRANCH  12  27
TORSDOF 7
