REMARK  Name = ZINC05428362
REMARK  8 active torsions:
REMARK  status: ('A' for Active; 'I' for Inactive)
REMARK    1  A    between atoms: C_3  and  N_8
REMARK    2  A    between atoms: N_8  and  N_9
REMARK    3  A    between atoms: C_11  and  C_26
REMARK    4  A    between atoms: N_17  and  N_18
REMARK    5  A    between atoms: N_18  and  C_19
REMARK    6  A    between atoms: C_26  and  C_28
REMARK    7  A    between atoms: C_26  and  O_30
REMARK    8  A    between atoms: C_28  and  O_29
REMARK                            x       y       z     vdW  Elec       q    Type
REMARK                         _______ _______ _______ _____ _____    ______ ____
ROOT
ATOM      1  N   UNL     1       1.933  -1.631  -0.025  0.00  0.00    -0.181 NA
ATOM      2  C   UNL     1       1.456  -0.421  -0.014  0.00  0.00    +0.136 C 
ATOM      3  C   UNL     1       0.002  -0.004   0.002  0.00  0.00    +0.260 C 
ATOM      4  O   UNL     1      -0.018   1.447   0.010  0.00  0.00    -0.448 OA
ATOM      5  C   UNL     1       1.231   1.936   0.001  0.00  0.00    +0.362 C 
ATOM      6  O   UNL     1       1.510   3.119   0.004  0.00  0.00    -0.243 OA
ATOM      7  C   UNL     1       2.216   0.845  -0.015  0.00  0.00    +0.192 C 
ATOM      8  N   UNL     1       3.525   0.973  -0.026  0.00  0.00    -0.173 NA
ENDROOT
BRANCH   1   9
ATOM      9  N   UNL     1       3.318  -1.837  -0.039  0.00  0.00    -0.237 N 
ATOM     10  H   UNL     1       3.922  -1.078  -0.041  0.00  0.00    +0.174 HD
BRANCH   9  13
ATOM     11  C   UNL     1       3.475  -5.508  -0.058  0.00  0.00    +0.005 A 
ATOM     12  C   UNL     1       2.966  -4.224  -0.041  0.00  0.00    +0.025 A 
ATOM     13  C   UNL     1       3.830  -3.135  -0.050  0.00  0.00    +0.051 A 
ATOM     14  C   UNL     1       5.204  -3.342  -0.065  0.00  0.00    +0.063 A 
ATOM     15  C   UNL     1       5.707  -4.630  -0.076  0.00  0.00    +0.125 A 
ATOM     16  C   UNL     1       4.842  -5.712  -0.072  0.00  0.00    +0.038 A 
ATOM     17  F   UNL     1       7.043  -4.833  -0.089  0.00  0.00    -0.205 F 
ENDBRANCH   9  13
ENDBRANCH   1   9
BRANCH   8  18
ATOM     18  N   UNL     1       4.104   2.248  -0.025  0.00  0.00    -0.237 N 
ATOM     19  H   UNL     1       3.540   3.037  -0.015  0.00  0.00    +0.174 HD
BRANCH  18  20
ATOM     20  C   UNL     1       5.493   2.384  -0.038  0.00  0.00    +0.051 A 
ATOM     21  C   UNL     1       6.069   3.649  -0.036  0.00  0.00    +0.025 A 
ATOM     22  C   UNL     1       7.444   3.780  -0.049  0.00  0.00    +0.005 A 
ATOM     23  C   UNL     1       8.248   2.655  -0.062  0.00  0.00    +0.038 A 
ATOM     24  C   UNL     1       7.678   1.393  -0.064  0.00  0.00    +0.125 A 
ATOM     25  C   UNL     1       6.302   1.254  -0.046  0.00  0.00    +0.063 A 
ATOM     26  F   UNL     1       8.467   0.296  -0.077  0.00  0.00    -0.205 F 
ENDBRANCH  18  20
ENDBRANCH   8  18
BRANCH   3  27
ATOM     27  C   UNL     1      -0.707  -0.530  -1.248  0.00  0.00    +0.187 C 
BRANCH  27  28
ATOM     28  O   UNL     1      -0.652  -1.958  -1.261  0.00  0.00    -0.385 OA
ATOM     29  H   UNL     1      -1.073  -2.375  -0.497  0.00  0.00    +0.210 HD
ENDBRANCH  27  28
BRANCH  27  30
ATOM     30  C   UNL     1      -2.168  -0.076  -1.234  0.00  0.00    +0.191 C 
BRANCH  30  31
ATOM     31  O   UNL     1      -2.800  -0.468  -2.454  0.00  0.00    -0.392 OA
ATOM     32  H   UNL     1      -3.731  -0.212  -2.515  0.00  0.00    +0.210 HD
ENDBRANCH  30  31
ENDBRANCH  27  30
ENDBRANCH   3  27
TORSDOF 8
