REMARK  Name = ZINC02791478
REMARK  6 active torsions:
REMARK  status: ('A' for Active; 'I' for Inactive)
REMARK    1  A    between atoms: C_1  and  C_2
REMARK    2  A    between atoms: C_6  and  C_8
REMARK    3  A    between atoms: C_8  and  N_9
REMARK    4  A    between atoms: C_11  and  N_14
REMARK    5  A    between atoms: N_14  and  S_15
REMARK    6  A    between atoms: S_15  and  C_18
REMARK                            x       y       z     vdW  Elec       q    Type
REMARK                         _______ _______ _______ _____ _____    ______ ____
ROOT
ATOM      1  N   UNL     1       1.553   2.269  -0.001  0.00  0.00    -0.213 N 
ATOM      2  H   UNL     1       1.912   2.752   0.760  0.00  0.00    +0.174 HD
ENDROOT
BRANCH   1   5
ATOM      3  N   UNL     1       4.077   1.420  -2.362  0.00  0.00    -0.265 N 
ATOM      4  C   UNL     1       3.649   1.546  -1.077  0.00  0.00    +0.133 A 
ATOM      5  C   UNL     1       2.371   2.002  -1.115  0.00  0.00    +0.085 A 
ATOM      6  C   UNL     1       2.012   2.165  -2.461  0.00  0.00    +0.158 A 
ATOM      7  N   UNL     1       3.031   1.817  -3.204  0.00  0.00    -0.177 NA
BRANCH   3   8
ATOM      8  C   UNL     1       5.400   0.955  -2.788  0.00  0.00    +0.178 C 
BRANCH   8  14
ATOM      9  C   UNL     1       5.012  -3.967  -3.604  0.00  0.00    +0.044 C 
ATOM     10  C   UNL     1       5.057  -2.556  -4.132  0.00  0.00    -0.050 A 
ATOM     11  C   UNL     1       4.955  -2.323  -5.491  0.00  0.00    +0.003 A 
ATOM     12  C   UNL     1       4.997  -1.029  -5.975  0.00  0.00    +0.001 A 
ATOM     13  C   UNL     1       5.141   0.032  -5.100  0.00  0.00    +0.005 A 
ATOM     14  C   UNL     1       5.243  -0.201  -3.742  0.00  0.00    -0.026 A 
ATOM     15  C   UNL     1       5.205  -1.496  -3.258  0.00  0.00    +0.008 A 
ENDBRANCH   8  14
ENDBRANCH   3   8
ENDBRANCH   1   5
BRANCH   1  16
ATOM     16  S   UNL     1      -0.022   1.758   0.012  0.00  0.00    +0.072 S 
ATOM     17  O   UNL     1      -0.590   2.163  -1.226  0.00  0.00    -0.150 OA
ATOM     18  O   UNL     1      -0.566   2.150   1.264  0.00  0.00    -0.150 OA
BRANCH  16  19
ATOM     19  C   UNL     1       0.002  -0.004   0.002  0.00  0.00    +0.109 A 
ATOM     20  C   UNL     1      -0.006  -0.684  -1.215  0.00  0.00    +0.029 A 
ATOM     21  C   UNL     1       0.018  -2.044  -1.257  0.00  0.00    +0.010 A 
ATOM     22  C   UNL     1       0.038  -2.777  -0.059  0.00  0.00    -0.018 A 
ATOM     23  C   UNL     1       0.056  -4.182  -0.063  0.00  0.00    +0.008 A 
ATOM     24  C   UNL     1       0.076  -4.859   1.118  0.00  0.00    +0.001 A 
ATOM     25  C   UNL     1       0.079  -4.179   2.335  0.00  0.00    +0.001 A 
ATOM     26  C   UNL     1       0.062  -2.819   2.377  0.00  0.00    +0.008 A 
ATOM     27  C   UNL     1       0.041  -2.086   1.179  0.00  0.00    -0.016 A 
ATOM     28  C   UNL     1       0.022  -0.681   1.183  0.00  0.00    +0.037 A 
ENDBRANCH  16  19
ENDBRANCH   1  16
TORSDOF 5
