REMARK  Name = ZINC39560789
REMARK  8 active torsions:
REMARK  status: ('A' for Active; 'I' for Inactive)
REMARK    1  A    between atoms: C_1  and  O_2
REMARK    2  A    between atoms: O_2  and  C_3
REMARK    3  A    between atoms: C_3  and  C_5
REMARK    4  A    between atoms: C_20  and  C_30
REMARK    5  A    between atoms: C_23  and  N_26
REMARK    6  A    between atoms: N_26  and  C_27
REMARK    7  A    between atoms: C_33  and  O_36
REMARK    8  A    between atoms: O_36  and  C_37
REMARK                            x       y       z     vdW  Elec       q    Type
REMARK                         _______ _______ _______ _____ _____    ______ ____
ROOT
ATOM      1  C   UNL     1      -1.244  -2.135   0.003  0.00  0.00    +0.172 C 
ATOM      2  C   UNL     1      -0.661  -2.662  -1.317  0.00  0.00    +0.067 C 
ATOM      3  C   UNL     1      -1.635  -2.328  -2.419  0.00  0.00    -0.017 C 
ATOM      4  C   UNL     1      -1.463  -2.323  -3.749  0.00  0.00    -0.013 C 
ATOM      5  C   UNL     1      -0.257  -2.648  -4.586  0.00  0.00    +0.064 C 
ATOM      6  C   UNL     1      -0.592  -2.488  -6.042  0.00  0.00    -0.022 C 
ATOM      7  C   UNL     1      -1.777  -2.114  -6.513  0.00  0.00    -0.002 C 
ATOM      8  C   UNL     1      -2.885  -1.817  -5.692  0.00  0.00    +0.028 C 
ATOM      9  C   UNL     1      -2.713  -1.926  -4.313  0.00  0.00    +0.068 C 
ATOM     10  N   UNL     1      -3.573  -1.713  -3.307  0.00  0.00    -0.250 NA
ATOM     11  C   UNL     1      -2.971  -1.942  -2.168  0.00  0.00    +0.063 C 
ATOM     12  C   UNL     1      -3.535  -1.843  -0.772  0.00  0.00    +0.106 C 
ATOM     13  N   UNL     1      -2.638  -2.570   0.138  0.00  0.00    -0.274 NA
ATOM     14  C   UNL     1      -3.106  -2.466   1.525  0.00  0.00    +0.087 C 
ATOM     15  C   UNL     1      -4.487  -3.115   1.644  0.00  0.00    +0.008 C 
ATOM     16  C   UNL     1      -5.464  -2.412   0.697  0.00  0.00    -0.068 C 
ATOM     17  C   UNL     1      -4.931  -2.466  -0.733  0.00  0.00    +0.009 C 
ENDROOT
BRANCH  14  18
ATOM     18  C   UNL     1      -2.137  -3.173   2.437  0.00  0.00    -0.030 A 
ATOM     19  C   UNL     1      -1.567  -4.370   2.043  0.00  0.00    +0.009 A 
ATOM     20  C   UNL     1      -0.679  -5.021   2.878  0.00  0.00    +0.046 A 
ATOM     21  C   UNL     1      -0.359  -4.472   4.112  0.00  0.00    +0.130 A 
ATOM     22  C   UNL     1      -0.932  -3.271   4.504  0.00  0.00    +0.046 A 
ATOM     23  C   UNL     1      -1.816  -2.622   3.663  0.00  0.00    +0.009 A 
BRANCH  21  24
ATOM     24  O   UNL     1       0.514  -5.110   4.934  0.00  0.00    -0.406 OA
BRANCH  24  25
ATOM     25  C   UNL     1       0.797  -4.488   6.189  0.00  0.00    +0.575 C 
ATOM     26  F   UNL     1      -0.387  -4.360   6.923  0.00  0.00    -0.133 F 
ATOM     27  F   UNL     1       1.707  -5.273   6.905  0.00  0.00    -0.133 F 
ATOM     28  F   UNL     1       1.347  -3.221   5.967  0.00  0.00    -0.133 F 
ENDBRANCH  24  25
ENDBRANCH  21  24
ENDBRANCH  14  18
BRANCH  16  29
ATOM     29  N   UNL     1      -6.772  -3.077   0.761  0.00  0.00    +0.383 N 
ATOM     30  H   UNL     1      -7.392  -2.667   0.078  0.00  0.00    -0.085 HD
ATOM     31  H   UNL     1      -6.660  -4.061   0.564  0.00  0.00    -0.085 HD
BRANCH  29  32
ATOM     32  C   UNL     1      -7.343  -2.908   2.103  0.00  0.00    -0.072 C 
ATOM     33  C   UNL     1      -7.565  -4.169   2.941  0.00  0.00    -0.017 C 
ATOM     34  C   UNL     1      -8.762  -3.431   2.339  0.00  0.00    -0.017 C 
ENDBRANCH  29  32
ENDBRANCH  16  29
BRANCH   1  35
ATOM     35  C   UNL     1      -1.185  -0.630   0.010  0.00  0.00    +0.325 C 
ATOM     36  O   UNL     1      -1.922   0.007  -0.706  0.00  0.00    -0.249 OA
BRANCH  35  38
ATOM     37  C   UNL     1      -0.315   1.433   0.768  0.00  0.00    +0.280 C 
ATOM     38  O   UNL     1      -0.316   0.004   0.812  0.00  0.00    -0.467 OA
ENDBRANCH  35  38
ENDBRANCH   1  35
TORSDOF 7
