REMARK  Name = ZINC18178528
REMARK  7 active torsions:
REMARK  status: ('A' for Active; 'I' for Inactive)
REMARK    1  A    between atoms: C_1  and  O_2
REMARK    2  A    between atoms: O_2  and  C_3
REMARK    3  A    between atoms: C_8  and  N_9
REMARK    4  A    between atoms: N_12  and  C_13
REMARK    5  A    between atoms: C_13  and  C_14
REMARK    6  A    between atoms: C_14  and  C_16
REMARK    7  A    between atoms: C_14  and  C_21
REMARK                            x       y       z     vdW  Elec       q    Type
REMARK                         _______ _______ _______ _____ _____    ______ ____
ROOT
ATOM      1  C   UNL     1      -1.059   5.096   0.035  0.00  0.00    +0.075 C 
ENDROOT
BRANCH   1   2
ATOM      2  C   UNL     1      -1.890   5.302   1.275  0.00  0.00    -0.013 A 
ATOM      3  C   UNL     1      -3.000   4.628   1.613  0.00  0.00    +0.088 A 
ATOM      4  N   UNL     1      -3.479   5.087   2.810  0.00  0.00    -0.360 N 
ATOM      5  H   UNL     1      -4.271   4.752   3.259  0.00  0.00    +0.165 HD
ATOM      6  C   UNL     1      -2.674   6.101   3.278  0.00  0.00    +0.047 A 
ATOM      7  C   UNL     1      -1.643   6.280   2.337  0.00  0.00    +0.003 A 
ATOM      8  C   UNL     1      -0.666   7.254   2.552  0.00  0.00    +0.010 A 
ATOM      9  C   UNL     1      -0.716   8.029   3.676  0.00  0.00    +0.001 A 
ATOM     10  C   UNL     1      -1.732   7.857   4.607  0.00  0.00    +0.002 A 
ATOM     11  C   UNL     1      -2.706   6.902   4.415  0.00  0.00    +0.026 A 
ENDBRANCH   1   2
BRANCH   1  12
ATOM     12  C   UNL     1      -0.531   3.685   0.013  0.00  0.00    -0.001 A 
ATOM     13  C   UNL     1       0.754   3.255  -0.004  0.00  0.00    +0.012 A 
ATOM     14  C   UNL     1       1.006   1.895  -0.023  0.00  0.00    +0.008 A 
ATOM     15  C   UNL     1      -0.040   1.034  -0.026  0.00  0.00    +0.045 A 
ATOM     16  S   UNL     1      -1.436   2.146  -0.007  0.00  0.00    -0.101 S 
ENDBRANCH   1  12
BRANCH   1  17
ATOM     17  C   UNL     1      -1.923   5.338  -1.204  0.00  0.00    +0.119 C 
BRANCH  17  21
ATOM     18  N   UNL     1      -0.872   5.360  -4.727  0.00  0.00    -0.266 N 
ATOM     19  C   UNL     1      -1.639   5.435  -3.622  0.00  0.00    +0.304 C 
ATOM     20  O   UNL     1      -2.829   5.667  -3.723  0.00  0.00    -0.253 OA
ATOM     21  N   UNL     1      -1.089   5.255  -2.405  0.00  0.00    -0.298 N 
ATOM     22  H   UNL     1       0.089   5.257  -4.644  0.00  0.00    +0.156 HD
ATOM     23  H   UNL     1      -0.140   5.071  -2.325  0.00  0.00    +0.150 HD
BRANCH  18  29
ATOM     24  C   UNL     1      -0.715   5.858  -7.091  0.00  0.00    +0.141 A 
ATOM     25  C   UNL     1      -1.303   5.924  -8.344  0.00  0.00    +0.047 A 
ATOM     26  C   UNL     1      -2.628   5.565  -8.505  0.00  0.00    +0.004 A 
ATOM     27  C   UNL     1      -3.370   5.139  -7.419  0.00  0.00    +0.002 A 
ATOM     28  C   UNL     1      -2.790   5.066  -6.167  0.00  0.00    +0.027 A 
ATOM     29  C   UNL     1      -1.462   5.429  -5.997  0.00  0.00    +0.077 A 
BRANCH  24  31
ATOM     30  C   UNL     1       1.292   6.640  -8.098  0.00  0.00    +0.277 C 
ATOM     31  O   UNL     1       0.589   6.210  -6.931  0.00  0.00    -0.493 OA
ENDBRANCH  24  31
ENDBRANCH  18  29
ENDBRANCH  17  21
ENDBRANCH   1  17
TORSDOF 6
