REMARK  Name = ZINC01444050
REMARK  7 active torsions:
REMARK  status: ('A' for Active; 'I' for Inactive)
REMARK    1  A    between atoms: C_1  and  C_2
REMARK    2  A    between atoms: C_3  and  C_23
REMARK    3  A    between atoms: N_6  and  C_7
REMARK    4  A    between atoms: C_10  and  N_13
REMARK    5  A    between atoms: C_17  and  C_21
REMARK    6  A    between atoms: C_17  and  C_22
REMARK    7  A    between atoms: C_23  and  C_24
REMARK                            x       y       z     vdW  Elec       q    Type
REMARK                         _______ _______ _______ _____ _____    ______ ____
ROOT
ATOM      1  C   UNL     1       3.619   0.651  -0.032  0.00  0.00    +0.064 C 
ATOM      2  C   UNL     1       2.113   0.699  -0.017  0.00  0.00    +0.025 A 
ATOM      3  C   UNL     1       1.368   1.824  -0.001  0.00  0.00    -0.012 A 
ATOM      4  C   UNL     1      -0.017   1.386   0.010  0.00  0.00    +0.042 A 
ATOM      5  C   UNL     1       0.002  -0.004   0.002  0.00  0.00    +0.035 A 
ATOM      6  N   UNL     1       1.283  -0.393  -0.015  0.00  0.00    -0.316 N 
ATOM      7  C   UNL     1      -1.254  -0.837   0.016  0.00  0.00    +0.061 C 
ATOM      8  C   UNL     1      -2.416   0.011   0.540  0.00  0.00    -0.023 C 
ATOM      9  C   UNL     1      -2.525   1.324  -0.241  0.00  0.00    +0.086 C 
ATOM     10  C   UNL     1      -1.271   2.145   0.020  0.00  0.00    +0.166 C 
ATOM     11  O   UNL     1      -1.307   3.341   0.227  0.00  0.00    -0.292 OA
ATOM     12  C   UNL     1      -3.721  -0.774   0.389  0.00  0.00    +0.011 C 
ATOM     13  C   UNL     1      -2.185   0.323   2.020  0.00  0.00    +0.011 C 
ENDROOT
BRANCH   6  14
ATOM     14  C   UNL     1       1.715  -1.726  -0.030  0.00  0.00    +0.047 A 
ATOM     15  C   UNL     1       1.464  -2.550   1.059  0.00  0.00    +0.028 A 
ATOM     16  C   UNL     1       1.888  -3.865   1.040  0.00  0.00    +0.035 A 
ATOM     17  C   UNL     1       2.569  -4.357  -0.058  0.00  0.00    +0.126 A 
ATOM     18  C   UNL     1       2.825  -3.538  -1.142  0.00  0.00    +0.035 A 
ATOM     19  C   UNL     1       2.400  -2.223  -1.131  0.00  0.00    +0.028 A 
BRANCH  17  20
ATOM     20  N   UNL     1       3.026  -5.765  -0.073  0.00  0.00    +0.056 N 
ATOM     21  O   UNL     1       3.627  -6.200  -1.039  0.00  0.00    -0.126 OA
ATOM     22  O   UNL     1       2.801  -6.489   0.881  0.00  0.00    -0.126 OA
ENDBRANCH  17  20
ENDBRANCH   6  14
BRANCH   3  23
ATOM     23  C   UNL     1       1.870   3.244   0.004  0.00  0.00    +0.093 C 
BRANCH  23  24
ATOM     24  C   UNL     1       2.055   3.715   1.448  0.00  0.00    +0.195 C 
ATOM     25 CL   UNL     1       3.251   2.652   2.278  0.00  0.00    -0.083 Cl
ATOM     26 CL   UNL     1       2.655   5.415   1.454  0.00  0.00    -0.083 Cl
ATOM     27 CL   UNL     1       0.475   3.633   2.313  0.00  0.00    -0.083 Cl
ENDBRANCH  23  24
ENDBRANCH   3  23
TORSDOF 4
