REMARK  Name = ZINC27690994
REMARK  9 active torsions:
REMARK  status: ('A' for Active; 'I' for Inactive)
REMARK    1  A    between atoms: C_1  and  C_2
REMARK    2  A    between atoms: C_5  and  S_8
REMARK    3  A    between atoms: S_8  and  N_11
REMARK    4  A    between atoms: N_11  and  C_12
REMARK    5  A    between atoms: C_12  and  C_14
REMARK    6  A    between atoms: C_12  and  C_15
REMARK    7  A    between atoms: C_15  and  C_16
REMARK    8  A    between atoms: N_19  and  C_27
REMARK    9  A    between atoms: C_27  and  C_28
REMARK                            x       y       z     vdW  Elec       q    Type
REMARK                         _______ _______ _______ _____ _____    ______ ____
ROOT
ATOM      1  C   UNL     1       0.624   3.262   3.719  0.00  0.00    +0.040 C 
ATOM      2  C   UNL     1       0.079   3.289   2.273  0.00  0.00    +0.113 C 
ATOM      3  N   UNL     1       1.177   3.940   1.525  0.00  0.00    -0.325 N 
ATOM      4  C   UNL     1       2.374   3.678   2.204  0.00  0.00    +0.034 A 
ATOM      5  C   UNL     1       2.126   3.282   3.514  0.00  0.00    -0.021 A 
ATOM      6  C   UNL     1       3.170   2.984   4.364  0.00  0.00    +0.021 A 
ATOM      7  C   UNL     1       4.476   3.071   3.915  0.00  0.00    +0.018 A 
ATOM      8  C   UNL     1       4.733   3.458   2.612  0.00  0.00    +0.017 A 
ATOM      9  C   UNL     1       3.692   3.760   1.759  0.00  0.00    +0.024 A 
ATOM     10 BR   UNL     1       5.908   2.661   5.080  0.00  0.00    -0.050 Br
ENDROOT
BRANCH   1  11
ATOM     11  C   UNL     1       0.167   4.499   4.494  0.00  0.00    +0.030 C 
BRANCH  11  12
ATOM     12  C   UNL     1       0.741   4.455   5.912  0.00  0.00    +0.074 C 
ATOM     13  C   UNL     1       0.153   3.258   6.662  0.00  0.00    +0.025 C 
BRANCH  12  14
ATOM     14  N   UNL     1       0.395   5.691   6.617  0.00  0.00    -0.187 NA
ATOM     15  H   UNL     1      -0.493   6.266   6.317  0.00  0.00    +0.148 HD
BRANCH  14  16
ATOM     16  S   UNL     1       1.464   6.356   7.693  0.00  0.00    +0.059 S 
ATOM     17  O   UNL     1       0.849   7.532   8.202  0.00  0.00    -0.153 OA
ATOM     18  O   UNL     1       1.902   5.300   8.536  0.00  0.00    -0.153 OA
BRANCH  16  23
ATOM     19  C   UNL     1       6.282   8.158   4.539  0.00  0.00    +0.044 C 
ATOM     20  C   UNL     1       5.079   7.708   5.328  0.00  0.00    -0.050 A 
ATOM     21  C   UNL     1       4.052   8.596   5.588  0.00  0.00    +0.005 A 
ATOM     22  C   UNL     1       2.948   8.183   6.310  0.00  0.00    +0.029 A 
ATOM     23  C   UNL     1       2.871   6.882   6.772  0.00  0.00    +0.105 A 
ATOM     24  C   UNL     1       3.901   5.996   6.517  0.00  0.00    +0.029 A 
ATOM     25  C   UNL     1       5.003   6.407   5.790  0.00  0.00    +0.005 A 
ENDBRANCH  16  23
ENDBRANCH  14  16
ENDBRANCH  12  14
ENDBRANCH  11  12
ENDBRANCH   1  11
BRANCH   3  26
ATOM     26  C   UNL     1       1.237   3.447   0.143  0.00  0.00    +0.140 C 
BRANCH  26  27
ATOM     27  C   UNL     1       1.228   1.940   0.146  0.00  0.00    -0.030 A 
ATOM     28  C   UNL     1       0.029   1.255   0.093  0.00  0.00    +0.005 A 
ATOM     29  C   UNL     1       0.021  -0.127   0.096  0.00  0.00    +0.000 A 
ATOM     30  C   UNL     1       1.214  -0.825   0.151  0.00  0.00    +0.000 A 
ATOM     31  C   UNL     1       2.413  -0.140   0.203  0.00  0.00    +0.000 A 
ATOM     32  C   UNL     1       2.421   1.242   0.200  0.00  0.00    +0.005 A 
ENDBRANCH  26  27
ENDBRANCH   3  26
TORSDOF 7
