REMARK  Name = ZINC10000114
REMARK  11 active torsions:
REMARK  status: ('A' for Active; 'I' for Inactive)
REMARK    1  A    between atoms: C_1  and  C_2
REMARK    2  A    between atoms: C_2  and  C_3
REMARK    3  A    between atoms: C_2  and  C_4
REMARK    4  A    between atoms: C_4  and  C_6
REMARK    5  A    between atoms: C_4  and  N_21
REMARK    6  A    between atoms: N_8  and  N_9
REMARK    7  A    between atoms: C_10  and  C_11
REMARK    8  A    between atoms: C_14  and  O_17
REMARK    9  A    between atoms: O_17  and  C_18
REMARK   10  A    between atoms: C_18  and  C_19
REMARK   11  A    between atoms: C_22  and  C_24
REMARK                            x       y       z     vdW  Elec       q    Type
REMARK                         _______ _______ _______ _____ _____    ______ ____
ROOT
ATOM      1  C   UNL     1       4.789   5.537  -0.731  0.00  0.00    +0.253 C 
ATOM      2  O   UNL     1       3.695   5.966  -1.034  0.00  0.00    -0.272 OA
ATOM      3  N   UNL     1       5.898   6.235  -1.046  0.00  0.00    -0.205 N 
ATOM      4  H   UNL     1       6.766   5.929  -0.741  0.00  0.00    +0.177 HD
ENDROOT
BRANCH   3   5
ATOM      5  N   UNL     1       5.796   7.403  -1.814  0.00  0.00    -0.188 NA
ATOM      6  C   UNL     1       6.864   8.075  -2.117  0.00  0.00    +0.138 C 
BRANCH   6   7
ATOM      7  C   UNL     1       6.757   9.303  -2.925  0.00  0.00    -0.005 A 
ATOM      8  C   UNL     1       5.507   9.743  -3.371  0.00  0.00    +0.013 A 
ATOM      9  C   UNL     1       5.412  10.894  -4.122  0.00  0.00    +0.046 A 
ATOM     10  C   UNL     1       6.556  11.612  -4.445  0.00  0.00    +0.121 A 
ATOM     11  C   UNL     1       7.801  11.176  -4.008  0.00  0.00    +0.046 A 
ATOM     12  C   UNL     1       7.905  10.029  -3.253  0.00  0.00    +0.013 A 
BRANCH  10  13
ATOM     13  O   UNL     1       6.457  12.743  -5.190  0.00  0.00    -0.481 OA
BRANCH  13  14
ATOM     14  C   UNL     1       5.147  13.134  -5.606  0.00  0.00    +0.353 C 
BRANCH  14  15
ATOM     15  C   UNL     1       5.235  14.402  -6.417  0.00  0.00    +0.393 C 
ATOM     16  O   UNL     1       6.309  14.918  -6.617  0.00  0.00    -0.243 OA
ATOM     17  O   UNL     1       4.120  14.958  -6.915  0.00  0.00    -0.243 OA
ENDBRANCH  14  15
ENDBRANCH  13  14
ENDBRANCH  10  13
ENDBRANCH   6   7
ENDBRANCH   3   5
BRANCH   1  18
ATOM     18  C   UNL     1       4.907   4.223  -0.003  0.00  0.00    +0.163 C 
BRANCH  18  19
ATOM     19  N   UNL     1       3.661   3.467  -0.154  0.00  0.00    -0.300 N 
ATOM     20  C   UNL     1       3.672   2.123  -0.052  0.00  0.00    +0.245 C 
ATOM     21  O   UNL     1       4.715   1.538   0.165  0.00  0.00    -0.270 OA
ATOM     22  H   UNL     1       2.829   3.933  -0.328  0.00  0.00    +0.150 HD
BRANCH  20  23
ATOM     23  C   UNL     1       2.415   1.360  -0.205  0.00  0.00    +0.038 A 
ATOM     24  C   UNL     1       1.216   2.029  -0.455  0.00  0.00    +0.014 A 
ATOM     25  C   UNL     1       0.046   1.313  -0.595  0.00  0.00    +0.022 A 
ATOM     26  C   UNL     1       0.059  -0.068  -0.490  0.00  0.00    +0.059 A 
ATOM     27  C   UNL     1       1.246  -0.738  -0.242  0.00  0.00    +0.060 A 
ATOM     28  C   UNL     1       2.423  -0.032  -0.100  0.00  0.00    +0.034 A 
ATOM     29 CL   UNL     1       1.254  -2.469  -0.112  0.00  0.00    -0.082 Cl
ATOM     30 CL   UNL     1      -1.418  -0.963  -0.668  0.00  0.00    -0.082 Cl
ENDBRANCH  20  23
ENDBRANCH  18  19
BRANCH  18  32
ATOM     31  C   UNL     1       3.961   5.199   2.093  0.00  0.00    +0.009 C 
ATOM     32  C   UNL     1       5.168   4.484   1.482  0.00  0.00    +0.012 C 
ATOM     33  C   UNL     1       5.392   3.153   2.202  0.00  0.00    +0.009 C 
ENDBRANCH  18  32
ENDBRANCH   1  18
TORSDOF 9
