REMARK  Name = ZINC38657807
REMARK  12 active torsions:
REMARK  status: ('A' for Active; 'I' for Inactive)
REMARK    1  A    between atoms: C_1  and  C_2
REMARK    2  A    between atoms: C_2  and  C_3
REMARK    3  A    between atoms: C_3  and  C_4
REMARK    4  A    between atoms: C_4  and  C_5
REMARK    5  A    between atoms: C_5  and  O_6
REMARK    6  A    between atoms: O_6  and  C_7
REMARK    7  A    between atoms: C_10  and  C_13
REMARK    8  A    between atoms: C_13  and  O_15
REMARK    9  A    between atoms: O_15  and  C_16
REMARK   10  A    between atoms: C_23  and  N_39
REMARK   11  A    between atoms: C_24  and  C_37
REMARK   12  A    between atoms: C_25  and  C_27
REMARK                            x       y       z     vdW  Elec       q    Type
REMARK                         _______ _______ _______ _____ _____    ______ ____
ROOT
ATOM      1  C   UNL     1       4.671  -8.245  -8.057  0.00  0.00    +0.135 A 
ATOM      2  C   UNL     1       5.260  -7.358  -8.948  0.00  0.00    +0.047 A 
ATOM      3  C   UNL     1       5.931  -7.837 -10.056  0.00  0.00    +0.012 A 
ATOM      4  C   UNL     1       6.020  -9.199 -10.283  0.00  0.00    +0.008 A 
ATOM      5  C   UNL     1       5.433 -10.089  -9.397  0.00  0.00    +0.138 A 
ATOM      6  C   UNL     1       4.763  -9.609  -8.279  0.00  0.00    +0.093 A 
ATOM      7  O   UNL     1       5.509 -11.427  -9.603  0.00  0.00    -0.441 OA
ATOM      8  C   UNL     1       5.801 -11.901 -10.825  0.00  0.00    +0.199 C 
ATOM      9  C   UNL     1       6.392 -11.133 -11.770  0.00  0.00    +0.098 C 
ATOM     10  C   UNL     1       6.756  -9.700 -11.497  0.00  0.00    +0.098 C 
ENDROOT
BRANCH  10  11
ATOM     11  C   UNL     1       8.241  -9.599 -11.258  0.00  0.00    -0.027 A 
ATOM     12  C   UNL     1       8.830 -10.351 -10.289  0.00  0.00    +0.005 A 
ATOM     13  C   UNL     1      10.201 -10.271 -10.053  0.00  0.00    +0.001 A 
ATOM     14  C   UNL     1      10.991  -9.437 -10.785  0.00  0.00    +0.008 A 
ATOM     15  C   UNL     1      10.417  -8.645 -11.793  0.00  0.00    -0.018 A 
ATOM     16  C   UNL     1       9.024  -8.731 -12.037  0.00  0.00    -0.014 A 
ATOM     17  C   UNL     1       8.451  -7.942 -13.050  0.00  0.00    +0.009 A 
ATOM     18  C   UNL     1       9.241  -7.113 -13.785  0.00  0.00    +0.001 A 
ATOM     19  C   UNL     1      10.613  -7.033 -13.550  0.00  0.00    +0.001 A 
ATOM     20  C   UNL     1      11.200  -7.771 -12.568  0.00  0.00    +0.008 A 
ENDBRANCH  10  11
BRANCH   8  21
ATOM     21  N   UNL     1       5.491 -13.204 -11.125  0.00  0.00    -0.328 N 
ATOM     22  H   UNL     1       5.067 -13.768 -10.459  0.00  0.00    +0.145 HD
ATOM     23  H   UNL     1       5.695 -13.562 -12.004  0.00  0.00    +0.145 HD
ENDBRANCH   8  21
BRANCH   9  24
ATOM     24  C   UNL     1       6.677 -11.696 -13.056  0.00  0.00    +0.101 C 
ATOM     25  N   UNL     1       6.903 -12.143 -14.075  0.00  0.00    -0.191 NA
ENDBRANCH   9  24
BRANCH   1  26
ATOM     26  O   UNL     1       4.011  -7.776  -6.966  0.00  0.00    -0.422 OA
BRANCH  26  27
ATOM     27  C   UNL     1       4.633  -7.843  -5.772  0.00  0.00    +0.344 C 
ATOM     28  O   UNL     1       5.713  -8.393  -5.680  0.00  0.00    -0.245 OA
BRANCH  27  32
ATOM     29  C   UNL     1       2.821  -6.132  -2.335  0.00  0.00    +0.121 A 
ATOM     30  C   UNL     1       4.056  -6.761  -2.227  0.00  0.00    +0.046 A 
ATOM     31  C   UNL     1       4.647  -7.318  -3.339  0.00  0.00    +0.018 A 
ATOM     32  C   UNL     1       4.004  -7.249  -4.579  0.00  0.00    +0.060 A 
ATOM     33  C   UNL     1       2.762  -6.615  -4.683  0.00  0.00    +0.018 A 
ATOM     34  C   UNL     1       2.175  -6.067  -3.564  0.00  0.00    +0.046 A 
BRANCH  29  35
ATOM     35  O   UNL     1       2.243  -5.585  -1.236  0.00  0.00    -0.492 OA
BRANCH  35  36
ATOM     36  C   UNL     1       2.961  -5.688  -0.005  0.00  0.00    +0.229 C 
BRANCH  36  37
ATOM     37  C   UNL     1       2.157  -5.020   1.112  0.00  0.00    +0.041 C 
BRANCH  37  38
ATOM     38  C   UNL     1       2.926  -5.130   2.430  0.00  0.00    +0.003 C 
BRANCH  38  40
ATOM     39  C   UNL     1       2.892  -4.571   4.865  0.00  0.00    +0.004 C 
ATOM     40  C   UNL     1       2.122  -4.461   3.547  0.00  0.00    -0.003 C 
ENDBRANCH  38  40
ENDBRANCH  37  38
ENDBRANCH  36  37
ENDBRANCH  35  36
ENDBRANCH  29  35
ENDBRANCH  27  32
ENDBRANCH  26  27
ENDBRANCH   1  26
TORSDOF 11
