REMARK  Name = ZINC13500748
REMARK  15 active torsions:
REMARK  status: ('A' for Active; 'I' for Inactive)
REMARK    1  A    between atoms: C_1  and  C_2
REMARK    2  A    between atoms: C_2  and  C_3
REMARK    3  A    between atoms: C_3  and  C_4
REMARK    4  A    between atoms: C_4  and  C_6
REMARK    5  A    between atoms: C_4  and  N_15
REMARK    6  A    between atoms: N_10  and  C_11
REMARK    7  A    between atoms: C_11  and  C_12
REMARK    8  A    between atoms: C_11  and  C_13
REMARK    9  A    between atoms: C_11  and  C_14
REMARK   10  A    between atoms: N_15  and  C_16
REMARK   11  A    between atoms: N_15  and  C_22
REMARK   12  A    between atoms: C_16  and  C_17
REMARK   13  A    between atoms: C_22  and  C_23
REMARK   14  A    between atoms: C_27  and  C_36
REMARK   15  A    between atoms: C_29  and  C_35
REMARK                            x       y       z     vdW  Elec       q    Type
REMARK                         _______ _______ _______ _____ _____    ______ ____
ROOT
ATOM      1  N   UNL     1      -0.447  -3.462   0.788  0.00  0.00    -0.284 NA
ENDROOT
BRANCH   1   2
ATOM      2  C   UNL     1      -1.039  -2.716  -0.331  0.00  0.00    +0.127 C 
BRANCH   2   3
ATOM      3  C   UNL     1      -0.385  -1.361  -0.432  0.00  0.00    +0.169 A 
ATOM      4  N   UNL     1       0.895  -1.100  -0.324  0.00  0.00    -0.112 NA
ATOM      5  N   UNL     1       1.055   0.170  -0.470  0.00  0.00    -0.023 NA
ATOM      6  N   UNL     1      -0.089   0.725  -0.669  0.00  0.00    -0.043 NA
ATOM      7  N   UNL     1      -1.002  -0.186  -0.658  0.00  0.00    -0.222 N 
BRANCH   7   8
ATOM      8  C   UNL     1      -2.439   0.019  -0.851  0.00  0.00    +0.059 C 
ATOM      9  C   UNL     1      -3.177  -0.280   0.455  0.00  0.00    +0.036 C 
ATOM     10  C   UNL     1      -2.697   1.470  -1.262  0.00  0.00    +0.036 C 
ATOM     11  C   UNL     1      -2.946  -0.919  -1.949  0.00  0.00    +0.036 C 
ENDBRANCH   7   8
ENDBRANCH   2   3
BRANCH   2  12
ATOM     12  C   UNL     1      -0.818  -3.488  -1.633  0.00  0.00    +0.026 C 
BRANCH  12  14
ATOM     13  C   UNL     1      -1.432  -5.548  -2.906  0.00  0.00    +0.004 C 
ATOM     14  C   UNL     1      -1.549  -4.830  -1.560  0.00  0.00    -0.001 C 
ENDBRANCH  12  14
ENDBRANCH   2  12
ENDBRANCH   1   2
BRANCH   1  15
ATOM     15  C   UNL     1      -0.957  -2.973   2.076  0.00  0.00    +0.127 C 
BRANCH  15  16
ATOM     16  C   UNL     1      -2.325  -3.553   2.328  0.00  0.00    +0.004 A 
ATOM     17  C   UNL     1      -2.667  -4.652   3.043  0.00  0.00    +0.012 A 
ATOM     18  C   UNL     1      -4.001  -5.001   3.140  0.00  0.00    +0.008 A 
ATOM     19  C   UNL     1      -4.928  -4.233   2.517  0.00  0.00    +0.045 A 
ATOM     20  S   UNL     1      -3.916  -2.968   1.767  0.00  0.00    -0.100 S 
ENDBRANCH  15  16
ENDBRANCH   1  15
BRANCH   1  21
ATOM     21  C   UNL     1       1.020  -3.399   0.745  0.00  0.00    +0.126 C 
BRANCH  21  22
ATOM     22  C   UNL     1       1.595  -4.495   1.605  0.00  0.00    +0.031 A 
ATOM     23  C   UNL     1       1.910  -5.693   1.052  0.00  0.00    +0.020 A 
ATOM     24  C   UNL     1       2.467  -6.736   1.914  0.00  0.00    -0.001 A 
ATOM     25  C   UNL     1       2.812  -7.991   1.401  0.00  0.00    +0.013 A 
ATOM     26  C   UNL     1       3.330  -8.944   2.232  0.00  0.00    -0.050 A 
ATOM     27  C   UNL     1       3.517  -8.677   3.582  0.00  0.00    +0.008 A 
ATOM     28  C   UNL     1       3.183  -7.449   4.109  0.00  0.00    -0.026 A 
ATOM     29  C   UNL     1       2.655  -6.463   3.282  0.00  0.00    +0.052 A 
ATOM     30  N   UNL     1       2.314  -5.224   3.783  0.00  0.00    -0.322 N 
ATOM     31  H   UNL     1       2.444  -5.037   4.726  0.00  0.00    +0.169 HD
ATOM     32  C   UNL     1       1.808  -4.270   2.982  0.00  0.00    +0.254 A 
ATOM     33  O   UNL     1       1.522  -3.185   3.458  0.00  0.00    -0.268 OA
ATOM     34  C   UNL     1       3.390  -7.174   5.577  0.00  0.00    +0.046 C 
ATOM     35  C   UNL     1       3.702 -10.295   1.679  0.00  0.00    +0.044 C 
ENDBRANCH  21  22
ENDBRANCH   1  21
TORSDOF 9
