REMARK  Name = ZINC40734978
REMARK  6 active torsions:
REMARK  status: ('A' for Active; 'I' for Inactive)
REMARK    1  A    between atoms: C_1  and  C_2
REMARK    2  A    between atoms: C_7  and  C_9
REMARK    3  A    between atoms: C_7  and  C_10
REMARK    4  A    between atoms: C_14  and  N_27
REMARK    5  A    between atoms: C_15  and  N_19
REMARK    6  A    between atoms: N_19  and  C_20
REMARK                            x       y       z     vdW  Elec       q    Type
REMARK                         _______ _______ _______ _____ _____    ______ ____
ROOT
ATOM      1  C   UNL     1      -0.869   2.634  -2.510  0.00  0.00    +0.013 C 
ATOM      2  C   UNL     1      -0.912   1.292  -1.763  0.00  0.00    -0.014 C 
ATOM      3  C   UNL     1      -2.291   0.587  -1.893  0.00  0.00    +0.030 C 
ATOM      4  C   UNL     1      -1.880  -0.856  -1.509  0.00  0.00    +0.076 C 
ATOM      5  C   UNL     1      -1.691  -0.885   0.006  0.00  0.00    +0.029 C 
ATOM      6  C   UNL     1      -0.707   0.149   0.523  0.00  0.00    -0.033 C 
ATOM      7  C   UNL     1      -0.616   1.438  -0.272  0.00  0.00    +0.014 C 
ATOM      8  C   UNL     1       0.685  -0.484   0.661  0.00  0.00    +0.011 C 
ATOM      9  C   UNL     1      -1.158   0.528   1.957  0.00  0.00    +0.011 C 
ATOM     10  N   UNL     1      -0.574  -1.067  -2.164  0.00  0.00    -0.310 N 
ATOM     11  C   UNL     1       0.050   0.249  -2.375  0.00  0.00    +0.113 C 
ATOM     12  C   UNL     1      -0.030  -2.293  -2.529  0.00  0.00    +0.147 A 
ATOM     13  C   UNL     1       1.157  -2.352  -3.262  0.00  0.00    +0.106 A 
ATOM     14  C   UNL     1       1.659  -3.609  -3.602  0.00  0.00    +0.149 A 
ATOM     15  N   UNL     1       0.993  -4.695  -3.217  0.00  0.00    -0.219 NA
ATOM     16  C   UNL     1      -0.124  -4.595  -2.526  0.00  0.00    +0.225 A 
ATOM     17  N   UNL     1      -0.629  -3.428  -2.179  0.00  0.00    -0.219 NA
ENDROOT
BRANCH  13  18
ATOM     18  N   UNL     1       1.826  -1.179  -3.648  0.00  0.00    -0.353 N 
ATOM     19  H   UNL     1       1.865  -0.422  -3.043  0.00  0.00    +0.143 HD
ATOM     20  H   UNL     1       2.249  -1.126  -4.519  0.00  0.00    +0.143 HD
ENDBRANCH  13  18
BRANCH  14  21
ATOM     21  N   UNL     1       2.837  -3.725  -4.332  0.00  0.00    -0.298 N 
ATOM     22  H   UNL     1       3.359  -2.934  -4.538  0.00  0.00    +0.154 HD
BRANCH  21  23
ATOM     23  C   UNL     1       3.268  -4.981  -4.769  0.00  0.00    +0.032 A 
ATOM     24  C   UNL     1       4.626  -5.258  -4.859  0.00  0.00    +0.024 A 
ATOM     25  C   UNL     1       5.048  -6.500  -5.291  0.00  0.00    +0.017 A 
ATOM     26  C   UNL     1       4.121  -7.467  -5.635  0.00  0.00    +0.018 A 
ATOM     27  C   UNL     1       2.767  -7.193  -5.547  0.00  0.00    +0.017 A 
ATOM     28  C   UNL     1       2.338  -5.955  -5.110  0.00  0.00    +0.024 A 
ATOM     29 BR   UNL     1       4.704  -9.166  -6.226  0.00  0.00    -0.050 Br
ENDBRANCH  21  23
ENDBRANCH  14  21
TORSDOF 3
