REMARK  Name = ZINC39201045
REMARK  8 active torsions:
REMARK  status: ('A' for Active; 'I' for Inactive)
REMARK    1  A    between atoms: C_6  and  C_7
REMARK    2  A    between atoms: C_7  and  N_8
REMARK    3  A    between atoms: N_11  and  C_14
REMARK    4  A    between atoms: C_14  and  C_15
REMARK    5  A    between atoms: C_15  and  C_16
REMARK    6  A    between atoms: C_19  and  S_21
REMARK    7  A    between atoms: S_21  and  C_22
REMARK    8  A    between atoms: C_22  and  C_23
REMARK                            x       y       z     vdW  Elec       q    Type
REMARK                         _______ _______ _______ _____ _____    ______ ____
ROOT
ATOM      1  C   UNL     1      -3.994  -1.233  -4.914  0.00  0.00    -0.069 C 
ENDROOT
BRANCH   1   5
ATOM      2  N   UNL     1      -1.728  -1.016  -1.372  0.00  0.00    -0.302 NA
ATOM      3  C   UNL     1      -2.080   0.243  -2.042  0.00  0.00    +0.066 C 
ATOM      4  C   UNL     1      -2.468  -0.046  -3.494  0.00  0.00    -0.063 C 
ATOM      5  N   UNL     1      -3.610  -0.970  -3.520  0.00  0.00    +0.382 N 
ATOM      6  C   UNL     1      -3.235  -2.232  -2.869  0.00  0.00    -0.063 C 
ATOM      7  C   UNL     1      -2.853  -1.961  -1.413  0.00  0.00    +0.066 C 
ATOM      8  H   UNL     1      -4.388  -0.557  -3.030  0.00  0.00    -0.082 HD
BRANCH   2   9
ATOM      9  C   UNL     1      -1.294  -0.774   0.010  0.00  0.00    +0.119 C 
BRANCH   9  15
ATOM     10  C   UNL     1      -0.017   1.378   0.010  0.00  0.00    +0.009 A 
ATOM     11  C   UNL     1       1.170   2.088   0.002  0.00  0.00    +0.050 A 
ATOM     12  C   UNL     1       2.380   1.416  -0.013  0.00  0.00    +0.166 A 
ATOM     13  C   UNL     1       2.399   0.023  -0.021  0.00  0.00    +0.167 A 
ATOM     14  C   UNL     1       1.207  -0.682  -0.014  0.00  0.00    +0.054 A 
ATOM     15  C   UNL     1       0.002  -0.004   0.002  0.00  0.00    -0.030 A 
ATOM     16  O   UNL     1       3.698  -0.395  -0.036  0.00  0.00    -0.453 OA
ATOM     17  C   UNL     1       4.466   0.750  -0.450  0.00  0.00    +0.466 C 
ATOM     18  O   UNL     1       3.668   1.870  -0.024  0.00  0.00    -0.453 OA
ENDBRANCH   9  15
ENDBRANCH   2   9
ENDBRANCH   1   5
BRANCH   1  19
ATOM     19  C   UNL     1      -5.258  -2.095  -4.940  0.00  0.00    +0.079 C 
BRANCH  19  20
ATOM     20  C   UNL     1      -5.652  -2.365  -6.369  0.00  0.00    +0.216 A 
ATOM     21  N   UNL     1      -5.266  -3.373  -7.095  0.00  0.00    -0.112 NA
ATOM     22  N   UNL     1      -5.795  -3.288  -8.265  0.00  0.00    -0.101 NA
ATOM     23  C   UNL     1      -6.543  -2.213  -8.326  0.00  0.00    +0.278 A 
ATOM     24  O   UNL     1      -6.473  -1.609  -7.125  0.00  0.00    -0.416 OA
BRANCH  23  25
ATOM     25  S   UNL     1      -7.473  -1.665  -9.719  0.00  0.00    -0.061 S 
BRANCH  25  26
ATOM     26  C   UNL     1      -7.142  -2.918 -10.988  0.00  0.00    +0.115 C 
BRANCH  26  27
ATOM     27  C   UNL     1      -7.888  -2.564 -12.249  0.00  0.00    -0.015 A 
ATOM     28  C   UNL     1      -9.175  -3.032 -12.444  0.00  0.00    +0.055 A 
ATOM     29  C   UNL     1      -9.863  -2.708 -13.601  0.00  0.00    +0.167 A 
ATOM     30  C   UNL     1      -9.255  -1.911 -14.569  0.00  0.00    +0.168 A 
ATOM     31  C   UNL     1      -7.967  -1.445 -14.368  0.00  0.00    +0.069 A 
ATOM     32  C   UNL     1      -7.287  -1.768 -13.207  0.00  0.00    +0.049 A 
ATOM     33 CL   UNL     1      -5.674  -1.178 -12.954  0.00  0.00    -0.083 Cl
ATOM     34  O   UNL     1     -10.129  -1.738 -15.603  0.00  0.00    -0.453 OA
ATOM     35  C   UNL     1     -11.121  -2.770 -15.445  0.00  0.00    +0.466 C 
ATOM     36  O   UNL     1     -11.117  -3.035 -14.030  0.00  0.00    -0.453 OA
ENDBRANCH  26  27
ENDBRANCH  25  26
ENDBRANCH  23  25
ENDBRANCH  19  20
ENDBRANCH   1  19
TORSDOF 8
