REMARK  Name = ZINC15652654
REMARK  9 active torsions:
REMARK  status: ('A' for Active; 'I' for Inactive)
REMARK    1  A    between atoms: C_1  and  C_2
REMARK    2  A    between atoms: C_2  and  C_3
REMARK    3  A    between atoms: C_3  and  C_4
REMARK    4  A    between atoms: C_4  and  C_6
REMARK    5  A    between atoms: C_4  and  N_7
REMARK    6  A    between atoms: C_8  and  C_10
REMARK    7  A    between atoms: C_11  and  C_19
REMARK    8  A    between atoms: C_19  and  O_20
REMARK    9  A    between atoms: O_20  and  C_21
REMARK                            x       y       z     vdW  Elec       q    Type
REMARK                         _______ _______ _______ _____ _____    ______ ____
ROOT
ATOM      1  C   UNL     1       6.626  -1.219  -1.152  0.00  0.00    +0.197 A 
ATOM      2  C   UNL     1       5.981  -0.737  -0.058  0.00  0.00    +0.048 A 
ATOM      3  C   UNL     1       6.700  -1.263   1.101  0.00  0.00    +0.027 A 
ATOM      4  C   UNL     1       6.537  -1.148   2.484  0.00  0.00    +0.012 A 
ATOM      5  C   UNL     1       7.401  -1.791   3.324  0.00  0.00    +0.001 A 
ATOM      6  C   UNL     1       8.435  -2.563   2.813  0.00  0.00    +0.004 A 
ATOM      7  C   UNL     1       8.610  -2.695   1.452  0.00  0.00    +0.047 A 
ATOM      8  C   UNL     1       7.744  -2.049   0.577  0.00  0.00    +0.136 A 
ATOM      9  O   UNL     1       7.663  -1.991  -0.766  0.00  0.00    -0.450 OA
ENDROOT
BRANCH   1  11
ATOM     10  N   UNL     1       6.966  -1.475  -3.555  0.00  0.00    -0.306 N 
ATOM     11  C   UNL     1       6.251  -0.941  -2.546  0.00  0.00    +0.280 C 
ATOM     12  O   UNL     1       5.295  -0.228  -2.788  0.00  0.00    -0.267 OA
ATOM     13  H   UNL     1       7.728  -2.043  -3.362  0.00  0.00    +0.149 HD
BRANCH  10  14
ATOM     14  C   UNL     1       6.593  -1.198  -4.944  0.00  0.00    +0.070 C 
ATOM     15  C   UNL     1       7.226   0.122  -5.389  0.00  0.00    +0.028 C 
BRANCH  14  16
ATOM     16  C   UNL     1       7.091  -2.331  -5.843  0.00  0.00    +0.022 C 
BRANCH  16  18
ATOM     17  C   UNL     1       6.864  -4.761  -6.378  0.00  0.00    +0.004 C 
ATOM     18  C   UNL     1       6.365  -3.628  -5.479  0.00  0.00    -0.002 C 
ENDBRANCH  16  18
ENDBRANCH  14  16
ENDBRANCH  10  14
ENDBRANCH   1  11
BRANCH   2  19
ATOM     19  C   UNL     1       4.772   0.164  -0.042  0.00  0.00    +0.269 C 
BRANCH  19  20
ATOM     20  O   UNL     1       3.586  -0.632  -0.035  0.00  0.00    -0.487 OA
BRANCH  20  21
ATOM     21  C   UNL     1       2.399   0.030  -0.021  0.00  0.00    +0.121 A 
ATOM     22  C   UNL     1       1.207  -0.680  -0.013  0.00  0.00    +0.045 A 
ATOM     23  C   UNL     1       0.002  -0.004   0.002  0.00  0.00    +0.004 A 
ATOM     24  C   UNL     1      -0.017   1.378   0.010  0.00  0.00    +0.000 A 
ATOM     25  C   UNL     1       1.170   2.088   0.002  0.00  0.00    +0.004 A 
ATOM     26  C   UNL     1       2.377   1.417  -0.013  0.00  0.00    +0.045 A 
ENDBRANCH  20  21
ENDBRANCH  19  20
ENDBRANCH   2  19
TORSDOF 7
