REMARK  Name = ZINC39024420
REMARK  7 active torsions:
REMARK  status: ('A' for Active; 'I' for Inactive)
REMARK    1  A    between atoms: C_1  and  C_2
REMARK    2  A    between atoms: C_2  and  C_3
REMARK    3  A    between atoms: C_3  and  N_4
REMARK    4  A    between atoms: C_11  and  O_36
REMARK    5  A    between atoms: C_13  and  C_17
REMARK    6  A    between atoms: C_17  and  N_19
REMARK    7  A    between atoms: C_23  and  C_26
REMARK                            x       y       z     vdW  Elec       q    Type
REMARK                         _______ _______ _______ _____ _____    ______ ____
ROOT
ATOM      1  C   UNL     1       1.010  -4.619  -0.573  0.00  0.00    +0.253 C 
ATOM      2  O   UNL     1       0.054  -5.349  -0.396  0.00  0.00    -0.273 OA
ENDROOT
BRANCH   1  11
ATOM      3  N   UNL     1       0.762  -1.976   1.234  0.00  0.00    -0.270 N 
ATOM      4  C   UNL     1      -0.277  -2.688   1.841  0.00  0.00    +0.042 A 
ATOM      5  C   UNL     1      -1.489  -2.064   2.106  0.00  0.00    +0.024 A 
ATOM      6  C   UNL     1      -2.511  -2.774   2.706  0.00  0.00    +0.002 A 
ATOM      7  C   UNL     1      -2.328  -4.102   3.044  0.00  0.00    +0.000 A 
ATOM      8  C   UNL     1      -1.121  -4.725   2.782  0.00  0.00    +0.008 A 
ATOM      9  C   UNL     1      -0.096  -4.022   2.182  0.00  0.00    +0.003 A 
ATOM     10  C   UNL     1       1.220  -4.697   1.894  0.00  0.00    +0.167 C 
ATOM     11  C   UNL     1       1.814  -4.131   0.604  0.00  0.00    +0.196 C 
ATOM     12  C   UNL     1       1.777  -2.627   0.636  0.00  0.00    +0.235 C 
ATOM     13  O   UNL     1       2.675  -1.994   0.122  0.00  0.00    -0.274 OA
BRANCH  10  14
ATOM     14  O   UNL     1       1.010  -6.103   1.745  0.00  0.00    -0.386 OA
ATOM     15  H   UNL     1       0.635  -6.530   2.527  0.00  0.00    +0.210 HD
ENDBRANCH  10  14
BRANCH   3  16
ATOM     16  C   UNL     1       0.742  -0.511   1.242  0.00  0.00    +0.113 C 
BRANCH  16  18
ATOM     17  C   UNL     1      -0.019   1.526   0.010  0.00  0.00    +0.005 C 
ATOM     18  C   UNL     1       0.002  -0.004   0.002  0.00  0.00    +0.016 C 
ENDBRANCH  16  18
ENDBRANCH   3  16
ENDBRANCH   1  11
BRANCH   1  19
ATOM     19  N   UNL     1       1.345  -4.251  -1.803  0.00  0.00    -0.156 NA
ATOM     20  C   UNL     1       0.633  -4.684  -2.846  0.00  0.00    +0.163 A 
ATOM     21  N   UNL     1      -0.460  -5.492  -2.846  0.00  0.00    -0.339 N 
ATOM     22  H   UNL     1      -0.820  -5.835  -2.013  0.00  0.00    +0.167 HD
ATOM     23  C   UNL     1      -1.039  -5.812  -4.034  0.00  0.00    +0.031 A 
ATOM     24  C   UNL     1      -0.489  -5.304  -5.142  0.00  0.00    +0.070 A 
ATOM     25  S   UNL     1       0.866  -4.354  -4.479  0.00  0.00    -0.060 S 
BRANCH  23  26
ATOM     26  C   UNL     1      -2.252  -6.705  -4.100  0.00  0.00    +0.012 C 
ATOM     27  C   UNL     1      -3.398  -6.066  -3.311  0.00  0.00    +0.016 C 
ATOM     28  C   UNL     1      -4.629  -6.972  -3.378  0.00  0.00    -0.010 C 
ATOM     29  C   UNL     1      -5.052  -7.151  -4.837  0.00  0.00    +0.007 C 
ATOM     30  C   UNL     1      -3.906  -7.789  -5.626  0.00  0.00    -0.010 C 
ATOM     31  C   UNL     1      -2.675  -6.884  -5.559  0.00  0.00    +0.016 C 
ATOM     32  C   UNL     1      -3.569  -9.154  -5.021  0.00  0.00    +0.007 C 
ATOM     33  C   UNL     1      -3.146  -8.975  -3.562  0.00  0.00    -0.010 C 
ATOM     34  C   UNL     1      -4.292  -8.336  -2.773  0.00  0.00    +0.007 C 
ATOM     35  C   UNL     1      -1.915  -8.069  -3.495  0.00  0.00    +0.016 C 
ENDBRANCH  23  26
ENDBRANCH   1  19
TORSDOF 6
