REMARK  Name = ZINC04890923
REMARK  7 active torsions:
REMARK  status: ('A' for Active; 'I' for Inactive)
REMARK    1  A    between atoms: C_1  and  C_2
REMARK    2  A    between atoms: C_2  and  C_3
REMARK    3  A    between atoms: C_3  and  C_5
REMARK    4  A    between atoms: C_3  and  N_47
REMARK    5  A    between atoms: N_15  and  C_16
REMARK    6  A    between atoms: C_23  and  C_24
REMARK    7  A    between atoms: C_23  and  N_47
REMARK                            x       y       z     vdW  Elec       q    Type
REMARK                         _______ _______ _______ _____ _____    ______ ____
ROOT
ATOM      1  C   UNL     1       1.436  -0.372   0.496  0.00  0.00    +0.103 A 
ATOM      2  N   UNL     1       1.730  -1.624   0.318  0.00  0.00    -0.235 NA
ATOM      3  C   UNL     1       2.340  -2.355   1.284  0.00  0.00    +0.078 A 
ATOM      4  C   UNL     1       2.662  -3.700   1.091  0.00  0.00    +0.028 A 
ATOM      5  C   UNL     1       3.276  -4.407   2.101  0.00  0.00    +0.002 A 
ATOM      6  C   UNL     1       3.580  -3.798   3.311  0.00  0.00    +0.001 A 
ATOM      7  C   UNL     1       3.273  -2.473   3.526  0.00  0.00    +0.015 A 
ATOM      8  C   UNL     1       2.651  -1.740   2.517  0.00  0.00    +0.065 A 
ATOM      9  C   UNL     1       2.299  -0.323   2.689  0.00  0.00    +0.266 A 
ATOM     10  O   UNL     1       2.539   0.267   3.727  0.00  0.00    -0.267 OA
ATOM     11  N   UNL     1       1.698   0.301   1.650  0.00  0.00    -0.266 N 
ENDROOT
BRANCH  11  12
ATOM     12  C   UNL     1       1.341   1.651   1.762  0.00  0.00    +0.051 A 
ATOM     13  C   UNL     1       0.081   2.001   2.227  0.00  0.00    +0.028 A 
ATOM     14  C   UNL     1      -0.266   3.333   2.342  0.00  0.00    +0.022 A 
ATOM     15  C   UNL     1       0.638   4.318   1.984  0.00  0.00    +0.041 A 
ATOM     16  C   UNL     1       1.893   3.971   1.514  0.00  0.00    +0.022 A 
ATOM     17  C   UNL     1       2.246   2.641   1.403  0.00  0.00    +0.028 A 
ATOM     18 CL   UNL     1       0.197   5.991   2.124  0.00  0.00    -0.084 Cl
ENDBRANCH  11  12
BRANCH   1  19
ATOM     19  C   UNL     1       0.764   0.372  -0.629  0.00  0.00    -0.003 C 
BRANCH  19  20
ATOM     20  N   UNL     1      -0.160  -0.534  -1.336  0.00  0.00    +0.390 N 
ATOM     21  H   UNL     1       0.245  -1.477  -1.363  0.00  0.00    -0.084 HD
ATOM     22  H   UNL     1      -0.300  -0.194  -2.295  0.00  0.00    -0.084 HD
BRANCH  20  23
ATOM     23  C   UNL     1      -1.460  -0.583  -0.642  0.00  0.00    -0.006 C 
BRANCH  23  24
ATOM     24  C   UNL     1      -2.351  -1.585  -1.330  0.00  0.00    +0.088 A 
ATOM     25  C   UNL     1      -2.509  -2.873  -0.974  0.00  0.00    +0.042 A 
ATOM     26  C   UNL     1      -3.428  -3.440  -1.887  0.00  0.00    +0.041 A 
ATOM     27  C   UNL     1      -3.776  -2.466  -2.746  0.00  0.00    +0.195 A 
ATOM     28  O   UNL     1      -3.125  -1.343  -2.400  0.00  0.00    -0.470 OA
ENDBRANCH  23  24
ENDBRANCH  20  23
ENDBRANCH  19  20
BRANCH  19  30
ATOM     29  C   UNL     1       1.157   1.743  -2.681  0.00  0.00    +0.002 C 
ATOM     30  C   UNL     1       1.824   0.875  -1.611  0.00  0.00    -0.012 C 
ENDBRANCH  19  30
ENDBRANCH   1  19
TORSDOF 6
