REMARK  Name = ZINC54796132
REMARK  7 active torsions:
REMARK  status: ('A' for Active; 'I' for Inactive)
REMARK    1  A    between atoms: C_1  and  C_2
REMARK    2  A    between atoms: C_3  and  C_8
REMARK    3  A    between atoms: C_8  and  N_9
REMARK    4  A    between atoms: N_9  and  C_10
REMARK    5  A    between atoms: C_10  and  C_11
REMARK    6  A    between atoms: C_10  and  C_12
REMARK    7  A    between atoms: C_10  and  C_13
REMARK                            x       y       z     vdW  Elec       q    Type
REMARK                         _______ _______ _______ _____ _____    ______ ____
ROOT
ATOM      1  N   UNL     1       1.350   0.067  -2.927  0.00  0.00    -0.302 NA
ATOM      2  H   UNL     1       1.716   0.776  -2.310  0.00  0.00    +0.123 HD
ENDROOT
BRANCH   1   3
ATOM      3  C   UNL     1       1.375   0.521  -4.324  0.00  0.00    +0.039 C 
ATOM      4  C   UNL     1       0.907  -0.613  -5.238  0.00  0.00    +0.032 C 
ATOM      5  C   UNL     1       0.443   1.724  -4.486  0.00  0.00    +0.032 C 
BRANCH   3   6
ATOM      6  C   UNL     1       2.780   0.920  -4.698  0.00  0.00    -0.028 A 
ATOM      7  C   UNL     1       3.798   0.817  -3.768  0.00  0.00    +0.006 A 
ATOM      8  C   UNL     1       5.086   1.182  -4.110  0.00  0.00    +0.015 A 
ATOM      9  C   UNL     1       5.357   1.651  -5.383  0.00  0.00    +0.018 A 
ATOM     10  C   UNL     1       4.338   1.754  -6.313  0.00  0.00    +0.015 A 
ATOM     11  C   UNL     1       3.051   1.384  -5.972  0.00  0.00    +0.006 A 
ATOM     12 BR   UNL     1       7.119   2.152  -5.852  0.00  0.00    -0.050 Br
ENDBRANCH   3   6
ENDBRANCH   1   3
BRANCH   1  13
ATOM     13  C   UNL     1      -0.006  -0.331  -2.527  0.00  0.00    +0.137 C 
BRANCH  13  16
ATOM     14  C   UNL     1      -0.018   1.503   0.010  0.00  0.00    +0.065 C 
ATOM     15  C   UNL     1       0.002  -0.004   0.002  0.00  0.00    +0.035 A 
ATOM     16  C   UNL     1       0.008  -0.789  -1.092  0.00  0.00    +0.050 A 
ATOM     17  N   UNL     1       0.028  -2.085  -0.650  0.00  0.00    -0.349 N 
ATOM     18  H   UNL     1       0.037  -2.882  -1.202  0.00  0.00    +0.166 HD
ATOM     19  C   UNL     1       0.034  -2.046   0.700  0.00  0.00    +0.171 A 
ATOM     20  N   UNL     1       0.024  -0.798   1.083  0.00  0.00    -0.350 N 
ATOM     21  H   UNL     1       0.029  -0.493   2.004  0.00  0.00    +0.166 HD
ENDBRANCH  13  16
ENDBRANCH   1  13
TORSDOF 4
