REMARK  Name = ZINC39491421
REMARK  13 active torsions:
REMARK  status: ('A' for Active; 'I' for Inactive)
REMARK    1  A    between atoms: C_1  and  C_2
REMARK    2  A    between atoms: C_2  and  C_3
REMARK    3  A    between atoms: C_3  and  C_5
REMARK    4  A    between atoms: C_3  and  C_28
REMARK    5  A    between atoms: C_5  and  N_6
REMARK    6  A    between atoms: C_8  and  C_19
REMARK    7  A    between atoms: C_13  and  C_15
REMARK    8  A    between atoms: C_15  and  O_17
REMARK    9  A    between atoms: O_17  and  C_18
REMARK   10  A    between atoms: C_19  and  N_20
REMARK   11  A    between atoms: N_20  and  C_21
REMARK   12  A    between atoms: C_21  and  C_22
REMARK   13  A    between atoms: C_33  and  O_34
REMARK                            x       y       z     vdW  Elec       q    Type
REMARK                         _______ _______ _______ _____ _____    ______ ____
ROOT
ATOM      1  N   UNL     1      -0.849  -2.442   1.427  0.00  0.00    -0.346 N 
ATOM      2  C   UNL     1       0.464  -2.757   1.650  0.00  0.00    +0.088 A 
ATOM      3  C   UNL     1       0.649  -3.061   2.944  0.00  0.00    -0.039 A 
ATOM      4  C   UNL     1      -0.653  -2.930   3.603  0.00  0.00    +0.002 A 
ATOM      5  C   UNL     1      -1.559  -2.531   2.600  0.00  0.00    +0.049 A 
ATOM      6  C   UNL     1      -2.897  -2.317   2.925  0.00  0.00    +0.027 A 
ATOM      7  C   UNL     1      -3.329  -2.488   4.207  0.00  0.00    +0.017 A 
ATOM      8  C   UNL     1      -2.437  -2.880   5.215  0.00  0.00    +0.060 A 
ATOM      9  C   UNL     1      -1.097  -3.108   4.910  0.00  0.00    +0.025 A 
ENDROOT
BRANCH   8  10
ATOM     10  C   UNL     1      -2.920  -3.060   6.597  0.00  0.00    +0.339 C 
ATOM     11  O   UNL     1      -2.147  -3.400   7.471  0.00  0.00    -0.245 OA
BRANCH  10  12
ATOM     12  O   UNL     1      -4.217  -2.847   6.890  0.00  0.00    -0.464 OA
ATOM     13  C   UNL     1      -4.615  -3.039   8.249  0.00  0.00    +0.280 C 
ENDBRANCH  10  12
ENDBRANCH   8  10
BRANCH   1  14
ATOM     14  C   UNL     1      -1.413  -2.059   0.130  0.00  0.00    +0.130 C 
BRANCH  14  15
ATOM     15  C   UNL     1      -1.433  -0.534   0.013  0.00  0.00    +0.042 C 
BRANCH  15  16
ATOM     16  C   UNL     1      -2.125  -0.137  -1.266  0.00  0.00    -0.001 A 
ATOM     17  C   UNL     1      -1.626  -0.563  -2.482  0.00  0.00    +0.007 A 
ATOM     18  C   UNL     1      -2.260  -0.200  -3.656  0.00  0.00    +0.001 A 
ATOM     19  C   UNL     1      -3.394   0.591  -3.616  0.00  0.00    +0.004 A 
ATOM     20  C   UNL     1      -3.896   1.019  -2.403  0.00  0.00    +0.046 A 
ATOM     21  C   UNL     1      -3.265   0.651  -1.223  0.00  0.00    +0.120 A 
BRANCH  21  22
ATOM     22  O   UNL     1      -3.761   1.066  -0.028  0.00  0.00    -0.506 OA
ATOM     23  H   UNL     1      -3.404   1.913   0.273  0.00  0.00    +0.292 HD
ENDBRANCH  21  22
ENDBRANCH  15  16
BRANCH  15  25
ATOM     24  C   UNL     1      -0.019   1.526   0.010  0.00  0.00    +0.004 C 
ATOM     25  C   UNL     1       0.002  -0.004   0.002  0.00  0.00    +0.006 C 
ENDBRANCH  15  25
ENDBRANCH  14  15
ENDBRANCH   1  14
BRANCH   3  26
ATOM     26  C   UNL     1       1.948  -3.462   3.594  0.00  0.00    -0.044 C 
BRANCH  26  27
ATOM     27  N   UNL     1       1.989  -4.922   3.747  0.00  0.00    +0.384 N 
ATOM     28  H   UNL     1       1.217  -5.222   4.324  0.00  0.00    -0.085 HD
ATOM     29  H   UNL     1       1.919  -5.358   2.840  0.00  0.00    -0.085 HD
BRANCH  27  30
ATOM     30  C   UNL     1       3.255  -5.313   4.381  0.00  0.00    -0.046 C 
BRANCH  30  31
ATOM     31  C   UNL     1       3.297  -6.811   4.538  0.00  0.00    -0.064 A 
ATOM     32  C   UNL     1       2.801  -7.400   5.686  0.00  0.00    +0.002 A 
ATOM     33  C   UNL     1       2.839  -8.774   5.830  0.00  0.00    +0.000 A 
ATOM     34  C   UNL     1       3.373  -9.560   4.826  0.00  0.00    +0.000 A 
ATOM     35  C   UNL     1       3.868  -8.971   3.677  0.00  0.00    +0.000 A 
ATOM     36  C   UNL     1       3.826  -7.597   3.531  0.00  0.00    +0.002 A 
ENDBRANCH  30  31
ENDBRANCH  27  30
ENDBRANCH  26  27
ENDBRANCH   3  26
TORSDOF 11
