REMARK  Name = ZINC09292345
REMARK  6 active torsions:
REMARK  status: ('A' for Active; 'I' for Inactive)
REMARK    1  A    between atoms: C_1  and  O_2
REMARK    2  A    between atoms: O_2  and  C_3
REMARK    3  A    between atoms: C_7  and  C_11
REMARK    4  A    between atoms: C_8  and  O_9
REMARK    5  A    between atoms: O_9  and  C_10
REMARK    6  A    between atoms: C_29  and  C_31
REMARK                            x       y       z     vdW  Elec       q    Type
REMARK                         _______ _______ _______ _____ _____    ______ ____
ROOT
ATOM      1  C   UNL     1      -2.805  -4.208   0.078  0.00  0.00    +0.238 C 
ATOM      2  C   UNL     1      -2.501  -4.880   1.385  0.00  0.00    +0.028 C 
ATOM      3  C   UNL     1      -3.475  -5.081   2.297  0.00  0.00    +0.083 C 
ATOM      4  C   UNL     1      -4.844  -4.624   1.950  0.00  0.00    +0.044 A 
ATOM      5  C   UNL     1      -5.830  -4.485   2.917  0.00  0.00    +0.033 A 
ATOM      6  C   UNL     1      -7.091  -4.054   2.549  0.00  0.00    +0.042 A 
ATOM      7  C   UNL     1      -7.369  -3.762   1.224  0.00  0.00    +0.023 A 
ATOM      8  C   UNL     1      -6.391  -3.898   0.256  0.00  0.00    +0.048 A 
ATOM      9  C   UNL     1      -5.125  -4.330   0.610  0.00  0.00    +0.131 A 
ATOM     10  O   UNL     1      -4.151  -4.481  -0.318  0.00  0.00    -0.479 OA
ATOM     11 CL   UNL     1      -8.331  -3.878   3.752  0.00  0.00    -0.084 Cl
ATOM     12  N   UNL     1      -3.214  -5.680   3.485  0.00  0.00    -0.216 NA
ATOM     13  C   UNL     1      -2.029  -6.117   3.847  0.00  0.00    +0.209 C 
ATOM     14  N   UNL     1      -1.590  -6.739   4.987  0.00  0.00    -0.275 N 
ATOM     15  C   UNL     1      -0.246  -6.988   4.849  0.00  0.00    +0.208 C 
ATOM     16  N   UNL     1       0.154  -6.553   3.698  0.00  0.00    -0.169 NA
ATOM     17  N   UNL     1      -0.939  -5.995   3.034  0.00  0.00    -0.182 N 
ATOM     18  C   UNL     1      -1.105  -5.353   1.722  0.00  0.00    +0.166 C 
ATOM     19  H   UNL     1      -2.135  -6.964   5.757  0.00  0.00    +0.156 HD
ENDROOT
BRANCH  18  20
ATOM     20  C   UNL     1      -0.179  -4.165   1.660  0.00  0.00    +0.014 A 
ATOM     21  C   UNL     1       0.047  -3.405   2.792  0.00  0.00    +0.009 A 
ATOM     22  C   UNL     1       0.896  -2.315   2.736  0.00  0.00    +0.001 A 
ATOM     23  C   UNL     1       1.519  -1.984   1.546  0.00  0.00    +0.003 A 
ATOM     24  C   UNL     1       1.294  -2.742   0.413  0.00  0.00    +0.039 A 
ATOM     25  C   UNL     1       0.449  -3.837   0.470  0.00  0.00    +0.129 A 
ATOM     26  F   UNL     1       0.232  -4.582  -0.636  0.00  0.00    -0.205 F 
ENDBRANCH  18  20
BRANCH   1  31
ATOM     27  C   UNL     1      -2.326  -0.546  -0.753  0.00  0.00    +0.162 A 
ATOM     28  C   UNL     1      -2.283   0.016   0.513  0.00  0.00    +0.049 A 
ATOM     29  C   UNL     1      -2.409  -0.788   1.630  0.00  0.00    +0.004 A 
ATOM     30  C   UNL     1      -2.578  -2.153   1.489  0.00  0.00    +0.011 A 
ATOM     31  C   UNL     1      -2.621  -2.720   0.229  0.00  0.00    +0.042 A 
ATOM     32  C   UNL     1      -2.502  -1.919  -0.896  0.00  0.00    +0.168 A 
BRANCH  27  34
ATOM     33  C   UNL     1      -2.026   1.643  -1.631  0.00  0.00    +0.277 C 
ATOM     34  O   UNL     1      -2.203   0.243  -1.854  0.00  0.00    -0.491 OA
ENDBRANCH  27  34
BRANCH  32  35
ATOM     35  O   UNL     1      -2.551  -2.475  -2.136  0.00  0.00    -0.491 OA
ATOM     36  C   UNL     1      -1.318  -2.941  -2.687  0.00  0.00    +0.277 C 
ENDBRANCH  32  35
ENDBRANCH   1  31
TORSDOF 4
