REMARK  Name = ZINC34829719
REMARK  7 active torsions:
REMARK  status: ('A' for Active; 'I' for Inactive)
REMARK    1  A    between atoms: C_1  and  C_2
REMARK    2  A    between atoms: C_5  and  C_8
REMARK    3  A    between atoms: N_17  and  C_18
REMARK    4  A    between atoms: C_18  and  C_19
REMARK    5  A    between atoms: C_25  and  C_28
REMARK    6  A    between atoms: C_29  and  C_31
REMARK    7  A    between atoms: C_34  and  N_37
REMARK                            x       y       z     vdW  Elec       q    Type
REMARK                         _______ _______ _______ _____ _____    ______ ____
ROOT
ATOM      1  C   UNL     1      -3.688  -5.639   1.012  0.00  0.00    +0.199 C 
ATOM      2  O   UNL     1      -3.275  -6.465   1.798  0.00  0.00    -0.278 OA
ATOM      3  N   UNL     1      -4.922  -5.118   1.167  0.00  0.00    -0.300 N 
ATOM      4  C   UNL     1      -5.438  -4.121   0.219  0.00  0.00    +0.126 C 
ATOM      5  C   UNL     1      -5.865  -2.874   1.003  0.00  0.00    +0.127 C 
ATOM      6  N   UNL     1      -6.718  -3.293   2.124  0.00  0.00    -0.292 N 
ATOM      7  C   UNL     1      -6.201  -4.290   3.072  0.00  0.00    +0.091 C 
ATOM      8  C   UNL     1      -5.776  -5.541   2.285  0.00  0.00    +0.130 C 
ATOM      9  C   UNL     1      -4.998  -3.712   3.820  0.00  0.00    +0.029 C 
ATOM     10  C   UNL     1      -7.951  -2.772   2.280  0.00  0.00    +0.247 C 
ATOM     11  O   UNL     1      -8.339  -1.894   1.534  0.00  0.00    -0.270 OA
ENDROOT
BRANCH  10  12
ATOM     12  C   UNL     1      -8.832  -3.269   3.358  0.00  0.00    +0.037 A 
ATOM     13  C   UNL     1      -8.369  -3.322   4.674  0.00  0.00    +0.015 A 
ATOM     14  C   UNL     1      -9.197  -3.786   5.675  0.00  0.00    +0.033 A 
ATOM     15  C   UNL     1     -10.483  -4.199   5.378  0.00  0.00    +0.126 A 
ATOM     16  C   UNL     1     -10.948  -4.150   4.075  0.00  0.00    +0.033 A 
ATOM     17  C   UNL     1     -10.133  -3.682   3.066  0.00  0.00    +0.015 A 
BRANCH  15  18
ATOM     18  N   UNL     1     -11.366  -4.696   6.457  0.00  0.00    +0.056 N 
ATOM     19  O   UNL     1     -10.961  -4.740   7.596  0.00  0.00    -0.126 OA
ATOM     20  O   UNL     1     -12.490  -5.058   6.200  0.00  0.00    -0.126 OA
ENDBRANCH  15  18
ENDBRANCH  10  12
BRANCH   1  21
ATOM     21  C   UNL     1      -2.823  -5.195  -0.140  0.00  0.00    +0.020 C 
BRANCH  21  30
ATOM     22  C   UNL     1      -0.655  -5.382  -1.139  0.00  0.00    -0.005 C 
ATOM     23  C   UNL     1       0.637  -6.193  -1.145  0.00  0.00    -0.047 A 
ATOM     24  C   UNL     1       1.828  -5.755  -1.718  0.00  0.00    +0.010 A 
ATOM     25  C   UNL     1       2.929  -6.542  -1.675  0.00  0.00    +0.045 A 
ATOM     26  S   UNL     1       2.322  -7.978  -0.800  0.00  0.00    -0.101 S 
ATOM     27  C   UNL     1       0.658  -7.425  -0.562  0.00  0.00    -0.010 A 
ATOM     28  C   UNL     1      -0.488  -8.108   0.109  0.00  0.00    +0.024 C 
ATOM     29  C   UNL     1      -1.769  -7.345  -0.269  0.00  0.00    -0.072 C 
ATOM     30  N   UNL     1      -1.538  -5.904  -0.088  0.00  0.00    +0.393 N 
ATOM     31  H   UNL     1      -1.110  -5.749   0.812  0.00  0.00    -0.080 HD
BRANCH  22  36
ATOM     32  C   UNL     1       0.542   0.171  -0.078  0.00  0.00    +0.044 C 
ATOM     33  C   UNL     1       0.230  -1.278  -0.355  0.00  0.00    -0.050 A 
ATOM     34  C   UNL     1      -0.004  -1.699  -1.650  0.00  0.00    +0.003 A 
ATOM     35  C   UNL     1      -0.290  -3.027  -1.904  0.00  0.00    +0.002 A 
ATOM     36  C   UNL     1      -0.342  -3.934  -0.862  0.00  0.00    -0.057 A 
ATOM     37  C   UNL     1      -0.107  -3.513   0.433  0.00  0.00    +0.002 A 
ATOM     38  C   UNL     1       0.183  -2.186   0.686  0.00  0.00    +0.003 A 
ENDBRANCH  22  36
ENDBRANCH  21  30
ENDBRANCH   1  21
TORSDOF 5
