REMARK  Name = ZINC39582287
REMARK  9 active torsions:
REMARK  status: ('A' for Active; 'I' for Inactive)
REMARK    1  A    between atoms: C_1  and  C_2
REMARK    2  A    between atoms: C_2  and  N_3
REMARK    3  A    between atoms: N_6  and  C_9
REMARK    4  A    between atoms: C_9  and  C_11
REMARK    5  A    between atoms: C_9  and  C_12
REMARK    6  A    between atoms: N_14  and  C_15
REMARK    7  A    between atoms: C_23  and  C_25
REMARK    8  A    between atoms: C_25  and  O_27
REMARK    9  A    between atoms: O_27  and  C_28
REMARK                            x       y       z     vdW  Elec       q    Type
REMARK                         _______ _______ _______ _____ _____    ______ ____
ROOT
ATOM      1  C   UNL     1      -5.024  -4.165  -1.000  0.00  0.00    +0.234 C 
ATOM      2  O   UNL     1      -3.965  -4.664  -0.684  0.00  0.00    -0.274 OA
ATOM      3  N   UNL     1      -6.090  -4.950  -1.256  0.00  0.00    -0.285 N 
ATOM      4  H   UNL     1      -6.955  -4.550  -1.432  0.00  0.00    +0.155 HD
ENDROOT
BRANCH   3   5
ATOM      5  C   UNL     1      -5.950  -6.305  -1.267  0.00  0.00    +0.053 C 
ATOM      6  C   UNL     1      -6.958  -7.248  -1.373  0.00  0.00    +0.019 A 
ATOM      7  C   UNL     1      -8.364  -7.133  -1.495  0.00  0.00    +0.031 A 
ATOM      8  C   UNL     1      -9.125  -8.252  -1.582  0.00  0.00    +0.042 A 
ATOM      9  C   UNL     1      -8.555  -9.530  -1.554  0.00  0.00    +0.022 A 
ATOM     10  C   UNL     1      -7.218  -9.714  -1.438  0.00  0.00    +0.027 A 
ATOM     11  C   UNL     1      -6.356  -8.591  -1.343  0.00  0.00    +0.045 A 
ATOM     12  N   UNL     1      -5.046  -8.505  -1.226  0.00  0.00    -0.367 N 
ATOM     13  C   UNL     1      -4.661  -7.091  -1.173  0.00  0.00    +0.234 C 
ATOM     14 CL   UNL     1     -10.848  -8.097  -1.731  0.00  0.00    -0.084 Cl
ATOM     15  H   UNL     1      -4.434  -9.257  -1.185  0.00  0.00    +0.161 HD
BRANCH  13  16
ATOM     16  C   UNL     1      -3.760  -6.752  -2.332  0.00  0.00    +0.335 C 
ATOM     17  O   UNL     1      -3.829  -7.388  -3.357  0.00  0.00    -0.248 OA
BRANCH  16  18
ATOM     18  O   UNL     1      -2.882  -5.742  -2.226  0.00  0.00    -0.466 OA
ATOM     19  C   UNL     1      -2.059  -5.476  -3.364  0.00  0.00    +0.280 C 
ENDBRANCH  16  18
ENDBRANCH  13  16
ENDBRANCH   3   5
BRANCH   1  20
ATOM     20  C   UNL     1      -5.149  -2.667  -1.107  0.00  0.00    +0.140 C 
ATOM     21  C   UNL     1      -6.215  -2.173  -0.128  0.00  0.00    +0.034 C 
BRANCH  20  25
ATOM     22  N   UNL     1      -2.151  -0.288   0.689  0.00  0.00    +0.381 N 
ATOM     23  C   UNL     1      -2.533   0.012  -0.698  0.00  0.00    -0.063 C 
ATOM     24  C   UNL     1      -3.909  -0.590  -0.990  0.00  0.00    +0.066 C 
ATOM     25  N   UNL     1      -3.859  -2.044  -0.781  0.00  0.00    -0.295 NA
ATOM     26  C   UNL     1      -3.454  -2.360   0.596  0.00  0.00    +0.066 C 
ATOM     27  C   UNL     1      -2.081  -1.744   0.875  0.00  0.00    -0.063 C 
ATOM     28  H   UNL     1      -2.838   0.098   1.318  0.00  0.00    -0.082 HD
BRANCH  22  30
ATOM     29  C   UNL     1      -0.940   1.830   0.902  0.00  0.00    -0.017 C 
ATOM     30  C   UNL     1      -0.837   0.305   0.974  0.00  0.00    -0.082 C 
ENDBRANCH  22  30
ENDBRANCH  20  25
ENDBRANCH   1  20
TORSDOF 6
