REMARK  Name = ZINC02097542
REMARK  4 active torsions:
REMARK  status: ('A' for Active; 'I' for Inactive)
REMARK    1  A    between atoms: C_4  and  C_8
REMARK    2  A    between atoms: N_9  and  N_10
REMARK    3  A    between atoms: C_11  and  C_13
REMARK    4  A    between atoms: C_18  and  O_19
REMARK                            x       y       z     vdW  Elec       q    Type
REMARK                         _______ _______ _______ _____ _____    ______ ____
ROOT
ATOM      1  N   UNL     1      -0.041  -0.638  -3.658  0.00  0.00    -0.203 N 
ATOM      2  C   UNL     1      -0.034   0.036  -2.491  0.00  0.00    +0.267 C 
ATOM      3  O   UNL     1      -0.050   1.252  -2.491  0.00  0.00    -0.268 OA
ATOM      4  H   UNL     1      -0.028  -1.609  -3.658  0.00  0.00    +0.178 HD
ENDROOT
BRANCH   2   5
ATOM      5  C   UNL     1      -0.006  -0.701  -1.214  0.00  0.00    +0.081 A 
ATOM      6  C   UNL     1       0.019  -2.098  -1.209  0.00  0.00    +0.036 A 
ATOM      7  C   UNL     1       0.039  -2.781  -0.011  0.00  0.00    +0.042 A 
ATOM      8  C   UNL     1       0.041  -2.087   1.189  0.00  0.00    +0.023 A 
ATOM      9  C   UNL     1       0.023  -0.707   1.198  0.00  0.00    +0.047 A 
ATOM     10  C   UNL     1       0.002  -0.004   0.002  0.00  0.00    +0.129 A 
ATOM     11 CL   UNL     1       0.062  -4.517  -0.006  0.00  0.00    -0.084 Cl
BRANCH  10  12
ATOM     12  O   UNL     1      -0.016   1.353   0.009  0.00  0.00    -0.506 OA
ATOM     13  H   UNL     1       0.862   1.758   0.003  0.00  0.00    +0.292 HD
ENDBRANCH  10  12
ENDBRANCH   2   5
BRANCH   1  15
ATOM     14  C   UNL     1      -0.075  -0.588  -5.995  0.00  0.00    +0.141 C 
ATOM     15  N   UNL     1      -0.068   0.061  -4.871  0.00  0.00    -0.187 NA
BRANCH  14  19
ATOM     16  C   UNL     1      -0.156   1.533  -9.672  0.00  0.00    +0.003 A 
ATOM     17  C   UNL     1      -0.137   0.150  -9.676  0.00  0.00    +0.021 A 
ATOM     18  C   UNL     1      -0.110  -0.547  -8.484  0.00  0.00    +0.051 A 
ATOM     19  C   UNL     1      -0.103   0.149  -7.272  0.00  0.00    +0.031 A 
ATOM     20  C   UNL     1      -0.127   1.546  -7.276  0.00  0.00    +0.051 A 
ATOM     21  C   UNL     1      -0.149   2.229  -8.476  0.00  0.00    +0.021 A 
ATOM     22 CL   UNL     1      -0.124   2.422  -5.777  0.00  0.00    -0.083 Cl
ATOM     23 CL   UNL     1      -0.087  -2.283  -8.492  0.00  0.00    -0.083 Cl
ENDBRANCH  14  19
ENDBRANCH   1  15
TORSDOF 4
