REMARK  Name = ZINC56991333
REMARK  3 active torsions:
REMARK  status: ('A' for Active; 'I' for Inactive)
REMARK    1  A    between atoms: C_1  and  C_2
REMARK    2  A    between atoms: C_2  and  C_4
REMARK    3  A    between atoms: C_2  and  N_15
REMARK                            x       y       z     vdW  Elec       q    Type
REMARK                         _______ _______ _______ _____ _____    ______ ____
ROOT
ATOM      1  C   UNL     1       0.047   1.527   0.066  0.00  0.00    +0.033 C 
ATOM      2  C   UNL     1       0.062  -0.002   0.048  0.00  0.00    +0.103 C 
ENDROOT
BRANCH   2   3
ATOM      3  C   UNL     1       0.855  -0.483  -1.141  0.00  0.00    -0.010 A 
ATOM      4  C   UNL     1       2.201  -0.766  -1.004  0.00  0.00    +0.056 A 
ATOM      5  C   UNL     1       2.932  -1.209  -2.096  0.00  0.00    +0.162 A 
ATOM      6  C   UNL     1       2.308  -1.369  -3.328  0.00  0.00    +0.163 A 
ATOM      7  C   UNL     1       0.958  -1.082  -3.459  0.00  0.00    +0.065 A 
ATOM      8  C   UNL     1       0.233  -0.645  -2.365  0.00  0.00    +0.026 A 
ATOM      9 BR   UNL     1      -1.611  -0.262  -2.546  0.00  0.00    -0.050 Br
ATOM     10  O   UNL     1       3.006  -1.811  -4.410  0.00  0.00    -0.485 OA
ATOM     11  C   UNL     1       4.433  -1.732  -4.331  0.00  0.00    +0.270 C 
ATOM     12  C   UNL     1       4.870  -2.278  -2.965  0.00  0.00    +0.270 C 
ATOM     13  O   UNL     1       4.258  -1.480  -1.946  0.00  0.00    -0.485 OA
ENDBRANCH   2   3
BRANCH   2  14
ATOM     14  N   UNL     1       0.680  -0.499   1.279  0.00  0.00    -0.293 N 
ATOM     15  C   UNL     1      -0.081  -0.736   2.367  0.00  0.00    +0.303 C 
ATOM     16  O   UNL     1      -1.290  -0.631   2.297  0.00  0.00    -0.253 OA
ATOM     17  N   UNL     1       0.500  -1.088   3.531  0.00  0.00    -0.284 N 
ATOM     18  C   UNL     1      -0.323  -1.236   4.733  0.00  0.00    +0.120 C 
ATOM     19  C   UNL     1      -0.321  -2.704   5.176  0.00  0.00    +0.088 C 
ATOM     20  S   UNL     1       1.398  -3.227   5.449  0.00  0.00    -0.158 S 
ATOM     21  C   UNL     1       2.216  -2.797   3.883  0.00  0.00    +0.088 C 
ATOM     22  C   UNL     1       1.943  -1.325   3.577  0.00  0.00    +0.120 C 
ATOM     23  H   UNL     1       1.636  -0.658   1.312  0.00  0.00    +0.151 HD
ENDBRANCH   2  14
TORSDOF 2
