REMARK  Name = ZINC06193218
REMARK  14 active torsions:
REMARK  status: ('A' for Active; 'I' for Inactive)
REMARK    1  A    between atoms: C_1  and  C_2
REMARK    2  A    between atoms: C_2  and  N_69
REMARK    3  A    between atoms: C_3  and  C_4
REMARK    4  A    between atoms: C_3  and  N_69
REMARK    5  A    between atoms: C_5  and  C_6
REMARK    6  A    between atoms: C_5  and  N_69
REMARK    7  A    between atoms: C_6  and  C_7
REMARK    8  A    between atoms: C_7  and  N_8
REMARK    9  A    between atoms: N_8  and  C_9
REMARK   10  A    between atoms: C_9  and  N_11
REMARK   11  A    between atoms: N_11  and  C_12
REMARK   12  A    between atoms: N_11  and  C_19
REMARK   13  A    between atoms: C_12  and  C_13
REMARK   14  A    between atoms: C_19  and  C_20
REMARK                            x       y       z     vdW  Elec       q    Type
REMARK                         _______ _______ _______ _____ _____    ______ ____
ROOT
ATOM      1  N   UNL     1       0.137   7.443  -0.188  0.00  0.00    -0.304 N 
ENDROOT
BRANCH   1   2
ATOM      2  C   UNL     1       1.228   7.537  -0.973  0.00  0.00    +0.133 C 
ATOM      3  S   UNL     1       1.127   8.328  -2.488  0.00  0.00    -0.019 S 
BRANCH   2   4
ATOM      4  N   UNL     1       2.399   7.008  -0.566  0.00  0.00    -0.326 N 
ATOM      5  H   UNL     1       2.457   6.560   0.292  0.00  0.00    +0.148 HD
BRANCH   4   6
ATOM      6  C   UNL     1       3.585   7.110  -1.420  0.00  0.00    +0.101 C 
BRANCH   6   7
ATOM      7  C   UNL     1       4.771   6.434  -0.729  0.00  0.00    +0.000 C 
BRANCH   7   8
ATOM      8  C   UNL     1       6.010   6.540  -1.620  0.00  0.00    -0.077 C 
BRANCH   8   9
ATOM      9  N   UNL     1       7.150   5.902  -0.930  0.00  0.00    +0.379 N 
ATOM     10  H   UNL     1       7.227   6.291   0.017  0.00  0.00    -0.082 HD
BRANCH   9  12
ATOM     11  C   UNL     1       6.784   3.829  -2.227  0.00  0.00    -0.017 C 
ATOM     12  C   UNL     1       6.930   4.443  -0.833  0.00  0.00    -0.082 C 
ENDBRANCH   9  12
BRANCH   9  13
ATOM     13  C   UNL     1       8.403   6.175  -1.666  0.00  0.00    -0.082 C 
ATOM     14  C   UNL     1       9.588   5.831  -0.762  0.00  0.00    -0.017 C 
ENDBRANCH   9  13
ENDBRANCH   8   9
ENDBRANCH   7   8
ENDBRANCH   6   7
ENDBRANCH   4   6
ENDBRANCH   2   4
ENDBRANCH   1   2
BRANCH   1  15
ATOM     15  C   UNL     1       0.224   6.766   1.109  0.00  0.00    +0.142 C 
BRANCH  15  16
ATOM     16  C   UNL     1      -0.087   5.302   0.933  0.00  0.00    -0.030 A 
ATOM     17  C   UNL     1       0.930   4.407   0.658  0.00  0.00    +0.005 A 
ATOM     18  C   UNL     1       0.645   3.064   0.497  0.00  0.00    +0.000 A 
ATOM     19  C   UNL     1      -0.658   2.616   0.610  0.00  0.00    +0.000 A 
ATOM     20  C   UNL     1      -1.676   3.512   0.879  0.00  0.00    +0.000 A 
ATOM     21  C   UNL     1      -1.390   4.854   1.046  0.00  0.00    +0.005 A 
ENDBRANCH  15  16
ENDBRANCH   1  15
BRANCH   1  22
ATOM     22  C   UNL     1      -1.136   8.018  -0.630  0.00  0.00    +0.147 C 
BRANCH  22  23
ATOM     23  C   UNL     1      -1.231   9.447  -0.161  0.00  0.00    +0.035 A 
ATOM     24  C   UNL     1      -0.858  10.456  -0.989  0.00  0.00    +0.020 A 
ATOM     25  C   UNL     1      -0.963  11.832  -0.504  0.00  0.00    +0.003 A 
ATOM     26  C   UNL     1      -0.592  12.913  -1.313  0.00  0.00    +0.059 A 
ATOM     27  C   UNL     1      -0.698  14.200  -0.829  0.00  0.00    +0.163 A 
ATOM     28  C   UNL     1      -1.177  14.427   0.465  0.00  0.00    +0.164 A 
ATOM     29  C   UNL     1      -1.548  13.364   1.271  0.00  0.00    +0.075 A 
ATOM     30  C   UNL     1      -1.445  12.063   0.799  0.00  0.00    +0.053 A 
ATOM     31  N   UNL     1      -1.808  10.992   1.589  0.00  0.00    -0.322 N 
ATOM     32  H   UNL     1      -2.147  11.156   2.516  0.00  0.00    +0.169 HD
ATOM     33  C   UNL     1      -1.713   9.731   1.133  0.00  0.00    +0.254 A 
ATOM     34  O   UNL     1      -2.047   8.809   1.857  0.00  0.00    -0.268 OA
ATOM     35  O   UNL     1      -1.289  15.694   0.950  0.00  0.00    -0.485 OA
ATOM     36  C   UNL     1      -0.560  16.714   0.260  0.00  0.00    +0.270 C 
ATOM     37  C   UNL     1      -0.796  16.539  -1.246  0.00  0.00    +0.270 C 
ATOM     38  O   UNL     1      -0.328  15.241  -1.626  0.00  0.00    -0.485 OA
ENDBRANCH  22  23
ENDBRANCH   1  22
TORSDOF 12
