REMARK  Name = ZINC20818307
REMARK  10 active torsions:
REMARK  status: ('A' for Active; 'I' for Inactive)
REMARK    1  A    between atoms: C_1  and  O_2
REMARK    2  A    between atoms: O_2  and  C_3
REMARK    3  A    between atoms: C_3  and  C_5
REMARK    4  A    between atoms: C_5  and  C_15
REMARK    5  A    between atoms: C_15  and  C_17
REMARK    6  A    between atoms: C_17  and  S_18
REMARK    7  A    between atoms: S_18  and  C_19
REMARK    8  A    between atoms: C_22  and  C_31
REMARK    9  A    between atoms: N_23  and  C_24
REMARK   10  A    between atoms: C_24  and  C_25
REMARK                            x       y       z     vdW  Elec       q    Type
REMARK                         _______ _______ _______ _____ _____    ______ ____
ROOT
ATOM      1  C   UNL     1      -5.944  -1.737   3.250  0.00  0.00    +0.183 C 
ATOM      2  O   UNL     1      -4.905  -2.365   3.199  0.00  0.00    -0.291 OA
ENDROOT
BRANCH   1   3
ATOM      3  C   UNL     1      -6.917  -2.064   4.211  0.00  0.00    +0.138 C 
ATOM      4  C   UNL     1      -6.687  -3.119   5.115  0.00  0.00    +0.110 C 
ATOM      5  N   UNL     1      -5.573  -3.893   5.151  0.00  0.00    -0.301 N 
ATOM      6  C   UNL     1      -5.718  -4.819   6.178  0.00  0.00    +0.054 A 
ATOM      7  C   UNL     1      -4.905  -5.835   6.660  0.00  0.00    +0.025 A 
ATOM      8  C   UNL     1      -5.332  -6.614   7.717  0.00  0.00    +0.002 A 
ATOM      9  C   UNL     1      -6.569  -6.387   8.297  0.00  0.00    +0.002 A 
ATOM     10  C   UNL     1      -7.385  -5.379   7.825  0.00  0.00    +0.025 A 
ATOM     11  C   UNL     1      -6.965  -4.590   6.763  0.00  0.00    +0.054 A 
ATOM     12  N   UNL     1      -7.547  -3.526   6.082  0.00  0.00    -0.301 N 
ATOM     13  H   UNL     1      -4.758  -3.718   4.433  0.00  0.00    +0.153 HD
ATOM     14  H   UNL     1      -8.514  -3.019   6.207  0.00  0.00    +0.153 HD
BRANCH   3  15
ATOM     15  C   UNL     1      -8.167  -1.309   4.273  0.00  0.00    +0.345 C 
ATOM     16  O   UNL     1      -9.008  -1.592   5.105  0.00  0.00    -0.245 OA
BRANCH  15  18
ATOM     17  C   UNL     1      -9.630   0.398   3.525  0.00  0.00    +0.280 C 
ATOM     18  O   UNL     1      -8.387  -0.297   3.407  0.00  0.00    -0.464 OA
ENDBRANCH  15  18
ENDBRANCH   3  15
ENDBRANCH   1   3
BRANCH   1  19
ATOM     19  C   UNL     1      -6.190  -0.607   2.283  0.00  0.00    +0.157 C 
BRANCH  19  20
ATOM     20  S   UNL     1      -4.764  -0.435   1.181  0.00  0.00    -0.078 S 
BRANCH  20  21
ATOM     21  C   UNL     1      -5.307   0.915   0.187  0.00  0.00    +0.192 A 
ATOM     22  N   UNL     1      -6.449   1.555   0.299  0.00  0.00    -0.122 NA
ATOM     23  N   UNL     1      -6.526   2.482  -0.587  0.00  0.00    -0.128 NA
ATOM     24  C   UNL     1      -5.433   2.496  -1.318  0.00  0.00    +0.172 A 
ATOM     25  N   UNL     1      -4.617   1.494  -0.841  0.00  0.00    -0.299 N 
BRANCH  24  26
ATOM     26  C   UNL     1      -5.137   3.409  -2.434  0.00  0.00    +0.056 A 
ATOM     27  C   UNL     1      -5.992   4.222  -3.135  0.00  0.00    +0.019 A 
ATOM     28  C   UNL     1      -5.479   5.001  -4.148  0.00  0.00    +0.008 A 
ATOM     29  C   UNL     1      -4.152   4.933  -4.430  0.00  0.00    +0.046 A 
ATOM     30  S   UNL     1      -3.576   3.741  -3.233  0.00  0.00    -0.094 S 
ENDBRANCH  24  26
BRANCH  25  31
ATOM     31  C   UNL     1      -3.289   1.123  -1.336  0.00  0.00    +0.157 C 
BRANCH  31  32
ATOM     32  C   UNL     1      -2.223   1.924  -0.587  0.00  0.00    +0.138 C 
ATOM     33  C   UNL     1      -0.833   1.634  -1.185  0.00  0.00    +0.035 C 
ATOM     34  C   UNL     1      -0.013   1.086   0.008  0.00  0.00    +0.031 C 
ATOM     35  C   UNL     1      -0.810   1.621   1.224  0.00  0.00    +0.160 C 
ATOM     36  O   UNL     1      -2.186   1.524   0.793  0.00  0.00    -0.375 OA
ENDBRANCH  31  32
ENDBRANCH  25  31
ENDBRANCH  20  21
ENDBRANCH  19  20
ENDBRANCH   1  19
TORSDOF 9
