REMARK  Name = ZINC58201695
REMARK  4 active torsions:
REMARK  status: ('A' for Active; 'I' for Inactive)
REMARK    1  A    between atoms: C_4  and  N_7
REMARK    2  A    between atoms: C_10  and  C_15
REMARK    3  A    between atoms: C_15  and  C_25
REMARK    4  A    between atoms: C_16  and  C_17
REMARK                            x       y       z     vdW  Elec       q    Type
REMARK                         _______ _______ _______ _____ _____    ______ ____
ROOT
ATOM      1  N   UNL     1       5.086   0.060   1.053  0.00  0.00    -0.283 N 
ATOM      2  C   UNL     1       4.696  -1.259   0.931  0.00  0.00    +0.224 A 
ATOM      3  N   UNL     1       5.610  -2.211   0.771  0.00  0.00    -0.194 NA
ATOM      4  C   UNL     1       5.234  -3.482   0.655  0.00  0.00    +0.177 A 
ATOM      5  N   UNL     1       3.941  -3.800   0.698  0.00  0.00    -0.194 NA
ATOM      6  C   UNL     1       3.028  -2.847   0.858  0.00  0.00    +0.217 A 
ATOM      7  N   UNL     1       3.406  -1.578   0.979  0.00  0.00    -0.181 NA
ATOM      8  N   UNL     1       1.688  -3.175   0.903  0.00  0.00    -0.327 N 
ATOM      9  H   UNL     1       6.018   0.303   0.939  0.00  0.00    +0.155 HD
ATOM     10  H   UNL     1       1.408  -4.090   0.745  0.00  0.00    +0.145 HD
ATOM     11  H   UNL     1       1.027  -2.491   1.092  0.00  0.00    +0.145 HD
ENDROOT
BRANCH   1  15
ATOM     12  C   UNL     1       2.261   2.998   1.911  0.00  0.00    +0.000 A 
ATOM     13  C   UNL     1       2.050   1.696   2.325  0.00  0.00    +0.002 A 
ATOM     14  C   UNL     1       2.984   0.719   2.042  0.00  0.00    +0.023 A 
ATOM     15  C   UNL     1       4.137   1.046   1.341  0.00  0.00    +0.034 A 
ATOM     16  C   UNL     1       4.346   2.355   0.925  0.00  0.00    +0.023 A 
ATOM     17  C   UNL     1       3.408   3.327   1.212  0.00  0.00    +0.002 A 
ENDBRANCH   1  15
BRANCH   4  18
ATOM     18  C   UNL     1       6.250  -4.542   0.476  0.00  0.00    +0.097 C 
ATOM     19  C   UNL     1       7.082  -4.513  -0.602  0.00  0.00    +0.032 C 
BRANCH  19  20
ATOM     20  C   UNL     1       6.879  -3.514  -1.659  0.00  0.00    -0.004 A 
ATOM     21  C   UNL     1       5.583  -3.142  -2.038  0.00  0.00    +0.009 A 
ATOM     22  C   UNL     1       5.402  -2.204  -3.030  0.00  0.00    +0.002 A 
ATOM     23  C   UNL     1       6.495  -1.629  -3.655  0.00  0.00    +0.021 A 
ATOM     24  C   UNL     1       7.781  -1.989  -3.288  0.00  0.00    +0.060 A 
ATOM     25  C   UNL     1       7.982  -2.924  -2.291  0.00  0.00    +0.066 A 
ATOM     26 CL   UNL     1       9.594  -3.370  -1.826  0.00  0.00    -0.081 Cl
ATOM     27 CL   UNL     1       9.144  -1.261  -4.079  0.00  0.00    -0.082 Cl
ENDBRANCH  19  20
BRANCH  18  28
ATOM     28  C   UNL     1       6.360  -5.597   1.438  0.00  0.00    +0.103 C 
ATOM     29  N   UNL     1       6.447  -6.435   2.200  0.00  0.00    -0.191 NA
ENDBRANCH  18  28
ENDBRANCH   4  18
TORSDOF 4
