REMARK  Name = ZINC23845829
REMARK  3 active torsions:
REMARK  status: ('A' for Active; 'I' for Inactive)
REMARK    1  A    between atoms: C_8  and  C_10
REMARK    2  A    between atoms: N_15  and  C_17
REMARK    3  A    between atoms: C_17  and  C_18
REMARK                            x       y       z     vdW  Elec       q    Type
REMARK                         _______ _______ _______ _____ _____    ______ ____
ROOT
ATOM      1  C   UNL     1      -1.740   7.231   0.055  0.00  0.00    +0.059 C 
ATOM      2  C   UNL     1      -1.167   7.905  -1.194  0.00  0.00    +0.013 C 
ATOM      3  C   UNL     1      -1.481   9.403  -1.146  0.00  0.00    +0.016 C 
ATOM      4  C   UNL     1      -0.897  10.001   0.136  0.00  0.00    +0.085 C 
ATOM      5  N   UNL     1      -1.477   9.323   1.302  0.00  0.00    -0.296 NA
ATOM      6  C   UNL     1      -1.148   7.892   1.302  0.00  0.00    +0.095 C 
ENDROOT
BRANCH   1  14
ATOM      7  C   UNL     1       1.176   1.792   0.001  0.00  0.00    +0.002 A 
ATOM      8  C   UNL     1      -0.013   1.076   0.008  0.00  0.00    +0.001 A 
ATOM      9  C   UNL     1      -1.215   1.757   0.017  0.00  0.00    +0.017 A 
ATOM     10  C   UNL     1      -1.212   3.130   0.030  0.00  0.00    +0.039 A 
ATOM     11  C   UNL     1      -0.017   3.886   0.022  0.00  0.00    +0.078 A 
ATOM     12  C   UNL     1       1.190   3.152   0.007  0.00  0.00    +0.029 A 
ATOM     13  N   UNL     1      -0.201   5.223   0.031  0.00  0.00    -0.244 NA
ATOM     14  C   UNL     1      -1.385   5.767   0.045  0.00  0.00    +0.084 A 
ATOM     15  S   UNL     1      -2.454   4.399   0.048  0.00  0.00    -0.072 S 
ENDBRANCH   1  14
BRANCH   5  16
ATOM     16  C   UNL     1      -1.044   9.963   2.552  0.00  0.00    +0.140 C 
BRANCH  16  17
ATOM     17  C   UNL     1      -1.608  11.358   2.624  0.00  0.00    +0.063 A 
ATOM     18  C   UNL     1      -2.523  11.695   3.599  0.00  0.00    +0.095 A 
ATOM     19  C   UNL     1      -3.035  12.992   3.649  0.00  0.00    +0.259 A 
ATOM     20  O   UNL     1      -3.845  13.297   4.510  0.00  0.00    -0.267 OA
ATOM     21  N   UNL     1      -2.628  13.921   2.732  0.00  0.00    -0.259 N 
ATOM     22  C   UNL     1      -3.059  15.239   2.674  0.00  0.00    +0.039 A 
ATOM     23  C   UNL     1      -2.563  16.028   1.712  0.00  0.00    +0.013 A 
ATOM     24  S   UNL     1      -1.454  14.966   0.824  0.00  0.00    -0.054 S 
ATOM     25  C   UNL     1      -1.719  13.502   1.802  0.00  0.00    +0.181 A 
ATOM     26  N   UNL     1      -1.229  12.288   1.750  0.00  0.00    -0.226 NA
ATOM     27  C   UNL     1      -2.873  17.467   1.450  0.00  0.00    +0.044 C 
ATOM     28  C   UNL     1      -4.139  17.840   2.236  0.00  0.00    +0.006 C 
ATOM     29  C   UNL     1      -3.997  17.316   3.668  0.00  0.00    +0.006 C 
ATOM     30  C   UNL     1      -4.074  15.789   3.674  0.00  0.00    +0.055 C 
ENDBRANCH  16  17
ENDBRANCH   5  16
TORSDOF 3
