REMARK  Name = ZINC09478767
REMARK  8 active torsions:
REMARK  status: ('A' for Active; 'I' for Inactive)
REMARK    1  A    between atoms: C_1  and  C_2
REMARK    2  A    between atoms: C_2  and  C_3
REMARK    3  A    between atoms: C_3  and  C_5
REMARK    4  A    between atoms: C_3  and  N_6
REMARK    5  A    between atoms: C_7  and  C_9
REMARK    6  A    between atoms: C_9  and  N_45
REMARK    7  A    between atoms: N_12  and  S_15
REMARK    8  A    between atoms: S_15  and  C_18
REMARK                            x       y       z     vdW  Elec       q    Type
REMARK                         _______ _______ _______ _____ _____    ______ ____
ROOT
ATOM      1  C   UNL     1       4.316   0.720  -3.659  0.00  0.00    -0.061 C 
ATOM      2  C   UNL     1       5.082   0.516  -2.348  0.00  0.00    +0.091 C 
ATOM      3  N   UNL     1       4.483  -0.617  -1.627  0.00  0.00    -0.180 NA
ATOM      4  C   UNL     1       4.299  -1.884  -2.352  0.00  0.00    +0.091 C 
ATOM      5  C   UNL     1       3.559  -1.584  -3.665  0.00  0.00    -0.061 C 
ATOM      6  N   UNL     1       4.315  -0.554  -4.410  0.00  0.00    +0.387 N 
ATOM      7  H   UNL     1       5.284  -0.873  -4.527  0.00  0.00    -0.081 HD
ENDROOT
BRANCH   3   8
ATOM      8  S   UNL     1       4.034  -0.474  -0.040  0.00  0.00    +0.067 S 
ATOM      9  O   UNL     1       4.814   0.579   0.509  0.00  0.00    -0.152 OA
ATOM     10  O   UNL     1       4.036  -1.787   0.503  0.00  0.00    -0.152 OA
BRANCH   8  11
ATOM     11  C   UNL     1       2.360   0.076  -0.020  0.00  0.00    +0.144 A 
ATOM     12  C   UNL     1       1.220  -0.657  -0.013  0.00  0.00    +0.037 A 
ATOM     13  C   UNL     1       0.002  -0.004   0.002  0.00  0.00    +0.025 A 
ATOM     14  C   UNL     1      -0.016   1.352   0.009  0.00  0.00    +0.057 A 
ATOM     15  S   UNL     1       1.725   1.745  -0.005  0.00  0.00    -0.062 S 
ATOM     16 BR   UNL     1      -1.501   2.523   0.023  0.00  0.00    -0.043 Br
ENDBRANCH   8  11
ENDBRANCH   3   8
BRANCH   6  17
ATOM     17  C   UNL     1       3.712  -0.353  -5.744  0.00  0.00    +0.019 C 
BRANCH  17  19
ATOM     18  N   UNL     1       3.472  -1.654  -7.834  0.00  0.00    -0.314 N 
ATOM     19  C   UNL     1       3.920  -1.600  -6.564  0.00  0.00    +0.197 C 
ATOM     20  O   UNL     1       4.490  -2.555  -6.081  0.00  0.00    -0.278 OA
ATOM     21  H   UNL     1       3.015  -0.890  -8.220  0.00  0.00    +0.149 HD
BRANCH  18  22
ATOM     22  C   UNL     1       3.674  -2.866  -8.631  0.00  0.00    +0.070 C 
ATOM     23  C   UNL     1       2.545  -3.859  -8.346  0.00  0.00    +0.028 C 
BRANCH  22  25
ATOM     24  C   UNL     1       4.875  -1.612 -10.428  0.00  0.00    +0.005 C 
ATOM     25  C   UNL     1       3.672  -2.506 -10.118  0.00  0.00    +0.018 C 
ENDBRANCH  22  25
ENDBRANCH  18  22
ENDBRANCH  17  19
ENDBRANCH   6  17
TORSDOF 6
