REMARK  Name = ZINC13065008
REMARK  15 active torsions:
REMARK  status: ('A' for Active; 'I' for Inactive)
REMARK    1  A    between atoms: C_1  and  C_2
REMARK    2  A    between atoms: C_2  and  C_3
REMARK    3  A    between atoms: C_3  and  C_5
REMARK    4  A    between atoms: C_3  and  N_71
REMARK    5  A    between atoms: N_9  and  C_10
REMARK    6  A    between atoms: C_10  and  C_11
REMARK    7  A    between atoms: C_10  and  C_12
REMARK    8  A    between atoms: C_10  and  C_13
REMARK    9  A    between atoms: C_13  and  C_14
REMARK   10  A    between atoms: C_15  and  C_16
REMARK   11  A    between atoms: C_15  and  N_71
REMARK   12  A    between atoms: C_22  and  C_23
REMARK   13  A    between atoms: C_22  and  N_71
REMARK   14  A    between atoms: C_28  and  C_36
REMARK   15  A    between atoms: C_29  and  C_35
REMARK                            x       y       z     vdW  Elec       q    Type
REMARK                         _______ _______ _______ _____ _____    ______ ____
ROOT
ATOM      1  N   UNL     1      -0.287  -0.199   4.310  0.00  0.00    +0.392 N 
ATOM      2  H   UNL     1      -0.590   0.306   5.151  0.00  0.00    -0.080 HD
ENDROOT
BRANCH   1   3
ATOM      3  C   UNL     1       0.170   0.780   3.301  0.00  0.00    +0.003 C 
BRANCH   3   4
ATOM      4  C   UNL     1       0.769   1.963   4.016  0.00  0.00    +0.139 A 
ATOM      5  N   UNL     1       1.381   1.949   5.175  0.00  0.00    -0.115 NA
ATOM      6  N   UNL     1       1.744   3.155   5.449  0.00  0.00    -0.023 NA
ATOM      7  N   UNL     1       1.383   3.937   4.492  0.00  0.00    -0.043 NA
ATOM      8  N   UNL     1       0.782   3.239   3.588  0.00  0.00    -0.225 N 
BRANCH   8   9
ATOM      9  C   UNL     1       0.214   3.742   2.335  0.00  0.00    +0.061 C 
ATOM     10  C   UNL     1      -1.312   3.639   2.389  0.00  0.00    +0.036 C 
ATOM     11  C   UNL     1       0.740   2.908   1.166  0.00  0.00    +0.036 C 
BRANCH   9  12
ATOM     12  C   UNL     1       0.620   5.205   2.142  0.00  0.00    +0.026 C 
ATOM     13  C   UNL     1       0.027   5.730   0.833  0.00  0.00    +0.006 C 
ENDBRANCH   9  12
ENDBRANCH   8   9
ENDBRANCH   3   4
BRANCH   3  15
ATOM     14  C   UNL     1       0.613  -1.047   1.655  0.00  0.00    +0.002 C 
ATOM     15  C   UNL     1       1.223   0.151   2.386  0.00  0.00    -0.011 C 
ENDBRANCH   3  15
ENDBRANCH   1   3
BRANCH   1  16
ATOM     16  C   UNL     1      -1.426  -0.977   3.779  0.00  0.00    -0.042 C 
BRANCH  16  17
ATOM     17  C   UNL     1      -2.106  -1.682   4.925  0.00  0.00    -0.064 A 
ATOM     18  C   UNL     1      -1.785  -2.995   5.216  0.00  0.00    +0.002 A 
ATOM     19  C   UNL     1      -2.404  -3.640   6.270  0.00  0.00    +0.000 A 
ATOM     20  C   UNL     1      -3.353  -2.976   7.026  0.00  0.00    +0.000 A 
ATOM     21  C   UNL     1      -3.677  -1.665   6.731  0.00  0.00    +0.000 A 
ATOM     22  C   UNL     1      -3.054  -1.018   5.681  0.00  0.00    +0.002 A 
ENDBRANCH  16  17
ENDBRANCH   1  16
BRANCH   1  23
ATOM     23  C   UNL     1       0.821  -1.108   4.670  0.00  0.00    -0.036 C 
BRANCH  23  24
ATOM     24  C   UNL     1       1.635  -0.465   5.763  0.00  0.00    +0.001 A 
ATOM     25  C   UNL     1       1.204  -0.521   7.048  0.00  0.00    +0.017 A 
ATOM     26  C   UNL     1       2.019   0.110   8.087  0.00  0.00    -0.001 A 
ATOM     27  C   UNL     1       1.630   0.080   9.430  0.00  0.00    +0.010 A 
ATOM     28  C   UNL     1       2.411   0.683  10.375  0.00  0.00    +0.004 A 
ATOM     29  C   UNL     1       3.588   1.325  10.014  0.00  0.00    -0.046 A 
ATOM     30  C   UNL     1       3.992   1.366   8.697  0.00  0.00    -0.024 A 
ATOM     31  C   UNL     1       3.212   0.759   7.717  0.00  0.00    +0.052 A 
ATOM     32  N   UNL     1       3.593   0.785   6.393  0.00  0.00    -0.322 N 
ATOM     33  H   UNL     1       4.415   1.233   6.140  0.00  0.00    +0.169 HD
ATOM     34  C   UNL     1       2.839   0.199   5.446  0.00  0.00    +0.251 A 
ATOM     35  O   UNL     1       3.206   0.241   4.284  0.00  0.00    -0.268 OA
ATOM     36  C   UNL     1       5.272   2.065   8.320  0.00  0.00    +0.046 C 
ATOM     37  C   UNL     1       4.434   1.983  11.074  0.00  0.00    +0.044 C 
ENDBRANCH  23  24
ENDBRANCH   1  23
TORSDOF 9
