REMARK  Name = ZINC14009709
REMARK  6 active torsions:
REMARK  status: ('A' for Active; 'I' for Inactive)
REMARK    1  A    between atoms: C_1  and  O_2
REMARK    2  A    between atoms: O_2  and  C_3
REMARK    3  A    between atoms: C_7  and  C_11
REMARK    4  A    between atoms: C_8  and  O_9
REMARK    5  A    between atoms: O_9  and  C_10
REMARK    6  A    between atoms: N_15  and  C_19
REMARK                            x       y       z     vdW  Elec       q    Type
REMARK                         _______ _______ _______ _____ _____    ______ ____
ROOT
ATOM      1  C   UNL     1      -1.333  -3.318  -0.001  0.00  0.00    +0.040 C 
ATOM      2  C   UNL     1      -0.594  -2.196   0.192  0.00  0.00    +0.099 C 
ATOM      3  C   UNL     1      -1.085  -0.844   0.495  0.00  0.00    +0.273 C 
ATOM      4  O   UNL     1      -2.246  -0.499   0.624  0.00  0.00    -0.268 OA
ATOM      5  N   UNL     1       0.008  -0.061   0.598  0.00  0.00    -0.189 N 
ATOM      6  C   UNL     1       1.113  -0.794   0.398  0.00  0.00    +0.318 C 
ATOM      7  O   UNL     1       2.247  -0.355   0.434  0.00  0.00    -0.251 OA
ATOM      8  N   UNL     1       0.803  -2.079   0.151  0.00  0.00    -0.264 N 
ATOM      9  H   UNL     1       1.432  -2.796  -0.023  0.00  0.00    +0.157 HD
ENDROOT
BRANCH   1  14
ATOM     10  C   UNL     1      -0.654  -6.895  -0.938  0.00  0.00    +0.163 A 
ATOM     11  C   UNL     1       0.589  -7.087  -0.357  0.00  0.00    +0.064 A 
ATOM     12  C   UNL     1       1.205  -6.057   0.337  0.00  0.00    +0.022 A 
ATOM     13  C   UNL     1       0.586  -4.831   0.457  0.00  0.00    +0.027 A 
ATOM     14  C   UNL     1      -0.670  -4.622  -0.125  0.00  0.00    +0.023 A 
ATOM     15  C   UNL     1      -1.294  -5.667  -0.823  0.00  0.00    +0.169 A 
ATOM     16 BR   UNL     1       2.901  -6.335   1.124  0.00  0.00    -0.050 Br
BRANCH  10  18
ATOM     17  C   UNL     1      -0.538  -9.148  -1.692  0.00  0.00    +0.277 C 
ATOM     18  O   UNL     1      -1.250  -7.911  -1.618  0.00  0.00    -0.491 OA
ENDBRANCH  10  18
BRANCH  15  19
ATOM     19  O   UNL     1      -2.515  -5.478  -1.387  0.00  0.00    -0.491 OA
ATOM     20  C   UNL     1      -2.541  -5.002  -2.734  0.00  0.00    +0.277 C 
ENDBRANCH  15  19
ENDBRANCH   1  14
BRANCH   5  21
ATOM     21  C   UNL     1      -0.008   1.312   0.879  0.00  0.00    +0.047 A 
ATOM     22  C   UNL     1       1.184   2.018   0.967  0.00  0.00    +0.024 A 
ATOM     23  C   UNL     1       1.166   3.371   1.244  0.00  0.00    +0.003 A 
ATOM     24  C   UNL     1      -0.038   4.024   1.432  0.00  0.00    +0.020 A 
ATOM     25  C   UNL     1      -1.228   3.324   1.345  0.00  0.00    +0.043 A 
ATOM     26  C   UNL     1      -1.216   1.970   1.063  0.00  0.00    +0.044 A 
ATOM     27 CL   UNL     1      -2.738   4.147   1.581  0.00  0.00    -0.083 Cl
ENDBRANCH   5  21
TORSDOF 4
