REMARK  Name = ZINC07122517
REMARK  5 active torsions:
REMARK  status: ('A' for Active; 'I' for Inactive)
REMARK    1  A    between atoms: C_1  and  C_2
REMARK    2  A    between atoms: C_9  and  C_11
REMARK    3  A    between atoms: C_11  and  S_12
REMARK    4  A    between atoms: S_12  and  C_13
REMARK    5  A    between atoms: C_18  and  C_23
REMARK                            x       y       z     vdW  Elec       q    Type
REMARK                         _______ _______ _______ _____ _____    ______ ____
ROOT
ATOM      1  C   UNL     1       4.215   0.473   5.055  0.00  0.00    +0.171 A 
ATOM      2  N   UNL     1       4.245  -0.841   5.136  0.00  0.00    -0.185 NA
ATOM      3  C   UNL     1       4.994  -1.485   6.035  0.00  0.00    +0.283 A 
ATOM      4  O   UNL     1       4.993  -2.705   6.077  0.00  0.00    -0.265 OA
ATOM      5  C   UNL     1       5.826  -0.705   6.980  0.00  0.00    +0.080 A 
ATOM      6  C   UNL     1       6.716  -1.173   8.036  0.00  0.00    +0.004 A 
ATOM      7  C   UNL     1       7.381  -0.257   8.780  0.00  0.00    +0.056 A 
ATOM      8  S   UNL     1       6.841   1.297   8.094  0.00  0.00    -0.078 S 
ATOM      9  C   UNL     1       5.749   0.682   6.840  0.00  0.00    +0.093 A 
ATOM     10  N   UNL     1       4.960   1.253   5.889  0.00  0.00    -0.328 N 
ATOM     11  H   UNL     1       4.924   2.219   5.807  0.00  0.00    +0.168 HD
ENDROOT
BRANCH   6  12
ATOM     12  C   UNL     1       6.890  -2.623   8.291  0.00  0.00    -0.016 A 
ATOM     13  C   UNL     1       5.774  -3.446   8.433  0.00  0.00    +0.011 A 
ATOM     14  C   UNL     1       5.940  -4.795   8.670  0.00  0.00    +0.039 A 
ATOM     15  C   UNL     1       7.213  -5.332   8.767  0.00  0.00    +0.123 A 
ATOM     16  C   UNL     1       8.326  -4.517   8.627  0.00  0.00    +0.039 A 
ATOM     17  C   UNL     1       8.169  -3.168   8.384  0.00  0.00    +0.011 A 
ATOM     18  F   UNL     1       7.371  -6.653   9.000  0.00  0.00    -0.205 F 
ENDBRANCH   6  12
BRANCH   1  19
ATOM     19  S   UNL     1       3.197   1.239   3.838  0.00  0.00    -0.078 S 
BRANCH  19  20
ATOM     20  C   UNL     1       2.412  -0.154   2.982  0.00  0.00    +0.173 C 
BRANCH  20  28
ATOM     21  C   UNL     1      -0.017   1.526   0.009  0.00  0.00    +0.028 C 
ATOM     22  C   UNL     1       0.003  -0.004   0.001  0.00  0.00    +0.073 C 
ATOM     23  C   UNL     1      -1.426  -0.537   0.144  0.00  0.00    +0.022 C 
ATOM     24  C   UNL     1      -1.387  -2.061   0.276  0.00  0.00    +0.003 C 
ATOM     25  C   UNL     1      -0.600  -2.447   1.530  0.00  0.00    +0.019 C 
ATOM     26  C   UNL     1       0.838  -1.935   1.403  0.00  0.00    +0.108 C 
ATOM     27  N   UNL     1       0.808  -0.492   1.130  0.00  0.00    -0.298 N 
ATOM     28  C   UNL     1       1.502   0.368   1.901  0.00  0.00    +0.226 C 
ATOM     29  O   UNL     1       1.393   1.563   1.725  0.00  0.00    -0.275 OA
ENDBRANCH  20  28
ENDBRANCH  19  20
ENDBRANCH   1  19
TORSDOF 4
