REMARK  Name = ZINC35262647
REMARK  6 active torsions:
REMARK  status: ('A' for Active; 'I' for Inactive)
REMARK    1  A    between atoms: C_1  and  C_2
REMARK    2  A    between atoms: C_5  and  N_9
REMARK    3  A    between atoms: C_6  and  C_8
REMARK    4  A    between atoms: C_10  and  C_12
REMARK    5  A    between atoms: C_12  and  N_13
REMARK    6  A    between atoms: C_21  and  C_23
REMARK                            x       y       z     vdW  Elec       q    Type
REMARK                         _______ _______ _______ _____ _____    ______ ____
ROOT
ATOM      1  N   UNL     1      -0.232  -6.827  -2.571  0.00  0.00    -0.282 NA
ATOM      2  C   UNL     1       0.994  -6.524  -3.323  0.00  0.00    +0.091 C 
ATOM      3  C   UNL     1       0.700  -6.664  -4.826  0.00  0.00    +0.058 C 
ATOM      4  C   UNL     1      -0.040  -7.947  -5.027  0.00  0.00    -0.004 A 
ATOM      5  C   UNL     1      -0.626  -8.708  -4.061  0.00  0.00    -0.015 A 
ATOM      6  C   UNL     1      -1.262  -9.872  -4.487  0.00  0.00    +0.013 A 
ATOM      7  C   UNL     1      -1.275 -10.194  -5.802  0.00  0.00    +0.046 A 
ATOM      8  S   UNL     1      -0.368  -8.834  -6.524  0.00  0.00    -0.101 S 
ATOM      9  C   UNL     1      -0.562  -8.258  -2.605  0.00  0.00    +0.125 C 
ENDROOT
BRANCH   9  10
ATOM     10  C   UNL     1      -1.897  -8.485  -1.945  0.00  0.00    +0.011 A 
ATOM     11  C   UNL     1      -2.281  -9.487  -1.117  0.00  0.00    +0.013 A 
ATOM     12  C   UNL     1      -3.572  -9.493  -0.625  0.00  0.00    +0.008 A 
ATOM     13  C   UNL     1      -4.417  -8.496  -0.984  0.00  0.00    +0.045 A 
ATOM     14  S   UNL     1      -3.383  -7.500  -2.046  0.00  0.00    -0.100 S 
ENDBRANCH   9  10
BRANCH   1  15
ATOM     15  C   UNL     1      -0.134  -6.343  -1.187  0.00  0.00    +0.181 C 
BRANCH  15  17
ATOM     16  N   UNL     1       0.059  -4.170  -0.021  0.00  0.00    -0.284 N 
ATOM     17  C   UNL     1      -0.040  -4.839  -1.187  0.00  0.00    +0.231 C 
ATOM     18  O   UNL     1      -0.054  -4.230  -2.236  0.00  0.00    -0.274 OA
ATOM     19  H   UNL     1       0.135  -4.658   0.814  0.00  0.00    +0.155 HD
BRANCH  16  24
ATOM     20  C   UNL     1       0.025   1.503   0.005  0.00  0.00    +0.044 C 
ATOM     21  C   UNL     1       0.034  -0.004  -0.002  0.00  0.00    -0.050 A 
ATOM     22  C   UNL     1       0.632  -0.685  -1.046  0.00  0.00    +0.005 A 
ATOM     23  C   UNL     1       0.641  -2.066  -1.055  0.00  0.00    +0.024 A 
ATOM     24  C   UNL     1       0.051  -2.771  -0.014  0.00  0.00    +0.036 A 
ATOM     25  C   UNL     1      -0.548  -2.083   1.033  0.00  0.00    -0.029 A 
ATOM     26  C   UNL     1      -0.550  -0.702   1.039  0.00  0.00    +0.008 A 
ATOM     27  C   UNL     1      -1.190  -2.843   2.165  0.00  0.00    +0.045 C 
ENDBRANCH  16  24
ENDBRANCH  15  17
ENDBRANCH   1  15
TORSDOF 4
