REMARK  Name = ZINC07137709
REMARK  8 active torsions:
REMARK  status: ('A' for Active; 'I' for Inactive)
REMARK    1  A    between atoms: C_1  and  C_2
REMARK    2  A    between atoms: C_2  and  C_3
REMARK    3  A    between atoms: C_2  and  C_4
REMARK    4  A    between atoms: C_7  and  O_10
REMARK    5  A    between atoms: O_10  and  C_11
REMARK    6  A    between atoms: C_11  and  C_12
REMARK    7  A    between atoms: N_14  and  N_15
REMARK    8  A    between atoms: C_16  and  C_18
REMARK                            x       y       z     vdW  Elec       q    Type
REMARK                         _______ _______ _______ _____ _____    ______ ____
ROOT
ATOM      1  N   UNL     1      -9.039  -4.381  -1.627  0.00  0.00    -0.229 N 
ATOM      2  C   UNL     1      -9.631  -5.166  -2.549  0.00  0.00    +0.281 C 
ATOM      3  O   UNL     1      -9.009  -5.531  -3.527  0.00  0.00    -0.267 OA
ATOM      4  H   UNL     1      -9.535  -4.090  -0.846  0.00  0.00    +0.173 HD
ENDROOT
BRANCH   2   5
ATOM      5  C   UNL     1     -11.036  -5.583  -2.370  0.00  0.00    +0.155 A 
ATOM      6  C   UNL     1     -11.690  -6.445  -3.368  0.00  0.00    +0.020 A 
ATOM      7  C   UNL     1     -11.039  -6.905  -4.508  0.00  0.00    +0.011 A 
ATOM      8  C   UNL     1     -11.720  -7.709  -5.397  0.00  0.00    +0.001 A 
ATOM      9  C   UNL     1     -13.043  -8.063  -5.167  0.00  0.00    +0.001 A 
ATOM     10  C   UNL     1     -13.706  -7.618  -4.044  0.00  0.00    +0.014 A 
ATOM     11  C   UNL     1     -13.037  -6.806  -3.134  0.00  0.00    +0.050 A 
ATOM     12  C   UNL     1     -13.668  -6.288  -1.912  0.00  0.00    +0.272 A 
ATOM     13  O   UNL     1     -14.824  -6.558  -1.645  0.00  0.00    -0.266 OA
ATOM     14  N   UNL     1     -12.934  -5.506  -1.092  0.00  0.00    -0.242 N 
ATOM     15  H   UNL     1     -13.354  -5.166  -0.286  0.00  0.00    +0.192 HD
ATOM     16  N   UNL     1     -11.714  -5.194  -1.318  0.00  0.00    -0.166 NA
ENDBRANCH   2   5
BRANCH   1  19
ATOM     17  C   UNL     1      -7.113  -3.201  -0.875  0.00  0.00    +0.267 C 
ATOM     18  O   UNL     1      -7.734  -2.837   0.101  0.00  0.00    -0.271 OA
ATOM     19  N   UNL     1      -7.705  -3.986  -1.797  0.00  0.00    -0.231 N 
ATOM     20  H   UNL     1      -7.209  -4.277  -2.578  0.00  0.00    +0.173 HD
BRANCH  17  21
ATOM     21  C   UNL     1      -5.679  -2.776  -1.058  0.00  0.00    +0.326 C 
BRANCH  21  22
ATOM     22  O   UNL     1      -5.282  -1.955   0.043  0.00  0.00    -0.483 OA
BRANCH  22  26
ATOM     23  C   UNL     1      -1.412  -0.526   0.013  0.00  0.00    -0.045 A 
ATOM     24  C   UNL     1      -2.258  -0.203   1.057  0.00  0.00    +0.007 A 
ATOM     25  C   UNL     1      -3.555  -0.681   1.070  0.00  0.00    +0.046 A 
ATOM     26  C   UNL     1      -4.007  -1.484   0.033  0.00  0.00    +0.121 A 
ATOM     27  C   UNL     1      -3.156  -1.805  -1.015  0.00  0.00    +0.046 A 
ATOM     28  C   UNL     1      -1.862  -1.321  -1.025  0.00  0.00    +0.007 A 
BRANCH  23  30
ATOM     29  C   UNL     1      -0.019   1.526   0.010  0.00  0.00    +0.012 C 
ATOM     30  C   UNL     1       0.002  -0.004   0.002  0.00  0.00    +0.013 C 
ATOM     31  C   UNL     1       0.742  -0.511   1.242  0.00  0.00    +0.012 C 
ENDBRANCH  23  30
ENDBRANCH  22  26
ENDBRANCH  21  22
ENDBRANCH  17  21
ENDBRANCH   1  19
TORSDOF 6
