REMARK  Name = ZINC08765433
REMARK  6 active torsions:
REMARK  status: ('A' for Active; 'I' for Inactive)
REMARK    1  A    between atoms: C_4  and  C_7
REMARK    2  A    between atoms: C_12  and  O_33
REMARK    3  A    between atoms: C_14  and  O_18
REMARK    4  A    between atoms: O_18  and  C_19
REMARK    5  A    between atoms: C_19  and  C_20
REMARK    6  A    between atoms: N_22  and  C_23
REMARK                            x       y       z     vdW  Elec       q    Type
REMARK                         _______ _______ _______ _____ _____    ______ ____
ROOT
ATOM      1  C   UNL     1      13.177   7.003   0.745  0.00  0.00    +0.139 A 
ATOM      2  C   UNL     1      13.018   8.352   0.779  0.00  0.00    +0.098 A 
ATOM      3  C   UNL     1      11.715   8.903   0.702  0.00  0.00    +0.197 A 
ATOM      4  O   UNL     1      11.534  10.110   0.729  0.00  0.00    -0.287 OA
ATOM      5  C   UNL     1      10.588   7.963   0.588  0.00  0.00    +0.105 A 
ATOM      6  C   UNL     1       9.266   8.419   0.505  0.00  0.00    +0.135 A 
ATOM      7  C   UNL     1       8.236   7.504   0.394  0.00  0.00    +0.092 A 
ATOM      8  C   UNL     1       8.511   6.141   0.374  0.00  0.00    +0.128 A 
ATOM      9  C   UNL     1       9.817   5.683   0.455  0.00  0.00    +0.092 A 
ATOM     10  C   UNL     1      10.864   6.585   0.562  0.00  0.00    +0.146 A 
ATOM     11  O   UNL     1      12.141   6.156   0.640  0.00  0.00    -0.454 OA
ENDROOT
BRANCH   1  15
ATOM     12  C   UNL     1      17.104   5.406   0.982  0.00  0.00    +0.000 A 
ATOM     13  C   UNL     1      16.019   4.553   0.873  0.00  0.00    +0.001 A 
ATOM     14  C   UNL     1      14.741   5.066   0.796  0.00  0.00    +0.011 A 
ATOM     15  C   UNL     1      14.543   6.448   0.827  0.00  0.00    +0.017 A 
ATOM     16  C   UNL     1      15.643   7.302   0.931  0.00  0.00    +0.011 A 
ATOM     17  C   UNL     1      16.915   6.776   1.014  0.00  0.00    +0.001 A 
ENDBRANCH   1  15
BRANCH   6  18
ATOM     18  O   UNL     1       8.998   9.750   0.530  0.00  0.00    -0.506 OA
ATOM     19  H   UNL     1       8.986  10.165  -0.343  0.00  0.00    +0.292 HD
ENDBRANCH   6  18
BRANCH   8  20
ATOM     20  O   UNL     1       7.492   5.250   0.270  0.00  0.00    -0.483 OA
BRANCH  20  21
ATOM     21  C   UNL     1       6.169   5.785   0.191  0.00  0.00    +0.324 C 
BRANCH  21  22
ATOM     22  C   UNL     1       5.177   4.656   0.080  0.00  0.00    +0.255 C 
ATOM     23  O   UNL     1       5.564   3.507   0.070  0.00  0.00    -0.272 OA
ATOM     24  N   UNL     1       3.859   4.924  -0.008  0.00  0.00    -0.283 N 
ATOM     25  H   UNL     1       3.554   5.842  -0.077  0.00  0.00    +0.155 HD
BRANCH  24  26
ATOM     26  C   UNL     1       2.929   3.876   0.001  0.00  0.00    +0.034 A 
ATOM     27  C   UNL     1       1.752   3.985  -0.738  0.00  0.00    +0.025 A 
ATOM     28  C   UNL     1       0.828   2.965  -0.741  0.00  0.00    +0.028 A 
ATOM     29  C   UNL     1       1.065   1.810  -0.002  0.00  0.00    +0.047 A 
ATOM     30  C   UNL     1       2.251   1.696   0.745  0.00  0.00    +0.001 A 
ATOM     31  C   UNL     1       3.182   2.737   0.742  0.00  0.00    +0.033 A 
ATOM     32  C   UNL     1       2.196   0.385   1.397  0.00  0.00    +0.027 A 
ATOM     33  C   UNL     1       1.037  -0.187   1.031  0.00  0.00    +0.083 A 
ATOM     34  N   UNL     1       0.351   0.646   0.191  0.00  0.00    -0.361 N 
ATOM     35  H   UNL     1      -0.512   0.450  -0.206  0.00  0.00    +0.165 HD
ENDBRANCH  24  26
ENDBRANCH  21  22
ENDBRANCH  20  21
ENDBRANCH   8  20
TORSDOF 6
