REMARK  Name = ZINC10645082
REMARK  10 active torsions:
REMARK  status: ('A' for Active; 'I' for Inactive)
REMARK    1  A    between atoms: C_1  and  C_2
REMARK    2  A    between atoms: C_4  and  C_33
REMARK    3  A    between atoms: C_8  and  N_32
REMARK    4  A    between atoms: C_9  and  C_11
REMARK    5  A    between atoms: C_11  and  O_13
REMARK    6  A    between atoms: O_13  and  C_14
REMARK    7  A    between atoms: C_14  and  C_16
REMARK    8  A    between atoms: C_14  and  C_17
REMARK    9  A    between atoms: N_19  and  C_20
REMARK   10  A    between atoms: C_25  and  C_26
REMARK                            x       y       z     vdW  Elec       q    Type
REMARK                         _______ _______ _______ _____ _____    ______ ____
ROOT
ATOM      1  C   UNL     1       2.786  -1.694   6.161  0.00  0.00    +0.259 C 
ATOM      2  C   UNL     1       2.120  -1.402   7.507  0.00  0.00    +0.062 C 
ENDROOT
BRANCH   1   3
ATOM      3  C   UNL     1       3.878  -2.714   6.351  0.00  0.00    +0.258 C 
ATOM      4  O   UNL     1       3.828  -3.773   5.762  0.00  0.00    -0.271 OA
ATOM      5  N   UNL     1       4.912  -2.449   7.174  0.00  0.00    -0.282 N 
ATOM      6  H   UNL     1       4.915  -1.636   7.702  0.00  0.00    +0.155 HD
BRANCH   5   7
ATOM      7  C   UNL     1       5.979  -3.346   7.267  0.00  0.00    +0.041 A 
ATOM      8  C   UNL     1       5.812  -4.670   6.885  0.00  0.00    +0.024 A 
ATOM      9  C   UNL     1       6.868  -5.555   6.977  0.00  0.00    +0.002 A 
ATOM     10  C   UNL     1       8.097  -5.130   7.450  0.00  0.00    +0.001 A 
ATOM     11  C   UNL     1       8.279  -3.816   7.833  0.00  0.00    +0.010 A 
ATOM     12  C   UNL     1       7.223  -2.913   7.739  0.00  0.00    +0.003 A 
BRANCH  12  13
ATOM     13  C   UNL     1       7.414  -1.499   8.144  0.00  0.00    -0.016 A 
ATOM     14  C   UNL     1       7.014  -0.468   7.296  0.00  0.00    +0.008 A 
ATOM     15  C   UNL     1       7.194   0.846   7.678  0.00  0.00    +0.001 A 
ATOM     16  C   UNL     1       7.770   1.140   8.901  0.00  0.00    +0.000 A 
ATOM     17  C   UNL     1       8.169   0.121   9.747  0.00  0.00    +0.001 A 
ATOM     18  C   UNL     1       7.989  -1.196   9.377  0.00  0.00    +0.008 A 
ENDBRANCH  12  13
ENDBRANCH   5   7
ENDBRANCH   1   3
BRANCH   1  19
ATOM     19  O   UNL     1       1.811  -2.203   5.248  0.00  0.00    -0.448 OA
BRANCH  19  20
ATOM     20  C   UNL     1       1.148  -1.302   4.493  0.00  0.00    +0.348 C 
ATOM     21  O   UNL     1       1.392  -0.115   4.608  0.00  0.00    -0.244 OA
BRANCH  20  30
ATOM     22  C   UNL     1      -2.497   0.398   0.693  0.00  0.00    +0.044 C 
ATOM     23  C   UNL     1      -2.445  -1.093   0.905  0.00  0.00    -0.037 A 
ATOM     24  C   UNL     1      -3.259  -1.930   0.179  0.00  0.00    +0.027 A 
ATOM     25  C   UNL     1      -3.209  -3.302   0.376  0.00  0.00    +0.040 A 
ATOM     26  N   UNL     1      -2.381  -3.820   1.262  0.00  0.00    -0.245 NA
ATOM     27  C   UNL     1      -1.582  -3.062   1.980  0.00  0.00    +0.111 A 
ATOM     28  C   UNL     1      -1.552  -1.654   1.851  0.00  0.00    +0.032 A 
ATOM     29  C   UNL     1      -0.603  -0.974   2.720  0.00  0.00    +0.056 A 
ATOM     30  C   UNL     1       0.170  -1.737   3.569  0.00  0.00    +0.119 A 
ATOM     31  S   UNL     1      -0.369  -3.402   3.232  0.00  0.00    -0.060 S 
ATOM     32  C   UNL     1      -4.108  -4.206  -0.427  0.00  0.00    +0.065 C 
BRANCH  29  33
ATOM     33  N   UNL     1      -0.480   0.407   2.694  0.00  0.00    -0.356 N 
ATOM     34  H   UNL     1      -0.712   0.900   1.892  0.00  0.00    +0.142 HD
ATOM     35  H   UNL     1      -0.160   0.880   3.479  0.00  0.00    +0.142 HD
ENDBRANCH  29  33
ENDBRANCH  20  30
ENDBRANCH  19  20
ENDBRANCH   1  19
TORSDOF 7
