REMARK  Name = ZINC20877203
REMARK  12 active torsions:
REMARK  status: ('A' for Active; 'I' for Inactive)
REMARK    1  A    between atoms: C_1  and  C_2
REMARK    2  A    between atoms: C_5  and  C_8
REMARK    3  A    between atoms: C_8  and  N_9
REMARK    4  A    between atoms: N_9  and  C_10
REMARK    5  A    between atoms: C_10  and  C_11
REMARK    6  A    between atoms: C_13  and  O_33
REMARK    7  A    between atoms: C_14  and  O_18
REMARK    8  A    between atoms: O_18  and  C_19
REMARK    9  A    between atoms: C_19  and  C_20
REMARK   10  A    between atoms: C_20  and  C_22
REMARK   11  A    between atoms: C_20  and  O_32
REMARK   12  A    between atoms: O_33  and  C_34
REMARK                            x       y       z     vdW  Elec       q    Type
REMARK                         _______ _______ _______ _____ _____    ______ ____
ROOT
ATOM      1  C   UNL     1      -7.139  -2.471  -5.094  0.00  0.00    -0.060 A 
ATOM      2  C   UNL     1      -7.535  -1.385  -4.334  0.00  0.00    +0.051 A 
ATOM      3  C   UNL     1      -6.947  -1.150  -3.102  0.00  0.00    +0.163 A 
ATOM      4  C   UNL     1      -5.951  -2.003  -2.636  0.00  0.00    +0.176 A 
ATOM      5  C   UNL     1      -5.558  -3.089  -3.402  0.00  0.00    +0.063 A 
ATOM      6  C   UNL     1      -6.153  -3.321  -4.629  0.00  0.00    +0.021 A 
ATOM      7 BR   UNL     1      -4.209  -4.254  -2.770  0.00  0.00    -0.046 Br
ENDROOT
BRANCH   3   8
ATOM      8  O   UNL     1      -7.339  -0.086  -2.352  0.00  0.00    -0.491 OA
ATOM      9  C   UNL     1      -8.367   0.746  -2.894  0.00  0.00    +0.277 C 
ENDBRANCH   3   8
BRANCH   1  10
ATOM     10  C   UNL     1      -7.784  -2.728  -6.432  0.00  0.00    -0.046 C 
BRANCH  10  11
ATOM     11  N   UNL     1      -8.957  -3.593  -6.252  0.00  0.00    +0.384 N 
ATOM     12  H   UNL     1      -9.666  -3.091  -5.578  0.00  0.00    -0.085 HD
ATOM     13  H   UNL     1      -8.630  -4.541  -5.799  0.00  0.00    -0.085 HD
BRANCH  11  14
ATOM     14  C   UNL     1      -9.612  -3.866  -7.538  0.00  0.00    -0.046 C 
BRANCH  14  19
ATOM     15  C   UNL     1     -14.199  -7.274  -6.679  0.00  0.00    +0.044 C 
ATOM     16  C   UNL     1     -13.003  -6.385  -6.904  0.00  0.00    -0.050 A 
ATOM     17  C   UNL     1     -13.145  -5.011  -6.858  0.00  0.00    +0.003 A 
ATOM     18  C   UNL     1     -12.048  -4.196  -7.064  0.00  0.00    +0.002 A 
ATOM     19  C   UNL     1     -10.808  -4.755  -7.314  0.00  0.00    -0.064 A 
ATOM     20  C   UNL     1     -10.667  -6.129  -7.364  0.00  0.00    +0.002 A 
ATOM     21  C   UNL     1     -11.764  -6.944  -7.154  0.00  0.00    +0.003 A 
ENDBRANCH  14  19
ENDBRANCH  11  14
ENDBRANCH  10  11
ENDBRANCH   1  10
BRANCH   4  22
ATOM     22  O   UNL     1      -5.367  -1.774  -1.429  0.00  0.00    -0.484 OA
BRANCH  22  23
ATOM     23  C   UNL     1      -4.203  -0.946  -1.418  0.00  0.00    +0.265 C 
BRANCH  23  24
ATOM     24  C   UNL     1      -3.692  -0.803   0.018  0.00  0.00    +0.182 C 
BRANCH  24  25
ATOM     25  C   UNL     1      -2.397  -0.033   0.016  0.00  0.00    -0.012 A 
ATOM     26  C   UNL     1      -2.415   1.349   0.025  0.00  0.00    +0.010 A 
ATOM     27  C   UNL     1      -1.229   2.059   0.019  0.00  0.00    +0.050 A 
ATOM     28  C   UNL     1      -0.017   1.385   0.010  0.00  0.00    +0.162 A 
ATOM     29  C   UNL     1       0.002  -0.004   0.002  0.00  0.00    +0.162 A 
ATOM     30  C   UNL     1      -1.192  -0.710   0.004  0.00  0.00    +0.055 A 
ATOM     31  O   UNL     1       1.181  -0.685  -0.007  0.00  0.00    -0.485 OA
ATOM     32  C   UNL     1       2.347   0.053  -0.387  0.00  0.00    +0.270 C 
ATOM     33  C   UNL     1       2.334   1.392   0.364  0.00  0.00    +0.270 C 
ATOM     34  O   UNL     1       1.143   2.098   0.002  0.00  0.00    -0.485 OA
ENDBRANCH  24  25
BRANCH  24  35
ATOM     35  O   UNL     1      -4.661  -0.103   0.801  0.00  0.00    -0.384 OA
ATOM     36  H   UNL     1      -4.468   0.095   1.865  0.00  0.00    +0.210 HD
ENDBRANCH  24  35
ENDBRANCH  23  24
ENDBRANCH  22  23
ENDBRANCH   4  22
TORSDOF 10
