REMARK  Name = ZINC66214345
REMARK  6 active torsions:
REMARK  status: ('A' for Active; 'I' for Inactive)
REMARK    1  A    between atoms: C_6  and  N_7
REMARK    2  A    between atoms: C_8  and  C_10
REMARK    3  A    between atoms: C_10  and  N_11
REMARK    4  A    between atoms: N_11  and  C_12
REMARK    5  A    between atoms: C_12  and  C_13
REMARK    6  A    between atoms: C_13  and  C_14
REMARK                            x       y       z     vdW  Elec       q    Type
REMARK                         _______ _______ _______ _____ _____    ______ ____
ROOT
ATOM      1  C   UNL     1      -2.478  -2.828  -0.205  0.00  0.00    +0.015 C 
ENDROOT
BRANCH   1   3
ATOM      2  N   UNL     1      -1.199  -0.722   0.010  0.00  0.00    -0.287 N 
ATOM      3  C   UNL     1      -1.183  -2.065  -0.100  0.00  0.00    +0.200 C 
ATOM      4  O   UNL     1      -0.126  -2.659  -0.113  0.00  0.00    -0.278 OA
ATOM      5  H   UNL     1      -2.044  -0.253   0.097  0.00  0.00    +0.155 HD
BRANCH   2  11
ATOM      6  C   UNL     1       1.072  -0.453  -0.766  0.00  0.00    +0.024 A 
ATOM      7  C   UNL     1       2.256   0.258  -0.777  0.00  0.00    +0.016 A 
ATOM      8  C   UNL     1       2.377   1.416  -0.030  0.00  0.00    +0.013 A 
ATOM      9  C   UNL     1       1.312   1.866   0.730  0.00  0.00    +0.016 A 
ATOM     10  C   UNL     1       0.126   1.159   0.745  0.00  0.00    +0.024 A 
ATOM     11  C   UNL     1       0.002  -0.004  -0.004  0.00  0.00    +0.033 A 
ATOM     12  I   UNL     1       4.175   2.490  -0.050  0.00  0.00    -0.044 I 
ENDBRANCH   2  11
ENDBRANCH   1   3
BRANCH   1  13
ATOM     13  N   UNL     1      -2.192  -4.265  -0.313  0.00  0.00    +0.385 N 
ATOM     14  H   UNL     1      -1.633  -4.436  -1.135  0.00  0.00    -0.085 HD
ATOM     15  H   UNL     1      -1.687  -4.570   0.506  0.00  0.00    -0.085 HD
BRANCH  13  16
ATOM     16  C   UNL     1      -3.454  -5.009  -0.415  0.00  0.00    -0.078 C 
BRANCH  16  17
ATOM     17  C   UNL     1      -3.156  -6.506  -0.527  0.00  0.00    +0.011 C 
BRANCH  17  18
ATOM     18  C   UNL     1      -4.452  -7.269  -0.633  0.00  0.00    -0.075 C 
ATOM     19  C   UNL     1      -4.882  -7.574  -1.815  0.00  0.00    -0.028 C 
ATOM     20  C   UNL     1      -6.157  -8.320  -2.079  0.00  0.00    +0.027 C 
ATOM     21  C   UNL     1      -6.631  -9.021  -0.804  0.00  0.00    +0.004 C 
ATOM     22  C   UNL     1      -6.616  -8.003   0.344  0.00  0.00    +0.005 C 
ATOM     23  C   UNL     1      -5.159  -7.634   0.640  0.00  0.00    +0.030 C 
ENDBRANCH  17  18
ENDBRANCH  16  17
ENDBRANCH  13  16
ENDBRANCH   1  13
TORSDOF 6
