REMARK  Name = ZINC41435070
REMARK  5 active torsions:
REMARK  status: ('A' for Active; 'I' for Inactive)
REMARK    1  A    between atoms: C_1  and  C_2
REMARK    2  A    between atoms: C_4  and  O_21
REMARK    3  A    between atoms: C_11  and  C_12
REMARK    4  A    between atoms: O_21  and  C_22
REMARK    5  A    between atoms: C_22  and  C_23
REMARK                            x       y       z     vdW  Elec       q    Type
REMARK                         _______ _______ _______ _____ _____    ______ ____
ROOT
ATOM      1  C   UNL     1      -0.655   1.599   0.132  0.00  0.00    +0.045 C 
ATOM      2  C   UNL     1      -0.760   0.096   0.112  0.00  0.00    -0.033 A 
ATOM      3  C   UNL     1      -1.038  -0.555  -1.057  0.00  0.00    +0.050 A 
ATOM      4  C   UNL     1      -1.136  -1.943  -1.078  0.00  0.00    +0.125 A 
ATOM      5  C   UNL     1      -0.953  -2.681   0.081  0.00  0.00    +0.092 A 
ATOM      6  C   UNL     1      -0.669  -2.035   1.277  0.00  0.00    +0.143 A 
ATOM      7  C   UNL     1      -0.568  -0.634   1.285  0.00  0.00    +0.071 A 
ATOM      8  C   UNL     1      -0.257  -0.248   2.674  0.00  0.00    +0.232 C 
ATOM      9  O   UNL     1      -0.091   0.876   3.116  0.00  0.00    -0.283 OA
ATOM     10  C   UNL     1      -0.193  -1.522   3.405  0.00  0.00    +0.176 C 
ATOM     11  C   UNL     1       0.069  -1.675   4.728  0.00  0.00    +0.059 C 
ATOM     12  O   UNL     1      -0.453  -2.514   2.521  0.00  0.00    -0.451 OA
ENDROOT
BRANCH  11  13
ATOM     13  C   UNL     1      -0.019  -3.005   5.345  0.00  0.00    -0.003 A 
ATOM     14  C   UNL     1      -0.011  -4.154   4.545  0.00  0.00    +0.011 A 
ATOM     15  C   UNL     1      -0.093  -5.398   5.130  0.00  0.00    +0.020 A 
ATOM     16  C   UNL     1      -0.183  -5.515   6.509  0.00  0.00    +0.042 A 
ATOM     17  C   UNL     1      -0.192  -4.384   7.308  0.00  0.00    +0.040 A 
ATOM     18  C   UNL     1      -0.104  -3.131   6.737  0.00  0.00    +0.050 A 
ATOM     19 CL   UNL     1      -0.107  -1.715   7.741  0.00  0.00    -0.083 Cl
ATOM     20 CL   UNL     1      -0.286  -7.088   7.237  0.00  0.00    -0.083 Cl
ENDBRANCH  11  13
BRANCH   4  21
ATOM     21  O   UNL     1      -1.413  -2.580  -2.244  0.00  0.00    -0.487 OA
BRANCH  21  22
ATOM     22  C   UNL     1      -1.501  -4.006  -2.200  0.00  0.00    +0.264 C 
BRANCH  22  23
ATOM     23  C   UNL     1      -1.813  -4.533  -3.577  0.00  0.00    -0.009 A 
ATOM     24  C   UNL     1      -3.128  -4.691  -3.974  0.00  0.00    +0.008 A 
ATOM     25  C   UNL     1      -3.416  -5.175  -5.236  0.00  0.00    +0.022 A 
ATOM     26  C   UNL     1      -2.388  -5.502  -6.103  0.00  0.00    +0.059 A 
ATOM     27  C   UNL     1      -1.071  -5.344  -5.705  0.00  0.00    +0.060 A 
ATOM     28  C   UNL     1      -0.785  -4.854  -4.443  0.00  0.00    +0.028 A 
ATOM     29 CL   UNL     1       0.219  -5.754  -6.791  0.00  0.00    -0.082 Cl
ATOM     30 CL   UNL     1      -2.749  -6.110  -7.688  0.00  0.00    -0.082 Cl
ENDBRANCH  22  23
ENDBRANCH  21  22
ENDBRANCH   4  21
TORSDOF 4
