REMARK  Name = ZINC06968940
REMARK  4 active torsions:
REMARK  status: ('A' for Active; 'I' for Inactive)
REMARK    1  A    between atoms: C_6  and  S_7
REMARK    2  A    between atoms: S_7  and  N_10
REMARK    3  A    between atoms: C_16  and  C_18
REMARK    4  A    between atoms: C_23  and  O_24
REMARK                            x       y       z     vdW  Elec       q    Type
REMARK                         _______ _______ _______ _____ _____    ______ ____
ROOT
ATOM      1  N   UNL     1      -0.127   1.510   0.614  0.00  0.00    -0.174 NA
ATOM      2  C   UNL     1      -1.395   2.254   0.601  0.00  0.00    +0.128 C 
ATOM      3  C   UNL     1      -1.304   3.385   1.640  0.00  0.00    +0.125 C 
ATOM      4  N   UNL     1      -0.050   4.119   1.425  0.00  0.00    -0.295 N 
ATOM      5  C   UNL     1       1.217   3.375   1.432  0.00  0.00    +0.125 C 
ATOM      6  C   UNL     1       1.127   2.245   0.399  0.00  0.00    +0.128 C 
ATOM      7  C   UNL     1      -0.061   5.452   1.224  0.00  0.00    +0.250 C 
ATOM      8  O   UNL     1       0.987   6.060   1.122  0.00  0.00    -0.270 OA
ENDROOT
BRANCH   7   9
ATOM      9  C   UNL     1      -1.345   6.173   1.128  0.00  0.00    +0.080 A 
ATOM     10  C   UNL     1      -2.289   6.064   2.152  0.00  0.00    +0.036 A 
ATOM     11  C   UNL     1      -3.485   6.744   2.058  0.00  0.00    +0.042 A 
ATOM     12  C   UNL     1      -3.759   7.527   0.948  0.00  0.00    +0.023 A 
ATOM     13  C   UNL     1      -2.836   7.638  -0.073  0.00  0.00    +0.047 A 
ATOM     14  C   UNL     1      -1.626   6.965   0.007  0.00  0.00    +0.129 A 
ATOM     15 CL   UNL     1      -4.656   6.614   3.334  0.00  0.00    -0.084 Cl
BRANCH  14  16
ATOM     16  O   UNL     1      -0.718   7.074  -0.995  0.00  0.00    -0.506 OA
ATOM     17  H   UNL     1      -0.816   6.408  -1.688  0.00  0.00    +0.292 HD
ENDBRANCH  14  16
ENDBRANCH   7   9
BRANCH   1  18
ATOM     18  S   UNL     1      -0.114  -0.127   0.860  0.00  0.00    +0.061 S 
ATOM     19  O   UNL     1      -1.397  -0.606   0.480  0.00  0.00    -0.153 OA
ATOM     20  O   UNL     1       1.086  -0.616   0.274  0.00  0.00    -0.153 OA
BRANCH  18  26
ATOM     21  C   UNL     1       1.278  -0.507   3.177  0.00  0.00    +0.030 A 
ATOM     22  C   UNL     1       1.391  -0.710   4.539  0.00  0.00    +0.022 A 
ATOM     23  C   UNL     1       0.253  -0.809   5.320  0.00  0.00    +0.041 A 
ATOM     24  C   UNL     1      -0.997  -0.700   4.737  0.00  0.00    +0.022 A 
ATOM     25  C   UNL     1      -1.108  -0.492   3.375  0.00  0.00    +0.030 A 
ATOM     26  C   UNL     1       0.029  -0.393   2.595  0.00  0.00    +0.106 A 
ATOM     27 CL   UNL     1       0.394  -1.070   7.030  0.00  0.00    -0.084 Cl
ENDBRANCH  18  26
ENDBRANCH   1  18
TORSDOF 4
