REMARK  Name = ZINC10825346
REMARK  11 active torsions:
REMARK  status: ('A' for Active; 'I' for Inactive)
REMARK    1  A    between atoms: C_1  and  C_2
REMARK    2  A    between atoms: C_3  and  C_25
REMARK    3  A    between atoms: C_7  and  N_24
REMARK    4  A    between atoms: C_9  and  C_11
REMARK    5  A    between atoms: C_11  and  C_13
REMARK    6  A    between atoms: C_11  and  N_49
REMARK    7  A    between atoms: C_14  and  N_49
REMARK    8  A    between atoms: C_15  and  C_16
REMARK    9  A    between atoms: C_15  and  N_49
REMARK   10  A    between atoms: C_19  and  O_22
REMARK   11  A    between atoms: O_22  and  C_23
REMARK                            x       y       z     vdW  Elec       q    Type
REMARK                         _______ _______ _______ _____ _____    ______ ____
ROOT
ATOM      1  C   UNL     1       1.371  -4.061  -1.550  0.00  0.00    +0.045 C 
ATOM      2  C   UNL     1       0.243  -3.075  -1.387  0.00  0.00    -0.028 A 
ATOM      3  C   UNL     1      -1.032  -3.490  -1.430  0.00  0.00    -0.008 A 
ATOM      4  S   UNL     1      -1.967  -1.991  -1.194  0.00  0.00    -0.074 S 
ATOM      5  C   UNL     1      -0.620  -0.847  -1.044  0.00  0.00    +0.114 A 
ATOM      6  C   UNL     1       0.523  -1.665  -1.181  0.00  0.00    +0.050 A 
ATOM      7  C   UNL     1       1.771  -0.988  -1.099  0.00  0.00    +0.128 A 
ATOM      8  N   UNL     1       1.783   0.321  -0.905  0.00  0.00    -0.219 NA
ATOM      9  C   UNL     1       0.672   1.024  -0.784  0.00  0.00    +0.119 A 
ATOM     10  N   UNL     1      -0.515   0.453  -0.852  0.00  0.00    -0.226 NA
ATOM     11  C   UNL     1      -1.551  -4.891  -1.631  0.00  0.00    +0.052 C 
ENDROOT
BRANCH   7  12
ATOM     12  N   UNL     1       2.957  -1.690  -1.220  0.00  0.00    -0.343 N 
ATOM     13  H   UNL     1       3.004  -2.616  -0.936  0.00  0.00    +0.144 HD
ATOM     14  H   UNL     1       3.742  -1.255  -1.588  0.00  0.00    +0.144 HD
ENDBRANCH   7  12
BRANCH   9  15
ATOM     15  C   UNL     1       0.762   2.513  -0.565  0.00  0.00    -0.002 C 
ATOM     16  C   UNL     1       1.146   3.199  -1.878  0.00  0.00    -0.005 C 
BRANCH  15  18
ATOM     17  C   UNL     1       1.496   2.076   1.701  0.00  0.00    -0.095 C 
ATOM     18  N   UNL     1       1.808   2.787   0.443  0.00  0.00    +0.387 N 
ATOM     19  H   UNL     1       2.711   2.453   0.086  0.00  0.00    -0.081 HD
BRANCH  18  20
ATOM     20  C   UNL     1       1.899   4.241   0.693  0.00  0.00    -0.042 C 
BRANCH  20  21
ATOM     21  C   UNL     1       3.109   4.512   1.549  0.00  0.00    -0.064 A 
ATOM     22  C   UNL     1       2.989   4.532   2.926  0.00  0.00    +0.005 A 
ATOM     23  C   UNL     1       4.098   4.775   3.714  0.00  0.00    +0.046 A 
ATOM     24  C   UNL     1       5.330   5.010   3.121  0.00  0.00    +0.120 A 
ATOM     25  C   UNL     1       5.447   4.995   1.738  0.00  0.00    +0.046 A 
ATOM     26  C   UNL     1       4.336   4.746   0.956  0.00  0.00    +0.005 A 
BRANCH  24  27
ATOM     27  O   UNL     1       6.422   5.254   3.893  0.00  0.00    -0.495 OA
ATOM     28  C   UNL     1       6.228   5.254   5.309  0.00  0.00    +0.277 C 
ENDBRANCH  24  27
ENDBRANCH  20  21
ENDBRANCH  18  20
ENDBRANCH  15  18
ENDBRANCH   9  15
TORSDOF 6
