REMARK  Name = ZINC21529240
REMARK  7 active torsions:
REMARK  status: ('A' for Active; 'I' for Inactive)
REMARK    1  A    between atoms: C_1  and  C_2
REMARK    2  A    between atoms: C_7  and  C_9
REMARK    3  A    between atoms: C_7  and  C_10
REMARK    4  A    between atoms: N_13  and  C_17
REMARK    5  A    between atoms: C_17  and  C_18
REMARK    6  A    between atoms: N_27  and  C_30
REMARK    7  A    between atoms: C_30  and  C_31
REMARK                            x       y       z     vdW  Elec       q    Type
REMARK                         _______ _______ _______ _____ _____    ______ ____
ROOT
ATOM      1  C   UNL     1      -1.431  -5.488  -2.763  0.00  0.00    +0.237 C 
ATOM      2  O   UNL     1      -1.057  -5.765  -1.643  0.00  0.00    -0.274 OA
ATOM      3  N   UNL     1      -1.311  -6.390  -3.757  0.00  0.00    -0.263 N 
ATOM      4  C   UNL     1      -0.758  -7.639  -3.498  0.00  0.00    +0.165 A 
ATOM      5  N   UNL     1      -0.307  -8.113  -2.356  0.00  0.00    -0.229 NA
ATOM      6  C   UNL     1       0.199  -9.335  -2.257  0.00  0.00    +0.050 A 
ATOM      7  C   UNL     1       0.215 -10.046  -3.417  0.00  0.00    -0.002 A 
ATOM      8  S   UNL     1      -0.508  -8.916  -4.570  0.00  0.00    -0.059 S 
ATOM      9  C   UNL     1       0.725 -11.433  -3.610  0.00  0.00    -0.033 C 
ATOM     10  N   UNL     1       1.549 -11.788  -2.438  0.00  0.00    +0.386 N 
ATOM     11  C   UNL     1       0.808 -11.486  -1.206  0.00  0.00    -0.072 C 
ATOM     12  C   UNL     1       0.738  -9.972  -0.983  0.00  0.00    +0.038 C 
ATOM     13  H   UNL     1      -1.611  -6.169  -4.652  0.00  0.00    +0.157 HD
ATOM     14  H   UNL     1       2.405 -11.255  -2.454  0.00  0.00    -0.081 HD
ENDROOT
BRANCH   1  15
ATOM     15  C   UNL     1      -2.031  -4.134  -3.043  0.00  0.00    +0.214 C 
BRANCH  15  27
ATOM     16  C   UNL     1      -0.019   1.528   0.010  0.00  0.00    +0.007 C 
ATOM     17  C   UNL     1       0.002  -0.004   0.002  0.00  0.00    -0.011 C 
ATOM     18  C   UNL     1      -1.435  -0.529   0.021  0.00  0.00    +0.038 C 
ATOM     19  C   UNL     1      -1.427  -2.050  -0.036  0.00  0.00    +0.113 C 
ATOM     20  C   UNL     1      -0.575  -2.676   1.049  0.00  0.00    +0.041 C 
ATOM     21  C   UNL     1       0.782  -2.031   1.270  0.00  0.00    -0.032 C 
ATOM     22  C   UNL     1       0.719  -0.508   1.253  0.00  0.00    +0.009 C 
ATOM     23  C   UNL     1       1.296  -2.464   2.661  0.00  0.00    +0.011 C 
ATOM     24  C   UNL     1       1.795  -2.526   0.234  0.00  0.00    +0.011 C 
ATOM     25  C   UNL     1      -1.044  -2.534  -1.413  0.00  0.00    +0.247 C 
ATOM     26  O   UNL     1      -0.058  -2.253  -2.060  0.00  0.00    -0.273 OA
ATOM     27  N   UNL     1      -2.050  -3.344  -1.810  0.00  0.00    -0.215 N 
ATOM     28  C   UNL     1      -3.063  -3.331  -0.937  0.00  0.00    +0.310 C 
ATOM     29  O   UNL     1      -4.088  -3.969  -1.082  0.00  0.00    -0.252 OA
ATOM     30  N   UNL     1      -2.817  -2.537   0.119  0.00  0.00    -0.285 N 
ATOM     31  H   UNL     1      -3.418  -2.318   0.845  0.00  0.00    +0.151 HD
ENDBRANCH  15  27
ENDBRANCH   1  15
BRANCH  10  32
ATOM     32  C   UNL     1       1.865 -13.222  -2.479  0.00  0.00    -0.043 C 
BRANCH  32  33
ATOM     33  C   UNL     1       2.731 -13.511  -3.678  0.00  0.00    -0.064 A 
ATOM     34  C   UNL     1       2.149 -13.836  -4.889  0.00  0.00    +0.002 A 
ATOM     35  C   UNL     1       2.943 -14.101  -5.989  0.00  0.00    +0.000 A 
ATOM     36  C   UNL     1       4.320 -14.042  -5.878  0.00  0.00    +0.000 A 
ATOM     37  C   UNL     1       4.902 -13.717  -4.667  0.00  0.00    +0.000 A 
ATOM     38  C   UNL     1       4.108 -13.447  -3.568  0.00  0.00    +0.002 A 
ENDBRANCH  32  33
ENDBRANCH  10  32
TORSDOF 4
