REMARK  Name = ZINC66555447
REMARK  6 active torsions:
REMARK  status: ('A' for Active; 'I' for Inactive)
REMARK    1  A    between atoms: C_4  and  C_7
REMARK    2  A    between atoms: C_7  and  C_8
REMARK    3  A    between atoms: C_8  and  C_9
REMARK    4  A    between atoms: N_11  and  N_12
REMARK    5  A    between atoms: C_13  and  C_15
REMARK    6  A    between atoms: C_21  and  C_23
REMARK                            x       y       z     vdW  Elec       q    Type
REMARK                         _______ _______ _______ _____ _____    ______ ____
ROOT
ATOM      1  N   UNL     1       4.578  -4.213  -5.103  0.00  0.00    -0.234 N 
ATOM      2  C   UNL     1       4.817  -5.532  -5.249  0.00  0.00    +0.233 C 
ATOM      3  O   UNL     1       4.457  -6.312  -4.394  0.00  0.00    -0.274 OA
ATOM      4  H   UNL     1       4.866  -3.589  -5.787  0.00  0.00    +0.173 HD
ENDROOT
BRANCH   2   5
ATOM      5  C   UNL     1       5.534  -6.036  -6.476  0.00  0.00    +0.088 C 
ATOM      6  C   UNL     1       4.670  -7.088  -7.174  0.00  0.00    +0.013 C 
ATOM      7  C   UNL     1       4.414  -8.254  -6.218  0.00  0.00    +0.001 C 
ATOM      8  C   UNL     1       5.748  -8.880  -5.808  0.00  0.00    +0.001 C 
ATOM      9  C   UNL     1       6.612  -7.828  -5.109  0.00  0.00    +0.013 C 
ATOM     10  C   UNL     1       6.868  -6.662  -6.065  0.00  0.00    +0.105 C 
BRANCH  10  11
ATOM     11  C   UNL     1       7.732  -5.609  -5.367  0.00  0.00    +0.394 C 
ATOM     12  F   UNL     1       7.131  -5.242  -4.158  0.00  0.00    -0.170 F 
ATOM     13  F   UNL     1       9.001  -6.141  -5.114  0.00  0.00    -0.170 F 
ATOM     14  F   UNL     1       7.852  -4.484  -6.189  0.00  0.00    -0.170 F 
ENDBRANCH  10  11
ENDBRANCH   2   5
BRANCH   1  17
ATOM     15  C   UNL     1       3.672  -2.427  -3.817  0.00  0.00    +0.229 C 
ATOM     16  O   UNL     1       4.033  -1.646  -4.672  0.00  0.00    -0.274 OA
ATOM     17  N   UNL     1       3.912  -3.745  -3.963  0.00  0.00    -0.234 N 
ATOM     18  H   UNL     1       3.623  -4.369  -3.279  0.00  0.00    +0.173 HD
BRANCH  15  19
ATOM     19  C   UNL     1       2.956  -1.923  -2.591  0.00  0.00    +0.097 C 
BRANCH  19  20
ATOM     20  C   UNL     1       2.813  -0.401  -2.672  0.00  0.00    +0.013 C 
BRANCH  20  24
ATOM     21  C   UNL     1      -0.106   1.611  -0.191  0.00  0.00    +0.000 C 
ATOM     22  C   UNL     1       1.325   2.152  -0.204  0.00  0.00    +0.000 C 
ATOM     23  C   UNL     1       2.053   1.640  -1.449  0.00  0.00    +0.003 C 
ATOM     24  C   UNL     1       2.085   0.110  -1.427  0.00  0.00    -0.011 C 
ATOM     25  C   UNL     1       0.654  -0.430  -1.415  0.00  0.00    +0.003 C 
ATOM     26  C   UNL     1      -0.073   0.081  -0.170  0.00  0.00    +0.000 C 
ENDBRANCH  20  24
ENDBRANCH  19  20
ENDBRANCH  15  19
ENDBRANCH   1  17
TORSDOF 6
