REMARK  Name = ZINC12465925
REMARK  8 active torsions:
REMARK  status: ('A' for Active; 'I' for Inactive)
REMARK    1  A    between atoms: C_1  and  O_2
REMARK    2  A    between atoms: O_2  and  C_3
REMARK    3  A    between atoms: C_6  and  O_36
REMARK    4  A    between atoms: C_7  and  N_9
REMARK    5  A    between atoms: C_10  and  C_12
REMARK    6  A    between atoms: C_17  and  C_32
REMARK    7  A    between atoms: C_20  and  C_23
REMARK    8  A    between atoms: O_36  and  C_37
REMARK                            x       y       z     vdW  Elec       q    Type
REMARK                         _______ _______ _______ _____ _____    ______ ____
ROOT
ATOM      1  C   UNL     1       1.019  -6.220  -1.295  0.00  0.00    +0.149 A 
ATOM      2  C   UNL     1       0.581  -7.121  -0.298  0.00  0.00    +0.078 A 
ATOM      3  C   UNL     1       0.908  -8.365  -0.703  0.00  0.00    +0.119 A 
ATOM      4  N   UNL     1       1.535  -8.268  -1.912  0.00  0.00    -0.238 N 
ATOM      5  N   UNL     1       1.585  -6.919  -2.263  0.00  0.00    -0.164 NA
ATOM      6  C   UNL     1       2.041  -9.422  -2.661  0.00  0.00    +0.215 C 
ATOM      7  C   UNL     1       2.194 -10.607  -1.701  0.00  0.00    +0.063 C 
ATOM      8  C   UNL     1       0.905 -10.796  -0.894  0.00  0.00    +0.104 C 
ATOM      9  N   UNL     1       0.687  -9.591  -0.069  0.00  0.00    -0.322 N 
ATOM     10  H   UNL     1       0.408  -9.647   0.858  0.00  0.00    +0.148 HD
ENDROOT
BRANCH   8  11
ATOM     11  C   UNL     1       1.036 -12.005  -0.005  0.00  0.00    -0.024 A 
ATOM     12  C   UNL     1       1.723 -11.911   1.191  0.00  0.00    +0.009 A 
ATOM     13  C   UNL     1       1.846 -13.018   2.010  0.00  0.00    +0.050 A 
ATOM     14  C   UNL     1       1.281 -14.226   1.633  0.00  0.00    +0.166 A 
ATOM     15  C   UNL     1       0.590 -14.321   0.428  0.00  0.00    +0.167 A 
ATOM     16  C   UNL     1       0.466 -13.206  -0.385  0.00  0.00    +0.055 A 
ATOM     17  O   UNL     1       0.134 -15.599   0.286  0.00  0.00    -0.453 OA
ATOM     18  C   UNL     1       0.900 -16.386   1.217  0.00  0.00    +0.466 C 
ATOM     19  O   UNL     1       1.258 -15.445   2.246  0.00  0.00    -0.453 OA
ENDBRANCH   8  11
BRANCH   1  21
ATOM     20  N   UNL     1       1.324  -4.003  -2.285  0.00  0.00    -0.277 N 
ATOM     21  C   UNL     1       0.864  -4.751  -1.263  0.00  0.00    +0.268 C 
ATOM     22  O   UNL     1       0.323  -4.217  -0.314  0.00  0.00    -0.268 OA
ATOM     23  H   UNL     1       1.683  -4.432  -3.078  0.00  0.00    +0.155 HD
BRANCH  20  28
ATOM     24  C   UNL     1       1.228  -0.598  -0.888  0.00  0.00    +0.122 A 
ATOM     25  C   UNL     1       1.201   0.162  -2.048  0.00  0.00    +0.049 A 
ATOM     26  C   UNL     1       1.214  -0.457  -3.284  0.00  0.00    +0.051 A 
ATOM     27  C   UNL     1       1.255  -1.839  -3.367  0.00  0.00    +0.141 A 
ATOM     28  C   UNL     1       1.283  -2.605  -2.204  0.00  0.00    +0.079 A 
ATOM     29  C   UNL     1       1.274  -1.981  -0.966  0.00  0.00    +0.072 A 
BRANCH  24  31
ATOM     30  C   UNL     1       1.167   1.443   0.331  0.00  0.00    +0.277 C 
ATOM     31  O   UNL     1       1.215   0.015   0.326  0.00  0.00    -0.495 OA
ENDBRANCH  24  31
BRANCH  27  32
ATOM     32  O   UNL     1       1.268  -2.448  -4.584  0.00  0.00    -0.493 OA
ATOM     33  C   UNL     1       1.237  -1.600  -5.734  0.00  0.00    +0.277 C 
ENDBRANCH  27  32
ENDBRANCH  20  28
ENDBRANCH   1  21
BRANCH   6  34
ATOM     34  C   UNL     1       3.399  -9.079  -3.277  0.00  0.00    +0.412 C 
ATOM     35  F   UNL     1       4.302  -8.752  -2.260  0.00  0.00    -0.168 F 
ATOM     36  F   UNL     1       3.879 -10.182  -3.991  0.00  0.00    -0.168 F 
ATOM     37  F   UNL     1       3.256  -7.989  -4.142  0.00  0.00    -0.168 F 
ENDBRANCH   6  34
TORSDOF 6
