REMARK  Name = ZINC21081991
REMARK  11 active torsions:
REMARK  status: ('A' for Active; 'I' for Inactive)
REMARK    1  A    between atoms: C_1  and  C_2
REMARK    2  A    between atoms: C_2  and  C_3
REMARK    3  A    between atoms: C_3  and  C_5
REMARK    4  A    between atoms: C_3  and  S_6
REMARK    5  A    between atoms: S_6  and  C_7
REMARK    6  A    between atoms: C_13  and  C_15
REMARK    7  A    between atoms: C_15  and  S_16
REMARK    8  A    between atoms: S_16  and  C_17
REMARK    9  A    between atoms: N_22  and  N_23
REMARK   10  A    between atoms: C_24  and  C_25
REMARK   11  A    between atoms: C_24  and  C_26
REMARK                            x       y       z     vdW  Elec       q    Type
REMARK                         _______ _______ _______ _____ _____    ______ ____
ROOT
ATOM      1  C   UNL     1       1.083   1.784   0.001  0.00  0.00    +0.211 A 
ATOM      2  N   UNL     1      -0.011   0.966   0.007  0.00  0.00    -0.186 NA
ATOM      3  C   UNL     1      -1.128   1.754   0.016  0.00  0.00    +0.232 A 
ATOM      4  N   UNL     1      -0.740   3.006   0.025  0.00  0.00    -0.245 N 
ATOM      5  N   UNL     1       0.661   3.026   0.012  0.00  0.00    -0.144 NA
ATOM      6  N   UNL     1      -2.442   1.308   0.019  0.00  0.00    -0.205 N 
ATOM      7  H   UNL     1      -2.656   0.229   0.014  0.00  0.00    +0.177 HD
ATOM      8  H   UNL     1      -1.487   3.814   0.041  0.00  0.00    +0.192 HD
ENDROOT
BRANCH   6   9
ATOM      9  N   UNL     1      -3.495   2.231   0.028  0.00  0.00    -0.184 NA
ATOM     10  C   UNL     1      -4.725   1.813   0.031  0.00  0.00    +0.063 C 
ATOM     11  C   UNL     1      -5.018   0.335   0.023  0.00  0.00    +0.068 C 
BRANCH  10  12
ATOM     12  C   UNL     1      -5.834   2.784   0.041  0.00  0.00    -0.002 A 
ATOM     13  C   UNL     1      -7.158   2.337   0.037  0.00  0.00    +0.012 A 
ATOM     14  C   UNL     1      -8.191   3.251   0.053  0.00  0.00    +0.039 A 
ATOM     15  C   UNL     1      -7.918   4.610   0.059  0.00  0.00    +0.123 A 
ATOM     16  C   UNL     1      -6.606   5.059   0.057  0.00  0.00    +0.039 A 
ATOM     17  C   UNL     1      -5.565   4.155   0.048  0.00  0.00    +0.012 A 
ATOM     18  F   UNL     1      -8.934   5.500   0.069  0.00  0.00    -0.205 F 
ENDBRANCH  10  12
ENDBRANCH   6   9
BRANCH   1  19
ATOM     19  S   UNL     1       2.766   1.262  -0.017  0.00  0.00    -0.075 S 
BRANCH  19  20
ATOM     20  C   UNL     1       3.706   2.813  -0.018  0.00  0.00    +0.173 C 
BRANCH  20  27
ATOM     21  C   UNL     1      10.100   3.056  -0.075  0.00  0.00    +0.160 A 
ATOM     22  N   UNL     1       9.327   1.980  -0.073  0.00  0.00    -0.133 NA
ATOM     23  N   UNL     1       8.069   2.062  -0.056  0.00  0.00    -0.125 NA
ATOM     24  C   UNL     1       7.443   3.228  -0.050  0.00  0.00    +0.189 A 
ATOM     25  S   UNL     1       8.849   4.336  -0.058  0.00  0.00    -0.024 S 
ATOM     26  N   UNL     1       6.079   3.512  -0.036  0.00  0.00    -0.263 N 
ATOM     27  C   UNL     1       5.182   2.506  -0.033  0.00  0.00    +0.229 C 
ATOM     28  O   UNL     1       5.561   1.354  -0.042  0.00  0.00    -0.275 OA
ATOM     29  H   UNL     1       5.735   4.556  -0.028  0.00  0.00    +0.157 HD
BRANCH  21  30
ATOM     30  S   UNL     1      11.857   3.189  -0.091  0.00  0.00    -0.094 S 
BRANCH  30  31
ATOM     31  C   UNL     1      12.427   1.467  -0.104  0.00  0.00    +0.050 C 
ATOM     32  C   UNL     1      12.021   0.784   1.203  0.00  0.00    +0.019 C 
BRANCH  31  34
ATOM     33  C   UNL     1      14.349   2.004  -1.607  0.00  0.00    +0.005 C 
ATOM     34  C   UNL     1      13.950   1.435  -0.244  0.00  0.00    +0.011 C 
ENDBRANCH  31  34
ENDBRANCH  30  31
ENDBRANCH  21  30
ENDBRANCH  20  27
ENDBRANCH  19  20
ENDBRANCH   1  19
TORSDOF 8
