REMARK  Name = ZINC39016488
REMARK  6 active torsions:
REMARK  status: ('A' for Active; 'I' for Inactive)
REMARK    1  A    between atoms: C_2  and  C_3
REMARK    2  A    between atoms: C_3  and  C_4
REMARK    3  A    between atoms: C_8  and  C_11
REMARK    4  A    between atoms: C_9  and  O_10
REMARK    5  A    between atoms: N_12  and  N_13
REMARK    6  A    between atoms: C_14  and  C_20
REMARK                            x       y       z     vdW  Elec       q    Type
REMARK                         _______ _______ _______ _____ _____    ______ ____
ROOT
ATOM      1  N   UNL     1      -0.741  -6.884   0.709  0.00  0.00    -0.172 N 
ATOM      2  C   UNL     1      -1.302  -7.507  -0.503  0.00  0.00    +0.264 C 
ATOM      3  N   UNL     1      -1.610  -8.883  -0.082  0.00  0.00    -0.189 NA
ATOM      4  N   UNL     1      -1.290  -9.001   1.103  0.00  0.00    -0.219 N 
ATOM      5  C   UNL     1      -0.765  -7.866   1.637  0.00  0.00    +0.174 C 
ATOM      6  S   UNL     1      -0.217  -7.703   3.251  0.00  0.00    -0.015 S 
ATOM      7  H   UNL     1      -1.399  -9.824   1.605  0.00  0.00    +0.176 HD
ENDROOT
BRANCH   2   8
ATOM      8  C   UNL     1      -2.556  -6.790  -0.934  0.00  0.00    -0.002 A 
ATOM      9  C   UNL     1      -2.702  -5.439  -0.678  0.00  0.00    +0.009 A 
ATOM     10  C   UNL     1      -3.852  -4.781  -1.073  0.00  0.00    +0.020 A 
ATOM     11  C   UNL     1      -4.856  -5.475  -1.725  0.00  0.00    +0.041 A 
ATOM     12  C   UNL     1      -4.709  -6.826  -1.981  0.00  0.00    +0.020 A 
ATOM     13  C   UNL     1      -3.557  -7.482  -1.591  0.00  0.00    +0.009 A 
ATOM     14 CL   UNL     1      -6.300  -4.649  -2.221  0.00  0.00    -0.084 Cl
ENDBRANCH   2   8
BRANCH   1  16
ATOM     15  C   UNL     1       0.298  -5.210   1.969  0.00  0.00    +0.142 C 
ATOM     16  N   UNL     1      -0.280  -5.570   0.863  0.00  0.00    -0.183 NA
BRANCH  15  21
ATOM     17  C   UNL     1       1.371  -1.703   1.138  0.00  0.00    -0.002 A 
ATOM     18  C   UNL     1       1.984  -1.327   2.319  0.00  0.00    +0.007 A 
ATOM     19  C   UNL     1       2.051  -2.209   3.384  0.00  0.00    +0.001 A 
ATOM     20  C   UNL     1       1.505  -3.471   3.278  0.00  0.00    +0.013 A 
ATOM     21  C   UNL     1       0.883  -3.863   2.090  0.00  0.00    +0.036 A 
ATOM     22  C   UNL     1       0.813  -2.965   1.016  0.00  0.00    +0.129 A 
BRANCH  22  23
ATOM     23  O   UNL     1       0.206  -3.333  -0.142  0.00  0.00    -0.506 OA
ATOM     24  H   UNL     1       0.800  -3.749  -0.782  0.00  0.00    +0.292 HD
ENDBRANCH  22  23
BRANCH  17  25
ATOM     25  C   UNL     1       1.304  -0.736  -0.015  0.00  0.00    +0.065 C 
BRANCH  25  27
ATOM     26  C   UNL     1      -0.029   1.309   0.034  0.00  0.00    +0.004 C 
ATOM     27  C   UNL     1      -0.011  -0.001   0.021  0.00  0.00    -0.030 C 
ENDBRANCH  25  27
ENDBRANCH  17  25
ENDBRANCH  15  21
ENDBRANCH   1  16
TORSDOF 6
