REMARK  Name = ZINC50329344
REMARK  4 active torsions:
REMARK  status: ('A' for Active; 'I' for Inactive)
REMARK    1  A    between atoms: C_1  and  C_2
REMARK    2  A    between atoms: C_5  and  C_7
REMARK    3  A    between atoms: C_7  and  C_9
REMARK    4  A    between atoms: C_7  and  O_14
REMARK                            x       y       z     vdW  Elec       q    Type
REMARK                         _______ _______ _______ _____ _____    ______ ____
ROOT
ATOM      1  C   UNL     1       1.445  -2.008   0.864  0.00  0.00    +0.144 C 
ENDROOT
BRANCH   1   2
ATOM      2  C   UNL     1       2.060  -2.543   2.132  0.00  0.00    -0.045 C 
ATOM      3  C   UNL     1       3.344  -2.645   2.344  0.00  0.00    -0.025 C 
ATOM      4  C   UNL     1       3.625  -3.218   3.714  0.00  0.00    +0.027 C 
ATOM      5  C   UNL     1       2.293  -3.067   4.484  0.00  0.00    +0.008 C 
ATOM      6  C   UNL     1       1.271  -3.026   3.327  0.00  0.00    +0.033 C 
ENDBRANCH   1   2
BRANCH   1  10
ATOM      7  C   UNL     1      -0.019   1.526   0.010  0.00  0.00    +0.008 C 
ATOM      8  C   UNL     1       0.002  -0.004   0.002  0.00  0.00    -0.008 C 
ATOM      9  C   UNL     1      -0.828  -0.728   1.065  0.00  0.00    +0.010 C 
ATOM     10  C   UNL     1       0.700  -0.708   1.168  0.00  0.00    +0.025 C 
ENDBRANCH   1  10
BRANCH   1  11
ATOM     11  O   UNL     1       0.530  -2.970   0.336  0.00  0.00    -0.387 OA
ATOM     12  H   UNL     1      -0.197  -3.191   0.934  0.00  0.00    +0.210 HD
ENDBRANCH   1  11
TORSDOF 3
