REMARK  Name = ZINC32124232
REMARK  11 active torsions:
REMARK  status: ('A' for Active; 'I' for Inactive)
REMARK    1  A    between atoms: C_1  and  O_2
REMARK    2  A    between atoms: O_2  and  C_3
REMARK    3  A    between atoms: C_6  and  C_9
REMARK    4  A    between atoms: N_22  and  C_23
REMARK    5  A    between atoms: C_23  and  C_25
REMARK    6  A    between atoms: C_23  and  C_29
REMARK    7  A    between atoms: C_25  and  C_26
REMARK    8  A    between atoms: C_26  and  S_27
REMARK    9  A    between atoms: S_27  and  C_28
REMARK   10  A    between atoms: C_29  and  O_31
REMARK   11  A    between atoms: O_31  and  C_32
REMARK                            x       y       z     vdW  Elec       q    Type
REMARK                         _______ _______ _______ _____ _____    ______ ____
ROOT
ATOM      1  C   UNL     1       2.599  -2.555   4.319  0.00  0.00    +0.156 C 
ATOM      2  C   UNL     1       3.925  -3.119   3.866  0.00  0.00    +0.062 A 
ATOM      3  C   UNL     1       4.160  -4.439   3.700  0.00  0.00    +0.040 A 
ATOM      4  N   UNL     1       5.452  -4.562   3.284  0.00  0.00    -0.349 N 
ATOM      5  H   UNL     1       5.914  -5.390   3.078  0.00  0.00    +0.166 HD
ATOM      6  C   UNL     1       5.967  -3.313   3.213  0.00  0.00    +0.171 A 
ATOM      7  N   UNL     1       5.043  -2.457   3.565  0.00  0.00    -0.348 N 
ATOM      8  C   UNL     1       3.152  -5.530   3.946  0.00  0.00    +0.074 C 
ATOM      9  C   UNL     1       1.749  -4.912   3.971  0.00  0.00    +0.116 C 
ATOM     10  N   UNL     1       1.776  -3.686   4.785  0.00  0.00    -0.273 N 
ATOM     11  C   UNL     1       1.070  -3.599   5.930  0.00  0.00    +0.304 C 
ATOM     12  O   UNL     1       0.474  -4.571   6.352  0.00  0.00    -0.253 OA
ATOM     13  N   UNL     1       1.022  -2.434   6.606  0.00  0.00    -0.286 N 
ATOM     14  H   UNL     1       1.434  -1.639   6.232  0.00  0.00    +0.151 HD
ATOM     15  H   UNL     1       5.154  -1.494   3.600  0.00  0.00    +0.167 HD
ENDROOT
BRANCH   1  19
ATOM     16  C   UNL     1       0.661  -0.598   1.051  0.00  0.00    +0.120 A 
ATOM     17  C   UNL     1       0.858   0.076   2.247  0.00  0.00    +0.046 A 
ATOM     18  C   UNL     1       1.484  -0.558   3.302  0.00  0.00    +0.009 A 
ATOM     19  C   UNL     1       1.915  -1.865   3.166  0.00  0.00    -0.021 A 
ATOM     20  C   UNL     1       1.721  -2.540   1.975  0.00  0.00    +0.009 A 
ATOM     21  C   UNL     1       1.090  -1.911   0.919  0.00  0.00    +0.046 A 
BRANCH  16  23
ATOM     22  C   UNL     1      -0.369   1.376   0.218  0.00  0.00    +0.277 C 
ATOM     23  O   UNL     1       0.045   0.024   0.011  0.00  0.00    -0.495 OA
ENDBRANCH  16  23
ENDBRANCH   1  19
BRANCH  13  24
ATOM     24  C   UNL     1       0.350  -2.368   7.906  0.00  0.00    +0.184 C 
BRANCH  24  25
ATOM     25  C   UNL     1      -1.125  -2.140   7.697  0.00  0.00    +0.327 C 
ATOM     26  O   UNL     1      -1.569  -2.043   6.578  0.00  0.00    -0.249 OA
BRANCH  25  27
ATOM     27  O   UNL     1      -1.946  -2.046   8.755  0.00  0.00    -0.467 OA
ATOM     28  C   UNL     1      -3.332  -1.829   8.484  0.00  0.00    +0.280 C 
ENDBRANCH  25  27
ENDBRANCH  24  25
BRANCH  24  29
ATOM     29  C   UNL     1       0.933  -1.215   8.724  0.00  0.00    +0.044 C 
BRANCH  29  30
ATOM     30  C   UNL     1       2.401  -1.507   9.042  0.00  0.00    +0.071 C 
BRANCH  30  31
ATOM     31  S   UNL     1       3.093  -0.139  10.013  0.00  0.00    -0.164 S 
ATOM     32  C   UNL     1       4.814  -0.633  10.303  0.00  0.00    +0.084 C 
ENDBRANCH  30  31
ENDBRANCH  29  30
ENDBRANCH  24  29
ENDBRANCH  13  24
TORSDOF 8
