REMARK  Name = ZINC04366150
REMARK  6 active torsions:
REMARK  status: ('A' for Active; 'I' for Inactive)
REMARK    1  A    between atoms: C_1  and  C_2
REMARK    2  A    between atoms: C_5  and  N_8
REMARK    3  A    between atoms: C_9  and  C_22
REMARK    4  A    between atoms: C_12  and  S_13
REMARK    5  A    between atoms: S_13  and  C_14
REMARK    6  A    between atoms: C_14  and  C_15
REMARK                            x       y       z     vdW  Elec       q    Type
REMARK                         _______ _______ _______ _____ _____    ______ ____
ROOT
ATOM      1  N   UNL     1       1.250  -5.499  -2.405  0.00  0.00    -0.274 N 
ATOM      2  C   UNL     1       1.272  -6.684  -1.719  0.00  0.00    +0.142 A 
ATOM      3  N   UNL     1       1.280  -6.397  -0.448  0.00  0.00    -0.133 NA
ATOM      4  N   UNL     1       1.270  -5.122  -0.283  0.00  0.00    -0.122 NA
ATOM      5  C   UNL     1       1.246  -4.520  -1.449  0.00  0.00    +0.196 A 
ENDROOT
BRANCH   1  10
ATOM      6  C   UNL     1       1.186  -4.793  -8.037  0.00  0.00    +0.044 C 
ATOM      7  C   UNL     1       1.203  -4.981  -6.541  0.00  0.00    -0.050 A 
ATOM      8  C   UNL     1       2.291  -4.550  -5.804  0.00  0.00    +0.005 A 
ATOM      9  C   UNL     1       2.309  -4.720  -4.434  0.00  0.00    +0.026 A 
ATOM     10  C   UNL     1       1.234  -5.324  -3.796  0.00  0.00    +0.050 A 
ATOM     11  C   UNL     1       0.146  -5.761  -4.540  0.00  0.00    +0.026 A 
ATOM     12  C   UNL     1       0.131  -5.583  -5.909  0.00  0.00    +0.005 A 
ENDBRANCH   1  10
BRANCH   2  13
ATOM     13  C   UNL     1       1.284  -8.065  -2.323  0.00  0.00    +0.057 C 
ATOM     14  C   UNL     1       1.103  -9.252  -1.375  0.00  0.00    +0.012 C 
ATOM     15  C   UNL     1       2.474  -8.969  -1.994  0.00  0.00    +0.012 C 
ENDBRANCH   2  13
BRANCH   5  16
ATOM     16  S   UNL     1       1.220  -2.781  -1.730  0.00  0.00    -0.081 S 
BRANCH  16  17
ATOM     17  C   UNL     1       1.228  -2.186  -0.020  0.00  0.00    +0.112 C 
BRANCH  17  18
ATOM     18  C   UNL     1       1.208  -0.679  -0.013  0.00  0.00    -0.037 A 
ATOM     19  C   UNL     1       0.002  -0.004   0.002  0.00  0.00    +0.006 A 
ATOM     20  C   UNL     1      -0.017   1.378   0.010  0.00  0.00    +0.020 A 
ATOM     21  C   UNL     1       1.172   2.086   0.002  0.00  0.00    +0.041 A 
ATOM     22  C   UNL     1       2.379   1.409  -0.013  0.00  0.00    +0.020 A 
ATOM     23  C   UNL     1       2.397   0.027  -0.020  0.00  0.00    +0.006 A 
ATOM     24 CL   UNL     1       1.149   3.821   0.011  0.00  0.00    -0.084 Cl
ENDBRANCH  17  18
ENDBRANCH  16  17
ENDBRANCH   5  16
TORSDOF 5
