REMARK  Name = ZINC40986334
REMARK  10 active torsions:
REMARK  status: ('A' for Active; 'I' for Inactive)
REMARK    1  A    between atoms: C_1  and  C_2
REMARK    2  A    between atoms: C_2  and  C_3
REMARK    3  A    between atoms: C_6  and  C_9
REMARK    4  A    between atoms: C_9  and  C_11
REMARK    5  A    between atoms: C_9  and  N_32
REMARK    6  A    between atoms: C_11  and  N_12
REMARK    7  A    between atoms: C_13  and  C_15
REMARK    8  A    between atoms: C_18  and  S_22
REMARK    9  A    between atoms: S_22  and  C_25
REMARK   10  A    between atoms: C_25  and  C_26
REMARK                            x       y       z     vdW  Elec       q    Type
REMARK                         _______ _______ _______ _____ _____    ______ ____
ROOT
ATOM      1  N   UNL     1       1.614  -4.077  -4.609  0.00  0.00    -0.312 N 
ATOM      2  C   UNL     1       1.544  -5.415  -4.472  0.00  0.00    +0.248 C 
ATOM      3  O   UNL     1       2.563  -6.078  -4.449  0.00  0.00    -0.270 OA
ATOM      4  H   UNL     1       0.801  -3.548  -4.628  0.00  0.00    +0.149 HD
ENDROOT
BRANCH   2   5
ATOM      5  C   UNL     1       0.230  -6.078  -4.349  0.00  0.00    +0.092 A 
ATOM      6  C   UNL     1      -0.956  -5.336  -4.379  0.00  0.00    +0.130 A 
ATOM      7  N   UNL     1      -2.110  -5.970  -4.267  0.00  0.00    -0.219 NA
ATOM      8  C   UNL     1      -2.155  -7.280  -4.128  0.00  0.00    +0.272 A 
ATOM      9  N   UNL     1      -1.064  -8.020  -4.094  0.00  0.00    -0.199 NA
ATOM     10  C   UNL     1       0.134  -7.469  -4.205  0.00  0.00    +0.146 A 
ATOM     11 CL   UNL     1       1.564  -8.453  -4.167  0.00  0.00    -0.061 Cl
BRANCH   8  12
ATOM     12  S   UNL     1      -3.724  -8.069  -3.982  0.00  0.00    +0.036 S 
ATOM     13  O   UNL     1      -3.462  -9.266  -3.261  0.00  0.00    -0.166 OA
ATOM     14  O   UNL     1      -4.582  -7.073  -3.445  0.00  0.00    -0.166 OA
BRANCH  12  15
ATOM     15  C   UNL     1      -4.209  -8.460  -5.685  0.00  0.00    +0.210 C 
BRANCH  15  16
ATOM     16  C   UNL     1      -5.552  -9.145  -5.681  0.00  0.00    -0.026 A 
ATOM     17  C   UNL     1      -5.625 -10.522  -5.583  0.00  0.00    +0.005 A 
ATOM     18  C   UNL     1      -6.856 -11.151  -5.579  0.00  0.00    +0.000 A 
ATOM     19  C   UNL     1      -8.014 -10.402  -5.671  0.00  0.00    +0.000 A 
ATOM     20  C   UNL     1      -7.941  -9.025  -5.767  0.00  0.00    +0.000 A 
ATOM     21  C   UNL     1      -6.710  -8.396  -5.767  0.00  0.00    +0.005 A 
ENDBRANCH  15  16
ENDBRANCH  12  15
ENDBRANCH   8  12
ENDBRANCH   2   5
BRANCH   1  22
ATOM     22  C   UNL     1       2.917  -3.419  -4.731  0.00  0.00    +0.094 C 
BRANCH  22  23
ATOM     23  C   UNL     1       2.725  -1.901  -4.740  0.00  0.00    -0.020 C 
BRANCH  23  24
ATOM     24  N   UNL     1       4.021  -1.244  -4.954  0.00  0.00    +0.385 N 
ATOM     25  C   UNL     1       3.843   0.212  -4.907  0.00  0.00    -0.078 C 
ATOM     26  C   UNL     1       5.203   0.900  -5.048  0.00  0.00    -0.019 C 
ATOM     27  C   UNL     1       5.833   0.504  -6.386  0.00  0.00    -0.004 C 
ATOM     28  C   UNL     1       5.945  -1.021  -6.455  0.00  0.00    -0.019 C 
ATOM     29  C   UNL     1       4.558  -1.639  -6.262  0.00  0.00    -0.078 C 
ATOM     30  H   UNL     1       4.663  -1.527  -4.229  0.00  0.00    -0.081 HD
ENDBRANCH  23  24
BRANCH  23  34
ATOM     31  C   UNL     1       1.094  -0.652  -0.995  0.00  0.00    -0.048 A 
ATOM     32  C   UNL     1       0.268  -0.798  -2.094  0.00  0.00    +0.004 A 
ATOM     33  C   UNL     1       0.796  -1.202  -3.306  0.00  0.00    +0.002 A 
ATOM     34  C   UNL     1       2.149  -1.460  -3.419  0.00  0.00    -0.059 A 
ATOM     35  C   UNL     1       2.975  -1.314  -2.320  0.00  0.00    +0.002 A 
ATOM     36  C   UNL     1       2.448  -0.906  -1.109  0.00  0.00    +0.004 A 
BRANCH  31  38
ATOM     37  C   UNL     1       0.551   1.315   0.413  0.00  0.00    +0.009 C 
ATOM     38  C   UNL     1       0.518  -0.212   0.326  0.00  0.00    +0.032 C 
ENDBRANCH  31  38
ENDBRANCH  23  34
ENDBRANCH  22  23
ENDBRANCH   1  22
TORSDOF 9
