REMARK  Name = ZINC19894202
REMARK  5 active torsions:
REMARK  status: ('A' for Active; 'I' for Inactive)
REMARK    1  A    between atoms: C_1  and  C_2
REMARK    2  A    between atoms: C_5  and  N_8
REMARK    3  A    between atoms: C_12  and  N_16
REMARK    4  A    between atoms: N_16  and  C_17
REMARK    5  A    between atoms: C_23  and  C_25
REMARK                            x       y       z     vdW  Elec       q    Type
REMARK                         _______ _______ _______ _____ _____    ______ ____
ROOT
ATOM      1  N   UNL     1      -1.595  -8.727   0.362  0.00  0.00    -0.302 NA
ATOM      2  H   UNL     1      -2.509  -8.319   0.232  0.00  0.00    +0.123 HD
ENDROOT
BRANCH   1   3
ATOM      3  C   UNL     1      -1.194  -8.681   1.774  0.00  0.00    +0.057 C 
ATOM      4  C   UNL     1      -0.254  -9.851   2.076  0.00  0.00    +0.037 C 
ATOM      5  C   UNL     1       0.190  -9.780   3.540  0.00  0.00    +0.109 C 
ATOM      6  N   UNL     1      -1.005  -9.730   4.394  0.00  0.00    -0.301 N 
ATOM      7  C   UNL     1      -2.018  -8.698   4.132  0.00  0.00    +0.109 C 
ATOM      8  C   UNL     1      -2.437  -8.781   2.661  0.00  0.00    +0.037 C 
ATOM      9  C   UNL     1      -1.168 -10.613   5.399  0.00  0.00    +0.219 C 
ATOM     10  O   UNL     1      -0.289 -11.407   5.657  0.00  0.00    -0.275 OA
BRANCH   9  11
ATOM     11  C   UNL     1      -2.444 -10.614   6.201  0.00  0.00    +0.075 C 
ATOM     12  C   UNL     1      -2.401  -9.482   7.229  0.00  0.00    +0.013 C 
ATOM     13  C   UNL     1      -3.696  -9.483   8.044  0.00  0.00    +0.001 C 
ATOM     14  C   UNL     1      -3.842 -10.823   8.767  0.00  0.00    +0.000 C 
ATOM     15  C   UNL     1      -3.885 -11.956   7.740  0.00  0.00    +0.001 C 
ATOM     16  C   UNL     1      -2.590 -11.954   6.925  0.00  0.00    +0.013 C 
ENDBRANCH   9  11
ENDBRANCH   1   3
BRANCH   1  21
ATOM     17  N   UNL     1      -1.142  -6.346  -1.960  0.00  0.00    -0.209 N 
ATOM     18  C   UNL     1      -1.017  -7.411  -2.761  0.00  0.00    +0.228 C 
ATOM     19  O   UNL     1      -1.166  -7.405  -3.964  0.00  0.00    -0.275 OA
ATOM     20  C   UNL     1      -0.658  -8.621  -1.928  0.00  0.00    +0.125 C 
ATOM     21  C   UNL     1      -0.598  -8.066  -0.490  0.00  0.00    +0.150 C 
ATOM     22  C   UNL     1      -0.923  -6.598  -0.663  0.00  0.00    +0.244 C 
ATOM     23  O   UNL     1      -0.978  -5.781   0.230  0.00  0.00    -0.273 OA
BRANCH  17  28
ATOM     24  C   UNL     1      -2.470  -1.181  -3.902  0.00  0.00    +0.044 C 
ATOM     25  C   UNL     1      -2.118  -2.552  -3.387  0.00  0.00    -0.050 A 
ATOM     26  C   UNL     1      -0.873  -2.780  -2.829  0.00  0.00    +0.005 A 
ATOM     27  C   UNL     1      -0.547  -4.036  -2.355  0.00  0.00    +0.024 A 
ATOM     28  C   UNL     1      -1.470  -5.070  -2.439  0.00  0.00    +0.044 A 
ATOM     29  C   UNL     1      -2.719  -4.837  -2.999  0.00  0.00    +0.024 A 
ATOM     30  C   UNL     1      -3.041  -3.578  -3.467  0.00  0.00    +0.005 A 
ENDBRANCH  17  28
ENDBRANCH   1  21
TORSDOF 4
