REMARK  Name = ZINC07619343
REMARK  6 active torsions:
REMARK  status: ('A' for Active; 'I' for Inactive)
REMARK    1  A    between atoms: C_1  and  C_2
REMARK    2  A    between atoms: N_12  and  C_13
REMARK    3  A    between atoms: C_13  and  C_14
REMARK    4  A    between atoms: N_16  and  C_17
REMARK    5  A    between atoms: C_21  and  S_23
REMARK    6  A    between atoms: S_23  and  N_26
REMARK                            x       y       z     vdW  Elec       q    Type
REMARK                         _______ _______ _______ _____ _____    ______ ____
ROOT
ATOM      1  C   UNL     1      -0.996   5.424  -0.342  0.00  0.00    +0.235 C 
ATOM      2  O   UNL     1       0.070   4.845  -0.320  0.00  0.00    -0.274 OA
ATOM      3  N   UNL     1      -1.044   6.736  -0.646  0.00  0.00    -0.284 N 
ATOM      4  H   UNL     1      -1.885   7.216  -0.592  0.00  0.00    +0.155 HD
ENDROOT
BRANCH   3   5
ATOM      5  C   UNL     1       0.119   7.406  -1.041  0.00  0.00    +0.035 A 
ATOM      6  C   UNL     1       1.097   6.735  -1.765  0.00  0.00    +0.023 A 
ATOM      7  C   UNL     1       2.244   7.399  -2.153  0.00  0.00    +0.004 A 
ATOM      8  C   UNL     1       2.420   8.730  -1.822  0.00  0.00    +0.028 A 
ATOM      9  C   UNL     1       1.448   9.400  -1.102  0.00  0.00    +0.107 A 
ATOM     10  C   UNL     1       0.296   8.744  -0.716  0.00  0.00    +0.051 A 
BRANCH   9  11
ATOM     11  S   UNL     1       1.677  11.097  -0.683  0.00  0.00    +0.056 S 
ATOM     12  O   UNL     1       0.872  11.344   0.462  0.00  0.00    -0.153 OA
ATOM     13  O   UNL     1       3.078  11.332  -0.695  0.00  0.00    -0.153 OA
BRANCH  11  14
ATOM     14  N   UNL     1       1.035  11.996  -1.916  0.00  0.00    -0.204 NA
ATOM     15  H   UNL     1       0.661  12.873  -1.734  0.00  0.00    +0.144 HD
ATOM     16  H   UNL     1       1.033  11.647  -2.821  0.00  0.00    +0.144 HD
ENDBRANCH  11  14
ENDBRANCH   9  11
ENDBRANCH   3   5
BRANCH   1  17
ATOM     17  C   UNL     1      -2.266   4.676  -0.028  0.00  0.00    +0.201 C 
BRANCH  17  28
ATOM     18  C   UNL     1      -1.971   3.979   2.758  0.00  0.00    +0.028 C 
ATOM     19  C   UNL     1      -1.153   3.327   1.642  0.00  0.00    +0.071 C 
ATOM     20  C   UNL     1      -0.818   1.881   2.027  0.00  0.00    +0.027 C 
ATOM     21  C   UNL     1       0.163   1.332   0.988  0.00  0.00    +0.039 C 
ATOM     22  C   UNL     1      -0.336   1.653  -0.399  0.00  0.00    -0.026 A 
ATOM     23  C   UNL     1       0.224   0.972  -1.468  0.00  0.00    +0.005 A 
ATOM     24  C   UNL     1      -0.192   1.231  -2.759  0.00  0.00    +0.000 A 
ATOM     25  C   UNL     1      -1.175   2.176  -2.989  0.00  0.00    +0.002 A 
ATOM     26  C   UNL     1      -1.738   2.856  -1.931  0.00  0.00    +0.023 A 
ATOM     27  C   UNL     1      -1.323   2.596  -0.623  0.00  0.00    +0.034 A 
ATOM     28  N   UNL     1      -1.937   3.311   0.404  0.00  0.00    -0.318 N 
ENDBRANCH  17  28
ENDBRANCH   1  17
TORSDOF 5
