REMARK  Name = ZINC03088010
REMARK  8 active torsions:
REMARK  status: ('A' for Active; 'I' for Inactive)
REMARK    1  A    between atoms: C_10  and  C_11
REMARK    2  A    between atoms: C_11  and  O_13
REMARK    3  A    between atoms: O_13  and  C_14
REMARK    4  A    between atoms: C_17  and  C_23
REMARK    5  A    between atoms: C_19  and  N_20
REMARK    6  A    between atoms: N_24  and  N_25
REMARK    7  A    between atoms: C_26  and  C_28
REMARK    8  A    between atoms: C_37  and  O_38
REMARK                            x       y       z     vdW  Elec       q    Type
REMARK                         _______ _______ _______ _____ _____    ______ ____
ROOT
ATOM      1  C   UNL     1      -3.907   7.364   0.079  0.00  0.00    +0.162 A 
ATOM      2  C   UNL     1      -2.740   8.116   0.032  0.00  0.00    +0.049 A 
ATOM      3  C   UNL     1      -2.803   9.492   0.035  0.00  0.00    +0.013 A 
ATOM      4  C   UNL     1      -4.044  10.132   0.097  0.00  0.00    -0.003 A 
ATOM      5  C   UNL     1      -5.215   9.372   0.150  0.00  0.00    +0.046 A 
ATOM      6  C   UNL     1      -5.142   7.996   0.141  0.00  0.00    +0.169 A 
ENDROOT
BRANCH   6   7
ATOM      7  N   UNL     1      -6.383   7.190   0.198  0.00  0.00    +0.060 N 
ATOM      8  O   UNL     1      -7.466   7.742   0.253  0.00  0.00    -0.126 OA
ATOM      9  O   UNL     1      -6.319   5.973   0.190  0.00  0.00    -0.126 OA
ENDBRANCH   6   7
BRANCH   4  10
ATOM     10  C   UNL     1      -4.117  11.604   0.105  0.00  0.00    +0.138 C 
ATOM     11  N   UNL     1      -3.028  12.308   0.056  0.00  0.00    -0.187 NA
BRANCH  11  12
ATOM     12  N   UNL     1      -3.097  13.708   0.064  0.00  0.00    -0.203 N 
ATOM     13  C   UNL     1      -1.966  14.439   0.012  0.00  0.00    +0.267 C 
ATOM     14  O   UNL     1      -0.885  13.884  -0.042  0.00  0.00    -0.268 OA
ATOM     15  H   UNL     1      -3.959  14.150   0.107  0.00  0.00    +0.178 HD
BRANCH  13  16
ATOM     16  C   UNL     1      -2.039  15.912   0.021  0.00  0.00    +0.080 A 
ATOM     17  C   UNL     1      -3.273  16.540   0.082  0.00  0.00    +0.025 A 
ATOM     18  C   UNL     1      -3.336  17.941   0.090  0.00  0.00    -0.017 A 
ATOM     19  C   UNL     1      -4.571  18.611   0.153  0.00  0.00    +0.008 A 
ATOM     20  C   UNL     1      -4.600  19.971   0.159  0.00  0.00    +0.001 A 
ATOM     21  C   UNL     1      -3.421  20.714   0.106  0.00  0.00    +0.001 A 
ATOM     22  C   UNL     1      -2.208  20.101   0.045  0.00  0.00    +0.008 A 
ATOM     23  C   UNL     1      -2.136  18.697   0.036  0.00  0.00    -0.014 A 
ATOM     24  C   UNL     1      -0.898  18.036  -0.026  0.00  0.00    +0.054 A 
ATOM     25  C   UNL     1      -0.852  16.673  -0.028  0.00  0.00    +0.130 A 
BRANCH  25  26
ATOM     26  O   UNL     1       0.349  16.042  -0.082  0.00  0.00    -0.506 OA
ATOM     27  H   UNL     1       0.658  15.863  -0.981  0.00  0.00    +0.292 HD
ENDBRANCH  25  26
ENDBRANCH  13  16
ENDBRANCH  11  12
ENDBRANCH   4  10
BRANCH   1  28
ATOM     28  O   UNL     1      -3.840   6.007   0.070  0.00  0.00    -0.420 OA
BRANCH  28  29
ATOM     29  C   UNL     1      -3.927   5.398  -1.129  0.00  0.00    +0.345 C 
ATOM     30  O   UNL     1      -3.967   6.062  -2.146  0.00  0.00    -0.245 OA
BRANCH  29  40
ATOM     31  C   UNL     1      -4.618   1.917  -4.874  0.00  0.00    +0.001 A 
ATOM     32  C   UNL     1      -4.580   3.309  -4.841  0.00  0.00    +0.001 A 
ATOM     33  C   UNL     1      -4.374   3.977  -3.671  0.00  0.00    +0.009 A 
ATOM     34  C   UNL     1      -4.197   3.255  -2.484  0.00  0.00    -0.004 A 
ATOM     35  C   UNL     1      -4.239   1.839  -2.514  0.00  0.00    -0.017 A 
ATOM     36  C   UNL     1      -4.449   1.184  -3.739  0.00  0.00    +0.008 A 
ATOM     37  C   UNL     1      -4.057   1.118  -1.322  0.00  0.00    +0.008 A 
ATOM     38  C   UNL     1      -3.850   1.766  -0.143  0.00  0.00    +0.001 A 
ATOM     39  C   UNL     1      -3.806   3.152  -0.066  0.00  0.00    +0.015 A 
ATOM     40  C   UNL     1      -3.974   3.928  -1.206  0.00  0.00    +0.067 A 
ENDBRANCH  29  40
ENDBRANCH  28  29
ENDBRANCH   1  28
TORSDOF 8
