REMARK  Name = ZINC34789294
REMARK  8 active torsions:
REMARK  status: ('A' for Active; 'I' for Inactive)
REMARK    1  A    between atoms: C_1  and  C_2
REMARK    2  A    between atoms: C_2  and  C_3
REMARK    3  A    between atoms: C_3  and  C_30
REMARK    4  A    between atoms: C_13  and  N_29
REMARK    5  A    between atoms: C_15  and  S_17
REMARK    6  A    between atoms: S_17  and  C_18
REMARK    7  A    between atoms: C_18  and  C_19
REMARK    8  A    between atoms: N_21  and  C_22
REMARK                            x       y       z     vdW  Elec       q    Type
REMARK                         _______ _______ _______ _____ _____    ______ ____
ROOT
ATOM      1  C   UNL     1       0.687  -0.622   1.246  0.00  0.00    +0.071 C 
ATOM      2  C   UNL     1       0.708  -2.151   1.258  0.00  0.00    +0.071 C 
ATOM      3  C   UNL     1       1.636  -2.610   2.383  0.00  0.00    -0.024 C 
ATOM      4  C   UNL     1       2.549  -1.746   2.881  0.00  0.00    +0.017 C 
ATOM      5  C   UNL     1       2.723  -0.314   2.466  0.00  0.00    +0.203 C 
ATOM      6  O   UNL     1       2.024  -0.115   1.230  0.00  0.00    -0.368 OA
ATOM      7  S   UNL     1       3.513  -2.640   4.072  0.00  0.00    -0.095 S 
ATOM      8  C   UNL     1       2.733  -4.284   3.883  0.00  0.00    +0.203 C 
ATOM      9  C   UNL     1       1.529  -3.913   3.015  0.00  0.00    +0.027 C 
ATOM     10  C   UNL     1       0.494  -4.790   2.949  0.00  0.00    +0.099 C 
ATOM     11  N   UNL     1       0.687  -5.906   3.797  0.00  0.00    -0.177 NA
ATOM     12  C   UNL     1       1.175  -5.613   5.067  0.00  0.00    +0.176 C 
ATOM     13  N   UNL     1       2.214  -4.787   5.157  0.00  0.00    -0.242 NA
ATOM     14  C   UNL     1      -0.033  -0.115   2.497  0.00  0.00    +0.042 C 
ENDROOT
BRANCH  10  15
ATOM     15  N   UNL     1      -0.631  -4.610   2.138  0.00  0.00    -0.404 NA
ATOM     16  H   UNL     1      -0.338  -4.473   1.182  0.00  0.00    +0.122 HD
ATOM     17  H   UNL     1      -1.221  -5.426   2.195  0.00  0.00    +0.122 HD
ATOM     18  H   UNL     1      -1.146  -3.800   2.451  0.00  0.00    +0.122 HD
ENDBRANCH  10  15
BRANCH   1  20
ATOM     19  C   UNL     1      -0.089   1.395  -0.008  0.00  0.00    +0.007 C 
ATOM     20  C   UNL     1      -0.056  -0.134   0.000  0.00  0.00    +0.032 C 
ENDBRANCH   1  20
BRANCH  12  21
ATOM     21  S   UNL     1       0.456  -6.327   6.509  0.00  0.00    -0.080 S 
BRANCH  21  22
ATOM     22  C   UNL     1       1.433  -5.641   7.874  0.00  0.00    +0.173 C 
BRANCH  22  23
ATOM     23  C   UNL     1       0.915  -6.178   9.183  0.00  0.00    +0.227 C 
ATOM     24  O   UNL     1      -0.022  -6.948   9.194  0.00  0.00    -0.275 OA
ATOM     25  N   UNL     1       1.493  -5.803  10.341  0.00  0.00    -0.285 N 
ATOM     26  H   UNL     1       2.190  -5.129  10.339  0.00  0.00    +0.155 HD
BRANCH  25  27
ATOM     27  C   UNL     1       1.086  -6.386  11.547  0.00  0.00    +0.033 A 
ATOM     28  C   UNL     1       1.059  -5.630  12.711  0.00  0.00    +0.025 A 
ATOM     29  C   UNL     1       0.657  -6.207  13.899  0.00  0.00    +0.022 A 
ATOM     30  C   UNL     1       0.282  -7.539  13.931  0.00  0.00    +0.041 A 
ATOM     31  C   UNL     1       0.307  -8.295  12.772  0.00  0.00    +0.022 A 
ATOM     32  C   UNL     1       0.703  -7.721  11.580  0.00  0.00    +0.025 A 
ATOM     33 CL   UNL     1      -0.222  -8.262  15.426  0.00  0.00    -0.084 Cl
ENDBRANCH  25  27
ENDBRANCH  22  23
ENDBRANCH  21  22
ENDBRANCH  12  21
TORSDOF 6
