REMARK  Name = ZINC06574142
REMARK  9 active torsions:
REMARK  status: ('A' for Active; 'I' for Inactive)
REMARK    1  A    between atoms: C_1  and  C_2
REMARK    2  A    between atoms: C_5  and  S_8
REMARK    3  A    between atoms: S_8  and  N_11
REMARK    4  A    between atoms: N_11  and  N_12
REMARK    5  A    between atoms: N_12  and  C_13
REMARK    6  A    between atoms: C_13  and  N_15
REMARK    7  A    between atoms: N_15  and  C_16
REMARK    8  A    between atoms: C_17  and  C_23
REMARK    9  A    between atoms: C_21  and  C_22
REMARK                            x       y       z     vdW  Elec       q    Type
REMARK                         _______ _______ _______ _____ _____    ______ ____
ROOT
ATOM      1  N   UNL     1       5.573  -5.829  -1.202  0.00  0.00    -0.243 N 
ATOM      2  H   UNL     1       5.014  -5.337  -1.824  0.00  0.00    +0.170 HD
ENDROOT
BRANCH   1   3
ATOM      3  N   UNL     1       6.967  -5.708  -1.266  0.00  0.00    -0.109 NA
ATOM      4  H   UNL     1       7.468  -5.444  -0.479  0.00  0.00    +0.172 HD
BRANCH   3   5
ATOM      5  S   UNL     1       7.760  -6.015  -2.687  0.00  0.00    +0.074 S 
ATOM      6  O   UNL     1       7.359  -7.313  -3.104  0.00  0.00    -0.152 OA
ATOM      7  O   UNL     1       9.122  -5.670  -2.474  0.00  0.00    -0.152 OA
BRANCH   5  12
ATOM      8  C   UNL     1       5.625  -2.149  -6.798  0.00  0.00    +0.044 C 
ATOM      9  C   UNL     1       6.158  -3.114  -5.771  0.00  0.00    -0.050 A 
ATOM     10  C   UNL     1       7.250  -2.767  -4.997  0.00  0.00    +0.005 A 
ATOM     11  C   UNL     1       7.739  -3.653  -4.055  0.00  0.00    +0.029 A 
ATOM     12  C   UNL     1       7.136  -4.886  -3.887  0.00  0.00    +0.107 A 
ATOM     13  C   UNL     1       6.044  -5.232  -4.660  0.00  0.00    +0.029 A 
ATOM     14  C   UNL     1       5.553  -4.345  -5.599  0.00  0.00    +0.005 A 
ENDBRANCH   5  12
ENDBRANCH   3   5
ENDBRANCH   1   3
BRANCH   1  15
ATOM     15  C   UNL     1       5.008  -6.629  -0.276  0.00  0.00    +0.150 C 
ATOM     16  S   UNL     1       3.304  -6.777  -0.198  0.00  0.00    -0.017 S 
BRANCH  15  17
ATOM     17  N   UNL     1       5.784  -7.312   0.588  0.00  0.00    -0.295 N 
ATOM     18  H   UNL     1       6.749  -7.292   0.493  0.00  0.00    +0.154 HD
BRANCH  17  19
ATOM     19  C   UNL     1       5.198  -8.050   1.622  0.00  0.00    +0.038 A 
ATOM     20  C   UNL     1       4.923  -9.399   1.445  0.00  0.00    -0.029 A 
ATOM     21  C   UNL     1       4.345 -10.125   2.468  0.00  0.00    +0.005 A 
ATOM     22  C   UNL     1       4.039  -9.509   3.668  0.00  0.00    +0.001 A 
ATOM     23  C   UNL     1       4.312  -8.165   3.847  0.00  0.00    +0.005 A 
ATOM     24  C   UNL     1       4.895  -7.435   2.830  0.00  0.00    -0.029 A 
ATOM     25  C   UNL     1       5.197  -5.972   3.029  0.00  0.00    +0.045 C 
ATOM     26  C   UNL     1       5.255 -10.072   0.138  0.00  0.00    +0.045 C 
ENDBRANCH  17  19
ENDBRANCH  15  17
ENDBRANCH   1  15
TORSDOF 6
