REMARK  Name = ZINC32739586
REMARK  11 active torsions:
REMARK  status: ('A' for Active; 'I' for Inactive)
REMARK    1  A    between atoms: C_1  and  C_2
REMARK    2  A    between atoms: C_5  and  C_8
REMARK    3  A    between atoms: C_8  and  C_10
REMARK    4  A    between atoms: C_14  and  N_15
REMARK    5  A    between atoms: C_16  and  C_18
REMARK    6  A    between atoms: C_18  and  N_19
REMARK    7  A    between atoms: C_22  and  N_29
REMARK    8  A    between atoms: C_23  and  N_28
REMARK    9  A    between atoms: N_24  and  C_27
REMARK   10  A    between atoms: N_29  and  C_30
REMARK   11  A    between atoms: N_29  and  C_31
REMARK                            x       y       z     vdW  Elec       q    Type
REMARK                         _______ _______ _______ _____ _____    ______ ____
ROOT
ATOM      1  N   UNL     1      -1.580   6.443  -2.776  0.00  0.00    -0.278 N 
ATOM      2  C   UNL     1      -1.541   7.696  -2.282  0.00  0.00    +0.238 C 
ATOM      3  O   UNL     1      -1.308   7.877  -1.106  0.00  0.00    -0.273 OA
ATOM      4  H   UNL     1      -1.792   6.279  -3.843  0.00  0.00    +0.155 HD
ENDROOT
BRANCH   1   9
ATOM      5  C   UNL     1      -1.249   4.016  -2.277  0.00  0.00    +0.054 A 
ATOM      6  C   UNL     1      -1.005   3.073  -1.199  0.00  0.00    -0.024 A 
ATOM      7  C   UNL     1      -0.905   3.619   0.032  0.00  0.00    -0.005 A 
ATOM      8  S   UNL     1      -1.128   5.357  -0.223  0.00  0.00    -0.077 S 
ATOM      9  C   UNL     1      -1.353   5.362  -1.941  0.00  0.00    +0.083 A 
ATOM     10  C   UNL     1      -0.659   2.899   1.322  0.00  0.00    +0.043 C 
ATOM     11  C   UNL     1      -0.911   1.401   1.094  0.00  0.00    +0.005 C 
ATOM     12  C   UNL     1      -0.178   0.966  -0.178  0.00  0.00    +0.005 C 
ATOM     13  C   UNL     1      -0.866   1.569  -1.404  0.00  0.00    +0.037 C 
BRANCH   5  14
ATOM     14  C   UNL     1      -1.380   3.567  -3.665  0.00  0.00    +0.196 C 
ATOM     15  O   UNL     1      -0.412   3.578  -4.403  0.00  0.00    -0.287 OA
BRANCH  14  20
ATOM     16  C   UNL     1      -6.475   1.752  -5.633  0.00  0.00    +0.044 C 
ATOM     17  C   UNL     1      -5.141   2.227  -5.117  0.00  0.00    -0.050 A 
ATOM     18  C   UNL     1      -4.020   2.137  -5.923  0.00  0.00    +0.004 A 
ATOM     19  C   UNL     1      -2.796   2.570  -5.457  0.00  0.00    +0.012 A 
ATOM     20  C   UNL     1      -2.690   3.101  -4.171  0.00  0.00    +0.022 A 
ATOM     21  C   UNL     1      -3.824   3.184  -3.361  0.00  0.00    +0.012 A 
ATOM     22  C   UNL     1      -5.043   2.752  -3.841  0.00  0.00    +0.004 A 
ENDBRANCH  14  20
ENDBRANCH   5  14
ENDBRANCH   1   9
BRANCH   2  23
ATOM     23  C   UNL     1      -1.788   8.873  -3.191  0.00  0.00    +0.226 C 
BRANCH  23  24
ATOM     24  N   UNL     1      -1.692  10.114  -2.419  0.00  0.00    -0.250 N 
ATOM     25  C   UNL     1      -0.503  10.738  -2.304  0.00  0.00    +0.280 A 
ATOM     26  O   UNL     1       0.489  10.272  -2.840  0.00  0.00    -0.265 OA
ATOM     27  C   UNL     1      -0.413  11.930  -1.564  0.00  0.00    +0.133 A 
ATOM     28  C   UNL     1      -1.541  12.432  -0.974  0.00  0.00    +0.127 A 
ATOM     29  N   UNL     1      -2.734  11.760  -1.119  0.00  0.00    -0.283 N 
ATOM     30  C   UNL     1      -2.792  10.624  -1.837  0.00  0.00    +0.334 A 
ATOM     31  O   UNL     1      -3.856  10.047  -1.958  0.00  0.00    -0.246 OA
ATOM     32  C   UNL     1      -3.948  12.289  -0.492  0.00  0.00    +0.155 C 
BRANCH  28  33
ATOM     33  N   UNL     1      -1.484  13.596  -0.242  0.00  0.00    -0.343 N 
ATOM     34  H   UNL     1      -2.394  13.995   0.229  0.00  0.00    +0.144 HD
ATOM     35  H   UNL     1      -0.528  14.128  -0.130  0.00  0.00    +0.144 HD
ENDBRANCH  28  33
BRANCH  27  36
ATOM     36  N   UNL     1       0.825  12.601  -1.431  0.00  0.00    -0.329 N 
ATOM     37  C   UNL     1       1.823  11.740  -0.782  0.00  0.00    +0.129 C 
ATOM     38  C   UNL     1       1.308  13.077  -2.734  0.00  0.00    +0.129 C 
ENDBRANCH  27  36
ENDBRANCH  23  24
ENDBRANCH   2  23
TORSDOF 7
