REMARK  Name = ZINC13603078
REMARK  3 active torsions:
REMARK  status: ('A' for Active; 'I' for Inactive)
REMARK    1  A    between atoms: C_1  and  C_2
REMARK    2  A    between atoms: N_4  and  C_18
REMARK    3  A    between atoms: C_8  and  C_9
REMARK                            x       y       z     vdW  Elec       q    Type
REMARK                         _______ _______ _______ _____ _____    ______ ____
ROOT
ATOM      1  C   UNL     1       0.528   1.438   0.008  0.00  0.00    +0.068 C 
ATOM      2  C   UNL     1       0.173  -0.026   0.001  0.00  0.00    +0.069 C 
ATOM      3  N   UNL     1       0.008  -0.770  -1.049  0.00  0.00    -0.177 NA
ATOM      4  N   UNL     1      -0.316  -2.081  -0.699  0.00  0.00    -0.156 N 
ATOM      5  C   UNL     1      -0.366  -2.204   0.643  0.00  0.00    +0.272 C 
ATOM      6  O   UNL     1      -0.621  -3.212   1.278  0.00  0.00    -0.268 OA
ATOM      7  C   UNL     1      -0.045  -0.873   1.184  0.00  0.00    +0.062 C 
ATOM      8  C   UNL     1       0.033  -0.499   2.514  0.00  0.00    +0.023 C 
ENDROOT
BRANCH   8   9
ATOM      9  C   UNL     1      -0.054  -1.513   3.565  0.00  0.00    -0.021 A 
ATOM     10  C   UNL     1       0.563  -2.762   3.391  0.00  0.00    +0.012 A 
ATOM     11  C   UNL     1       0.479  -3.712   4.382  0.00  0.00    +0.050 A 
ATOM     12  C   UNL     1      -0.215  -3.443   5.556  0.00  0.00    +0.166 A 
ATOM     13  C   UNL     1      -0.833  -2.202   5.737  0.00  0.00    +0.167 A 
ATOM     14  C   UNL     1      -0.749  -1.240   4.752  0.00  0.00    +0.057 A 
ATOM     15  O   UNL     1      -1.440  -2.193   6.959  0.00  0.00    -0.453 OA
ATOM     16  C   UNL     1      -1.538  -3.576   7.349  0.00  0.00    +0.466 C 
ATOM     17  O   UNL     1      -0.438  -4.204   6.664  0.00  0.00    -0.453 OA
ENDBRANCH   8   9
BRANCH   4  18
ATOM     18  C   UNL     1      -0.554  -3.119  -1.610  0.00  0.00    +0.060 A 
ATOM     19  C   UNL     1      -0.877  -4.388  -1.149  0.00  0.00    +0.027 A 
ATOM     20  C   UNL     1      -1.112  -5.409  -2.048  0.00  0.00    +0.022 A 
ATOM     21  C   UNL     1      -1.027  -5.168  -3.408  0.00  0.00    +0.041 A 
ATOM     22  C   UNL     1      -0.706  -3.904  -3.870  0.00  0.00    +0.022 A 
ATOM     23  C   UNL     1      -0.475  -2.878  -2.975  0.00  0.00    +0.027 A 
ATOM     24 CL   UNL     1      -1.323  -6.454  -4.537  0.00  0.00    -0.084 Cl
ENDBRANCH   4  18
TORSDOF 2
