REMARK  Name = ZINC39550859
REMARK  10 active torsions:
REMARK  status: ('A' for Active; 'I' for Inactive)
REMARK    1  A    between atoms: C_1  and  C_2
REMARK    2  A    between atoms: C_2  and  C_3
REMARK    3  A    between atoms: C_3  and  C_4
REMARK    4  A    between atoms: C_7  and  O_10
REMARK    5  A    between atoms: O_10  and  C_11
REMARK    6  A    between atoms: C_13  and  C_21
REMARK    7  A    between atoms: C_16  and  C_17
REMARK    8  A    between atoms: C_24  and  O_29
REMARK    9  A    between atoms: C_25  and  C_28
REMARK   10  A    between atoms: C_26  and  O_27
REMARK                            x       y       z     vdW  Elec       q    Type
REMARK                         _______ _______ _______ _____ _____    ______ ____
ROOT
ATOM      1  C   UNL     1      -0.352  -6.791  -1.825  0.00  0.00    +0.279 C 
ATOM      2  C   UNL     1      -0.596  -8.104  -1.108  0.00  0.00    +0.120 C 
ATOM      3  N   UNL     1      -0.488  -9.032  -2.021  0.00  0.00    -0.149 NA
ATOM      4  N   UNL     1      -0.201  -8.504  -3.275  0.00  0.00    -0.145 NA
ATOM      5  C   UNL     1      -0.105  -7.211  -3.260  0.00  0.00    +0.189 C 
ENDROOT
BRANCH   2   6
ATOM      6  C   UNL     1      -0.890  -8.293   0.317  0.00  0.00    +0.044 A 
ATOM      7  C   UNL     1      -0.977  -7.187   1.171  0.00  0.00    +0.017 A 
ATOM      8  C   UNL     1      -1.254  -7.369   2.506  0.00  0.00    +0.046 A 
ATOM      9  C   UNL     1      -1.448  -8.651   3.013  0.00  0.00    +0.123 A 
ATOM     10  C   UNL     1      -1.364  -9.755   2.177  0.00  0.00    +0.033 A 
ATOM     11  C   UNL     1      -1.092  -9.586   0.831  0.00  0.00    +0.132 A 
ATOM     12  C   UNL     1      -1.575 -11.139   2.734  0.00  0.00    +0.051 C 
BRANCH  11  13
ATOM     13  O   UNL     1      -1.015 -10.664   0.011  0.00  0.00    -0.506 OA
ATOM     14  H   UNL     1      -0.129 -11.044  -0.057  0.00  0.00    +0.292 HD
ENDBRANCH  11  13
BRANCH   9  15
ATOM     15  O   UNL     1      -1.721  -8.821   4.332  0.00  0.00    -0.506 OA
ATOM     16  H   UNL     1      -2.664  -8.807   4.543  0.00  0.00    +0.292 HD
ENDBRANCH   9  15
ENDBRANCH   2   6
BRANCH   5  17
ATOM     17  C   UNL     1       0.193  -6.307  -4.429  0.00  0.00    +0.436 C 
ATOM     18  F   UNL     1       0.358  -7.079  -5.584  0.00  0.00    -0.165 F 
ATOM     19  F   UNL     1      -0.870  -5.416  -4.612  0.00  0.00    -0.165 F 
ATOM     20  F   UNL     1       1.366  -5.589  -4.176  0.00  0.00    -0.165 F 
ENDBRANCH   5  17
BRANCH   1  21
ATOM     21  O   UNL     1       0.795  -6.129  -1.289  0.00  0.00    -0.476 OA
BRANCH  21  25
ATOM     22  C   UNL     1       0.829  -2.007  -1.454  0.00  0.00    -0.047 A 
ATOM     23  C   UNL     1       1.843  -2.680  -0.798  0.00  0.00    +0.007 A 
ATOM     24  C   UNL     1       1.834  -4.060  -0.741  0.00  0.00    +0.046 A 
ATOM     25  C   UNL     1       0.806  -4.771  -1.343  0.00  0.00    +0.122 A 
ATOM     26  C   UNL     1      -0.211  -4.094  -2.001  0.00  0.00    +0.046 A 
ATOM     27  C   UNL     1      -0.200  -2.714  -2.050  0.00  0.00    +0.007 A 
BRANCH  22  28
ATOM     28  C   UNL     1       0.841  -0.502  -1.515  0.00  0.00    +0.035 C 
BRANCH  28  30
ATOM     29  C   UNL     1       0.107   1.593  -0.367  0.00  0.00    +0.004 C 
ATOM     30  C   UNL     1       0.095   0.064  -0.305  0.00  0.00    +0.001 C 
ENDBRANCH  28  30
ENDBRANCH  22  28
ENDBRANCH  21  25
ENDBRANCH   1  21
TORSDOF 8
