REMARK  Name = ZINC39696871
REMARK  9 active torsions:
REMARK  status: ('A' for Active; 'I' for Inactive)
REMARK    1  A    between atoms: C_1  and  N_2
REMARK    2  A    between atoms: C_6  and  C_9
REMARK    3  A    between atoms: C_9  and  N_10
REMARK    4  A    between atoms: C_11  and  C_13
REMARK    5  A    between atoms: C_24  and  C_26
REMARK    6  A    between atoms: C_26  and  C_27
REMARK    7  A    between atoms: C_27  and  C_28
REMARK    8  A    between atoms: C_31  and  O_34
REMARK    9  A    between atoms: O_34  and  C_35
REMARK                            x       y       z     vdW  Elec       q    Type
REMARK                         _______ _______ _______ _____ _____    ______ ____
ROOT
ATOM      1  C   UNL     1       1.989  -6.291   3.255  0.00  0.00    +0.100 C 
ATOM      2  C   UNL     1       0.557  -6.786   3.560  0.00  0.00    +0.121 C 
ATOM      3  N   UNL     1       0.749  -8.003   4.383  0.00  0.00    -0.300 N 
ATOM      4  C   UNL     1       1.884  -7.669   5.276  0.00  0.00    +0.115 C 
ATOM      5  C   UNL     1       2.856  -6.873   4.383  0.00  0.00    -0.004 C 
ATOM      6  C   UNL     1       3.922  -7.799   3.807  0.00  0.00    -0.010 C 
ATOM      7  C   UNL     1       4.808  -8.320   4.943  0.00  0.00    -0.082 C 
ATOM      8  N   UNL     1       5.437  -7.188   5.634  0.00  0.00    +0.379 N 
ATOM      9  C   UNL     1       4.408  -6.351   6.264  0.00  0.00    -0.082 C 
ATOM     10  C   UNL     1       3.506  -5.748   5.184  0.00  0.00    -0.010 C 
ATOM     11  C   UNL     1       0.049  -9.154   4.332  0.00  0.00    +0.216 C 
ATOM     12  O   UNL     1       0.329 -10.067   5.079  0.00  0.00    -0.276 OA
ATOM     13  H   UNL     1       6.066  -7.535   6.341  0.00  0.00    -0.086 HD
ATOM     14  H   UNL     1       5.956  -6.635   4.968  0.00  0.00    -0.086 HD
ENDROOT
BRANCH   1  16
ATOM     15  N   UNL     1       2.943  -4.131   2.520  0.00  0.00    -0.313 N 
ATOM     16  C   UNL     1       2.040  -4.785   3.276  0.00  0.00    +0.218 C 
ATOM     17  O   UNL     1       1.268  -4.162   3.974  0.00  0.00    -0.275 OA
ATOM     18  H   UNL     1       3.561  -4.629   1.962  0.00  0.00    +0.149 HD
BRANCH  15  19
ATOM     19  C   UNL     1       2.993  -2.667   2.541  0.00  0.00    +0.137 C 
BRANCH  19  25
ATOM     20  C   UNL     1       5.322   1.274   0.732  0.00  0.00    +0.105 C 
ATOM     21  N   UNL     1       5.268  -0.193   0.782  0.00  0.00    -0.301 NA
ATOM     22  C   UNL     1       6.543  -0.752   1.253  0.00  0.00    +0.112 C 
ATOM     23  C   UNL     1       6.463  -2.281   1.233  0.00  0.00    +0.175 C 
ATOM     24  O   UNL     1       5.357  -2.706   2.033  0.00  0.00    -0.372 OA
ATOM     25  C   UNL     1       4.098  -2.180   1.602  0.00  0.00    +0.149 C 
ATOM     26  C   UNL     1       4.155  -0.651   1.626  0.00  0.00    +0.117 C 
ENDBRANCH  19  25
ENDBRANCH  15  19
ENDBRANCH   1  16
BRANCH  11  27
ATOM     27  C   UNL     1      -1.081  -9.305   3.346  0.00  0.00    +0.100 C 
BRANCH  27  28
ATOM     28  C   UNL     1      -1.704 -10.695   3.494  0.00  0.00    +0.044 C 
BRANCH  28  29
ATOM     29  C   UNL     1      -2.833 -10.846   2.508  0.00  0.00    -0.047 A 
ATOM     30  C   UNL     1      -4.117 -10.480   2.869  0.00  0.00    +0.007 A 
ATOM     31  C   UNL     1      -5.155 -10.618   1.967  0.00  0.00    +0.046 A 
ATOM     32  C   UNL     1      -4.908 -11.124   0.699  0.00  0.00    +0.120 A 
ATOM     33  C   UNL     1      -3.619 -11.491   0.340  0.00  0.00    +0.046 A 
ATOM     34  C   UNL     1      -2.584 -11.346   1.243  0.00  0.00    +0.007 A 
BRANCH  32  35
ATOM     35  O   UNL     1      -5.927 -11.262  -0.189  0.00  0.00    -0.495 OA
ATOM     36  C   UNL     1      -5.599 -11.790  -1.476  0.00  0.00    +0.277 C 
ENDBRANCH  32  35
ENDBRANCH  28  29
ENDBRANCH  27  28
ENDBRANCH  11  27
TORSDOF 7
