REMARK  Name = ZINC60195714
REMARK  7 active torsions:
REMARK  status: ('A' for Active; 'I' for Inactive)
REMARK    1  A    between atoms: C_1  and  N_2
REMARK    2  A    between atoms: N_2  and  S_3
REMARK    3  A    between atoms: S_3  and  C_6
REMARK    4  A    between atoms: C_15  and  C_17
REMARK    5  A    between atoms: C_17  and  N_18
REMARK    6  A    between atoms: C_26  and  S_27
REMARK    7  A    between atoms: S_27  and  C_28
REMARK                            x       y       z     vdW  Elec       q    Type
REMARK                         _______ _______ _______ _____ _____    ______ ____
ROOT
ATOM      1  C   UNL     1      -2.247  -0.499  -1.505  0.00  0.00    +0.106 A 
ATOM      2  C   UNL     1      -3.118   0.573  -1.587  0.00  0.00    +0.030 A 
ATOM      3  C   UNL     1      -3.766   0.851  -2.771  0.00  0.00    +0.026 A 
ATOM      4  C   UNL     1      -3.549   0.054  -3.897  0.00  0.00    +0.040 A 
ATOM      5  C   UNL     1      -2.674  -1.017  -3.804  0.00  0.00    -0.023 A 
ATOM      6  C   UNL     1      -2.022  -1.289  -2.617  0.00  0.00    +0.034 A 
ATOM      7  C   UNL     1      -2.617  -1.709  -5.147  0.00  0.00    +0.056 C 
ATOM      8  C   UNL     1      -3.575  -0.902  -6.040  0.00  0.00    +0.118 C 
ATOM      9  N   UNL     1      -4.098   0.161  -5.178  0.00  0.00    -0.269 N 
ATOM     10  C   UNL     1      -4.980   1.104  -5.564  0.00  0.00    +0.240 C 
ATOM     11  O   UNL     1      -5.354   1.944  -4.774  0.00  0.00    -0.273 OA
ENDROOT
BRANCH   1  12
ATOM     12  S   UNL     1      -1.421  -0.852   0.011  0.00  0.00    +0.058 S 
ATOM     13  O   UNL     1      -1.073  -2.229  -0.027  0.00  0.00    -0.153 OA
ATOM     14  O   UNL     1      -2.218  -0.295   1.047  0.00  0.00    -0.153 OA
BRANCH  12  16
ATOM     15  C   UNL     1      -0.018   1.461   0.010  0.00  0.00    +0.127 C 
ATOM     16  N   UNL     1       0.002  -0.004   0.002  0.00  0.00    -0.193 NA
ATOM     17  H   UNL     1       0.849  -0.478  -0.009  0.00  0.00    +0.148 HD
ENDBRANCH  12  16
ENDBRANCH   1  12
BRANCH  10  18
ATOM     18  C   UNL     1      -5.501   1.115  -6.978  0.00  0.00    +0.220 C 
BRANCH  18  19
ATOM     19  N   UNL     1      -6.438   2.229  -7.145  0.00  0.00    -0.310 N 
ATOM     20  C   UNL     1      -7.806   2.192  -6.927  0.00  0.00    +0.070 A 
ATOM     21  C   UNL     1      -8.688   1.203  -6.520  0.00  0.00    +0.028 A 
ATOM     22  C   UNL     1     -10.031   1.490  -6.395  0.00  0.00    +0.002 A 
ATOM     23  C   UNL     1     -10.507   2.762  -6.676  0.00  0.00    +0.002 A 
ATOM     24  C   UNL     1      -9.646   3.756  -7.083  0.00  0.00    +0.030 A 
ATOM     25  C   UNL     1      -8.282   3.482  -7.213  0.00  0.00    +0.090 A 
ATOM     26  N   UNL     1      -7.210   4.232  -7.583  0.00  0.00    -0.222 NA
ATOM     27  C   UNL     1      -6.125   3.499  -7.538  0.00  0.00    +0.175 A 
BRANCH  27  28
ATOM     28  S   UNL     1      -4.504   4.067  -7.932  0.00  0.00    -0.018 S 
BRANCH  28  29
ATOM     29  C   UNL     1      -4.744   5.810  -8.373  0.00  0.00    +0.407 C 
ATOM     30  F   UNL     1      -5.613   5.899  -9.465  0.00  0.00    -0.196 F 
ATOM     31  F   UNL     1      -5.293   6.495  -7.284  0.00  0.00    -0.196 F 
ENDBRANCH  28  29
ENDBRANCH  27  28
ENDBRANCH  18  19
ENDBRANCH  10  18
TORSDOF 6
