REMARK  Name = ZINC08636058
REMARK  9 active torsions:
REMARK  status: ('A' for Active; 'I' for Inactive)
REMARK    1  A    between atoms: C_1  and  C_2
REMARK    2  A    between atoms: C_2  and  C_3
REMARK    3  A    between atoms: C_2  and  C_4
REMARK    4  A    between atoms: C_7  and  C_10
REMARK    5  A    between atoms: C_13  and  N_69
REMARK    6  A    between atoms: C_18  and  C_31
REMARK    7  A    between atoms: C_31  and  O_33
REMARK    8  A    between atoms: O_33  and  C_34
REMARK    9  A    between atoms: C_35  and  N_69
REMARK                            x       y       z     vdW  Elec       q    Type
REMARK                         _______ _______ _______ _____ _____    ______ ____
ROOT
ATOM      1  C   UNL     1      -2.567   0.475  -1.474  0.00  0.00    -0.037 C 
ATOM      2  C   UNL     1      -3.829  -0.372  -1.586  0.00  0.00    -0.027 C 
ATOM      3  C   UNL     1      -3.755  -1.537  -0.595  0.00  0.00    -0.074 C 
ATOM      4  C   UNL     1      -3.557  -0.987   0.821  0.00  0.00    -0.025 C 
ATOM      5  C   UNL     1      -2.288  -0.134   0.852  0.00  0.00    -0.020 C 
ATOM      6  C   UNL     1      -1.329   1.940   0.019  0.00  0.00    +0.049 C 
ATOM      7  C   UNL     1      -1.471   2.717   1.335  0.00  0.00    +0.033 C 
ATOM      8  C   UNL     1      -1.708   1.723   2.445  0.00  0.00    -0.022 A 
ATOM      9  C   UNL     1      -2.077   0.439   2.231  0.00  0.00    +0.007 A 
ATOM     10  N   UNL     1      -2.215  -0.208   3.429  0.00  0.00    -0.359 N 
ATOM     11  H   UNL     1      -2.475  -1.136   3.535  0.00  0.00    +0.166 HD
ATOM     12  C   UNL     1      -1.932   0.650   4.453  0.00  0.00    +0.047 A 
ATOM     13  C   UNL     1      -1.601   1.904   3.875  0.00  0.00    +0.003 A 
ATOM     14  C   UNL     1      -1.259   3.001   4.672  0.00  0.00    +0.010 A 
ATOM     15  C   UNL     1      -1.258   2.806   6.031  0.00  0.00    +0.001 A 
ATOM     16  C   UNL     1      -1.580   1.585   6.599  0.00  0.00    +0.002 A 
ATOM     17  C   UNL     1      -1.923   0.482   5.835  0.00  0.00    +0.026 A 
ATOM     18  N   UNL     1      -2.464   0.991  -0.092  0.00  0.00    +0.399 N 
ATOM     19  H   UNL     1      -3.333   1.487   0.141  0.00  0.00    -0.079 HD
ENDROOT
BRANCH   1  23
ATOM     20  C   UNL     1      -2.810   3.771  -4.181  0.00  0.00    -0.045 A 
ATOM     21  C   UNL     1      -2.078   2.649  -4.521  0.00  0.00    +0.004 A 
ATOM     22  C   UNL     1      -1.999   1.582  -3.645  0.00  0.00    +0.002 A 
ATOM     23  C   UNL     1      -2.652   1.638  -2.429  0.00  0.00    -0.061 A 
ATOM     24  C   UNL     1      -3.389   2.757  -2.090  0.00  0.00    +0.002 A 
ATOM     25  C   UNL     1      -3.463   3.826  -2.964  0.00  0.00    +0.004 A 
BRANCH  20  27
ATOM     26  C   UNL     1      -4.359   5.176  -5.512  0.00  0.00    +0.012 C 
ATOM     27  C   UNL     1      -2.896   4.933  -5.136  0.00  0.00    +0.013 C 
ATOM     28  C   UNL     1      -2.326   6.186  -4.467  0.00  0.00    +0.012 C 
ENDBRANCH  20  27
ENDBRANCH   1  23
BRANCH   3  29
ATOM     29  N   UNL     1      -2.615  -2.406  -0.941  0.00  0.00    +0.383 N 
ATOM     30  H   UNL     1      -2.302  -2.905  -0.099  0.00  0.00    -0.085 HD
ATOM     31  H   UNL     1      -1.847  -1.830  -1.303  0.00  0.00    -0.085 HD
BRANCH  29  32
ATOM     32  C   UNL     1      -3.012  -3.388  -1.968  0.00  0.00    -0.072 C 
ATOM     33  C   UNL     1      -2.546  -4.832  -1.774  0.00  0.00    -0.017 C 
ATOM     34  C   UNL     1      -1.904  -3.959  -2.855  0.00  0.00    -0.017 C 
ENDBRANCH  29  32
ENDBRANCH   3  29
BRANCH   6  35
ATOM     35  C   UNL     1      -0.014   1.204   0.009  0.00  0.00    +0.294 C 
ATOM     36  O   UNL     1       0.021   0.034  -0.289  0.00  0.00    -0.253 OA
BRANCH  35  37
ATOM     37  O   UNL     1       1.119   1.851   0.325  0.00  0.00    -0.469 OA
ATOM     38  C   UNL     1       2.349   1.081   0.288  0.00  0.00    +0.280 C 
ENDBRANCH  35  37
ENDBRANCH   6  35
TORSDOF 6
