REMARK  Name = ZINC59730516
REMARK  7 active torsions:
REMARK  status: ('A' for Active; 'I' for Inactive)
REMARK    1  A    between atoms: C_4  and  C_7
REMARK    2  A    between atoms: N_9  and  C_10
REMARK    3  A    between atoms: C_10  and  C_19
REMARK    4  A    between atoms: C_11  and  C_12
REMARK    5  A    between atoms: N_21  and  C_22
REMARK    6  A    between atoms: C_22  and  C_23
REMARK    7  A    between atoms: C_23  and  C_24
REMARK                            x       y       z     vdW  Elec       q    Type
REMARK                         _______ _______ _______ _____ _____    ______ ____
ROOT
ATOM      1  C   UNL     1       5.014  -2.566  -0.207  0.00  0.00    +0.097 C 
ATOM      2  C   UNL     1       6.132  -1.805  -0.175  0.00  0.00    +0.037 C 
ENDROOT
BRANCH   2   3
ATOM      3  C   UNL     1       6.024  -0.339  -0.185  0.00  0.00    -0.009 A 
ATOM      4  C   UNL     1       4.888   0.279  -0.718  0.00  0.00    +0.009 A 
ATOM      5  C   UNL     1       4.795   1.655  -0.723  0.00  0.00    +0.001 A 
ATOM      6  C   UNL     1       5.821   2.425  -0.204  0.00  0.00    +0.001 A 
ATOM      7  C   UNL     1       6.949   1.822   0.325  0.00  0.00    +0.016 A 
ATOM      8  C   UNL     1       7.055   0.446   0.344  0.00  0.00    +0.025 A 
ATOM      9 BR   UNL     1       8.594  -0.376   1.074  0.00  0.00    -0.050 Br
ENDBRANCH   2   3
BRANCH   1  12
ATOM     10  C   UNL     1       2.834  -2.163  -1.067  0.00  0.00    +0.248 C 
ATOM     11  O   UNL     1       3.061  -2.938  -1.976  0.00  0.00    -0.270 OA
ATOM     12  N   UNL     1       3.756  -1.965  -0.105  0.00  0.00    -0.277 N 
ATOM     13  H   UNL     1       3.547  -1.405   0.659  0.00  0.00    +0.155 HD
BRANCH  10  17
ATOM     14  C   UNL     1      -0.866  -0.081  -0.924  0.00  0.00    +0.000 A 
ATOM     15  C   UNL     1      -0.566  -0.878  -2.015  0.00  0.00    +0.001 A 
ATOM     16  C   UNL     1       0.634  -1.557  -2.068  0.00  0.00    +0.013 A 
ATOM     17  C   UNL     1       1.546  -1.438  -1.018  0.00  0.00    +0.037 A 
ATOM     18  C   UNL     1       1.237  -0.632   0.080  0.00  0.00    +0.013 A 
ATOM     19  C   UNL     1       0.034   0.041   0.120  0.00  0.00    +0.001 A 
ENDBRANCH  10  17
ENDBRANCH   1  12
BRANCH   1  20
ATOM     20  C   UNL     1       5.121  -4.025  -0.351  0.00  0.00    +0.258 C 
ATOM     21  O   UNL     1       4.116  -4.709  -0.381  0.00  0.00    -0.269 OA
ATOM     22  N   UNL     1       6.334  -4.605  -0.450  0.00  0.00    -0.310 N 
ATOM     23  H   UNL     1       7.136  -4.060  -0.426  0.00  0.00    +0.149 HD
BRANCH  22  24
ATOM     24  C   UNL     1       6.441  -6.059  -0.593  0.00  0.00    +0.112 C 
BRANCH  24  25
ATOM     25  C   UNL     1       7.916  -6.455  -0.684  0.00  0.00    +0.093 C 
BRANCH  25  26
ATOM     26  C   UNL     1       8.026  -7.951  -0.831  0.00  0.00    +0.110 A 
ATOM     27  N   UNL     1       8.693  -8.589  -1.831  0.00  0.00    -0.342 N 
ATOM     28  H   UNL     1       9.172  -8.168  -2.562  0.00  0.00    +0.167 HD
ATOM     29  C   UNL     1       8.560  -9.946  -1.613  0.00  0.00    +0.066 A 
ATOM     30  C   UNL     1       9.008 -11.080  -2.276  0.00  0.00    +0.028 A 
ATOM     31  C   UNL     1       8.693 -12.328  -1.783  0.00  0.00    +0.002 A 
ATOM     32  C   UNL     1       7.932 -12.458  -0.630  0.00  0.00    +0.002 A 
ATOM     33  C   UNL     1       7.482 -11.353   0.035  0.00  0.00    +0.030 A 
ATOM     34  C   UNL     1       7.789 -10.077  -0.445  0.00  0.00    +0.089 A 
ATOM     35  N   UNL     1       7.503  -8.821  -0.017  0.00  0.00    -0.232 NA
ENDBRANCH  25  26
ENDBRANCH  24  25
ENDBRANCH  22  24
ENDBRANCH   1  20
TORSDOF 7
