REMARK  Name = ZINC06752947
REMARK  7 active torsions:
REMARK  status: ('A' for Active; 'I' for Inactive)
REMARK    1  A    between atoms: C_1  and  C_2
REMARK    2  A    between atoms: C_2  and  C_3
REMARK    3  A    between atoms: C_3  and  N_4
REMARK    4  A    between atoms: C_5  and  C_22
REMARK    5  A    between atoms: C_8  and  C_15
REMARK    6  A    between atoms: C_20  and  O_21
REMARK    7  A    between atoms: C_26  and  O_28
REMARK                            x       y       z     vdW  Elec       q    Type
REMARK                         _______ _______ _______ _____ _____    ______ ____
ROOT
ATOM      1  N   UNL     1       0.738  -1.962  -1.265  0.00  0.00    -0.285 N 
ATOM      2  C   UNL     1       1.783  -2.812  -0.679  0.00  0.00    +0.141 C 
ATOM      3  C   UNL     1       1.360  -4.232  -0.939  0.00  0.00    +0.035 A 
ATOM      4  C   UNL     1       1.646  -5.593  -0.793  0.00  0.00    +0.102 A 
ATOM      5  N   UNL     1       0.665  -6.266  -1.361  0.00  0.00    -0.173 NA
ATOM      6  N   UNL     1      -0.212  -5.464  -1.852  0.00  0.00    -0.272 N 
ATOM      7  H   UNL     1      -1.019  -5.738  -2.315  0.00  0.00    +0.189 HD
ATOM      8  C   UNL     1       0.161  -4.170  -1.622  0.00  0.00    +0.126 A 
ATOM      9  C   UNL     1      -0.201  -2.760  -1.805  0.00  0.00    +0.265 C 
ATOM     10  O   UNL     1      -1.206  -2.368  -2.367  0.00  0.00    -0.268 OA
ENDROOT
BRANCH   4  11
ATOM     11  C   UNL     1       2.836  -6.174  -0.122  0.00  0.00    +0.044 A 
ATOM     12  C   UNL     1       3.797  -5.339   0.443  0.00  0.00    +0.014 A 
ATOM     13  C   UNL     1       4.902  -5.883   1.066  0.00  0.00    +0.001 A 
ATOM     14  C   UNL     1       5.059  -7.257   1.131  0.00  0.00    +0.004 A 
ATOM     15  C   UNL     1       4.111  -8.094   0.574  0.00  0.00    +0.046 A 
ATOM     16  C   UNL     1       2.994  -7.560  -0.050  0.00  0.00    +0.126 A 
BRANCH  16  17
ATOM     17  O   UNL     1       2.059  -8.383  -0.594  0.00  0.00    -0.506 OA
ATOM     18  H   UNL     1       2.227  -8.611  -1.518  0.00  0.00    +0.292 HD
ENDBRANCH  16  17
ENDBRANCH   4  11
BRANCH   2  19
ATOM     19  C   UNL     1       1.884  -2.562   0.804  0.00  0.00    -0.019 A 
ATOM     20  C   UNL     1       0.736  -2.384   1.554  0.00  0.00    +0.006 A 
ATOM     21  C   UNL     1       0.825  -2.155   2.914  0.00  0.00    +0.004 A 
ATOM     22  C   UNL     1       2.062  -2.102   3.528  0.00  0.00    +0.045 A 
ATOM     23  C   UNL     1       3.215  -2.280   2.777  0.00  0.00    +0.117 A 
ATOM     24  C   UNL     1       3.123  -2.516   1.413  0.00  0.00    +0.051 A 
BRANCH  23  25
ATOM     25  O   UNL     1       4.433  -2.229   3.378  0.00  0.00    -0.507 OA
ATOM     26  H   UNL     1       4.749  -3.084   3.701  0.00  0.00    +0.292 HD
ENDBRANCH  23  25
ENDBRANCH   2  19
BRANCH   1  27
ATOM     27  C   UNL     1       0.718  -0.497  -1.257  0.00  0.00    +0.109 C 
BRANCH  27  29
ATOM     28  C   UNL     1      -0.019   1.526   0.010  0.00  0.00    +0.005 C 
ATOM     29  C   UNL     1       0.002  -0.004   0.002  0.00  0.00    +0.016 C 
ENDBRANCH  27  29
ENDBRANCH   1  27
TORSDOF 6
