REMARK  Name = ZINC02791051
REMARK  5 active torsions:
REMARK  status: ('A' for Active; 'I' for Inactive)
REMARK    1  A    between atoms: C_4  and  N_8
REMARK    2  A    between atoms: N_8  and  C_9
REMARK    3  A    between atoms: C_9  and  N_11
REMARK    4  A    between atoms: N_11  and  N_12
REMARK    5  A    between atoms: C_13  and  C_15
REMARK                            x       y       z     vdW  Elec       q    Type
REMARK                         _______ _______ _______ _____ _____    ______ ____
ROOT
ATOM      1  C   UNL     1       3.646  -1.996   0.058  0.00  0.00    +0.151 C 
ATOM      2  S   UNL     1       2.179  -2.879   0.068  0.00  0.00    -0.017 S 
ENDROOT
BRANCH   1   3
ATOM      3  N   UNL     1       3.623  -0.652  -0.036  0.00  0.00    -0.295 N 
ATOM      4  H   UNL     1       4.453  -0.157  -0.122  0.00  0.00    +0.154 HD
BRANCH   3   8
ATOM      5  C   UNL     1      -0.016   1.381   0.039  0.00  0.00    +0.021 A 
ATOM      6  C   UNL     1       0.951   1.730  -0.886  0.00  0.00    +0.023 A 
ATOM      7  C   UNL     1       2.158   1.058  -0.914  0.00  0.00    +0.062 A 
ATOM      8  C   UNL     1       2.401   0.031  -0.010  0.00  0.00    +0.053 A 
ATOM      9  C   UNL     1       1.429  -0.318   0.917  0.00  0.00    +0.044 A 
ATOM     10  C   UNL     1       0.223   0.358   0.940  0.00  0.00    +0.043 A 
ATOM     11 CL   UNL     1      -0.993  -0.077   2.100  0.00  0.00    -0.083 Cl
ATOM     12 CL   UNL     1       3.370   1.498  -2.077  0.00  0.00    -0.082 Cl
ENDBRANCH   3   8
ENDBRANCH   1   3
BRANCH   1  13
ATOM     13  N   UNL     1       4.824  -2.645   0.144  0.00  0.00    -0.245 N 
ATOM     14  H   UNL     1       4.840  -3.613   0.212  0.00  0.00    +0.172 HD
BRANCH  13  15
ATOM     15  N   UNL     1       6.024  -1.923   0.136  0.00  0.00    -0.231 N 
ATOM     16  C   UNL     1       7.202  -2.572   0.223  0.00  0.00    +0.267 C 
ATOM     17  O   UNL     1       7.223  -3.786   0.308  0.00  0.00    -0.268 OA
ATOM     18  H   UNL     1       6.007  -0.955   0.068  0.00  0.00    +0.173 HD
BRANCH  16  19
ATOM     19  C   UNL     1       8.458  -1.816   0.214  0.00  0.00    +0.076 A 
ATOM     20  C   UNL     1       9.761  -2.285   0.286  0.00  0.00    +0.036 A 
ATOM     21  C   UNL     1      10.744  -1.325   0.256  0.00  0.00    +0.026 A 
ATOM     22  C   UNL     1      10.387  -0.020   0.159  0.00  0.00    +0.061 A 
ATOM     23  S   UNL     1       8.708  -0.055   0.100  0.00  0.00    -0.091 S 
ATOM     24 BR   UNL     1      12.567  -1.816   0.347  0.00  0.00    -0.050 Br
ENDBRANCH  16  19
ENDBRANCH  13  15
ENDBRANCH   1  13
TORSDOF 5
