REMARK  Name = ZINC31043509
REMARK  6 active torsions:
REMARK  status: ('A' for Active; 'I' for Inactive)
REMARK    1  A    between atoms: C_1  and  C_2
REMARK    2  A    between atoms: C_14  and  C_15
REMARK    3  A    between atoms: N_17  and  C_18
REMARK    4  A    between atoms: C_18  and  C_20
REMARK    5  A    between atoms: C_18  and  C_27
REMARK    6  A    between atoms: C_20  and  C_21
REMARK                            x       y       z     vdW  Elec       q    Type
REMARK                         _______ _______ _______ _____ _____    ______ ____
ROOT
ATOM      1  C   UNL     1       5.285   1.162   1.675  0.00  0.00    +0.252 C 
ATOM      2  O   UNL     1       6.009   0.414   1.044  0.00  0.00    -0.270 OA
ATOM      3  N   UNL     1       4.046   1.440   1.224  0.00  0.00    -0.301 N 
ATOM      4  H   UNL     1       3.392   2.116   1.794  0.00  0.00    +0.150 HD
ENDROOT
BRANCH   1  18
ATOM      5  C   UNL     1       8.018   0.714   2.925  0.00  0.00    +0.046 C 
ATOM      6  C   UNL     1       6.968   1.601   3.541  0.00  0.00    -0.017 A 
ATOM      7  C   UNL     1       7.230   2.265   4.742  0.00  0.00    +0.076 A 
ATOM      8  C   UNL     1       6.183   3.075   5.239  0.00  0.00    +0.116 A 
ATOM      9  N   UNL     1       6.307   3.754   6.368  0.00  0.00    -0.226 NA
ATOM     10  C   UNL     1       7.401   3.719   7.090  0.00  0.00    +0.114 A 
ATOM     11  N   UNL     1       8.475   2.979   6.715  0.00  0.00    -0.296 N 
ATOM     12  C   UNL     1       8.449   2.245   5.578  0.00  0.00    +0.263 A 
ATOM     13  O   UNL     1       9.415   1.580   5.248  0.00  0.00    -0.267 OA
ATOM     14  C   UNL     1       9.571   3.116   7.692  0.00  0.00    +0.127 C 
ATOM     15  C   UNL     1       8.921   3.682   8.971  0.00  0.00    +0.029 C 
ATOM     16  C   UNL     1       7.697   4.430   8.399  0.00  0.00    +0.076 C 
ATOM     17  S   UNL     1       4.905   2.881   4.021  0.00  0.00    -0.064 S 
ATOM     18  C   UNL     1       5.761   1.760   2.927  0.00  0.00    +0.079 A 
ENDBRANCH   1  18
BRANCH   3  19
ATOM     19  C   UNL     1       3.571   0.843  -0.027  0.00  0.00    +0.143 C 
BRANCH  19  20
ATOM     20  C   UNL     1       2.066   0.780  -0.013  0.00  0.00    +0.129 A 
ATOM     21  N   UNL     1       1.334  -0.367  -0.013  0.00  0.00    -0.340 N 
ATOM     22  H   UNL     1       1.841  -1.343  -0.023  0.00  0.00    +0.167 HD
ATOM     23  C   UNL     1       0.002  -0.004   0.002  0.00  0.00    +0.066 A 
ATOM     24  C   UNL     1      -1.193  -0.711   0.010  0.00  0.00    +0.028 A 
ATOM     25  C   UNL     1      -2.390  -0.028   0.025  0.00  0.00    +0.002 A 
ATOM     26  C   UNL     1      -2.408   1.359   0.033  0.00  0.00    +0.002 A 
ATOM     27  C   UNL     1      -1.243   2.072   0.030  0.00  0.00    +0.030 A 
ATOM     28  C   UNL     1      -0.017   1.401   0.010  0.00  0.00    +0.089 A 
ATOM     29  N   UNL     1       1.276   1.814  -0.000  0.00  0.00    -0.231 NA
ENDBRANCH  19  20
BRANCH  19  30
ATOM     30  C   UNL     1       4.035   1.697  -1.209  0.00  0.00    +0.065 C 
BRANCH  30  31
ATOM     31  C   UNL     1       5.539   1.660  -1.295  0.00  0.00    -0.045 A 
ATOM     32  C   UNL     1       6.294   2.603  -0.623  0.00  0.00    +0.004 A 
ATOM     33  C   UNL     1       7.674   2.567  -0.698  0.00  0.00    +0.000 A 
ATOM     34  C   UNL     1       8.299   1.593  -1.455  0.00  0.00    +0.000 A 
ATOM     35  C   UNL     1       7.544   0.653  -2.132  0.00  0.00    +0.000 A 
ATOM     36  C   UNL     1       6.165   0.687  -2.052  0.00  0.00    +0.004 A 
ENDBRANCH  30  31
ENDBRANCH  19  30
ENDBRANCH   3  19
TORSDOF 5
