REMARK  Name = ZINC36507080
REMARK  15 active torsions:
REMARK  status: ('A' for Active; 'I' for Inactive)
REMARK    1  A    between atoms: C_1  and  C_2
REMARK    2  A    between atoms: C_2  and  C_3
REMARK    3  A    between atoms: N_5  and  C_6
REMARK    4  A    between atoms: N_5  and  C_12
REMARK    5  A    between atoms: C_6  and  C_7
REMARK    6  A    between atoms: C_12  and  C_14
REMARK    7  A    between atoms: C_12  and  C_24
REMARK    8  A    between atoms: C_17  and  O_22
REMARK    9  A    between atoms: C_18  and  O_20
REMARK   10  A    between atoms: O_20  and  C_21
REMARK   11  A    between atoms: O_22  and  C_23
REMARK   12  A    between atoms: N_26  and  C_27
REMARK   13  A    between atoms: C_27  and  S_28
REMARK   14  A    between atoms: S_28  and  C_31
REMARK   15  A    between atoms: C_34  and  C_37
REMARK                            x       y       z     vdW  Elec       q    Type
REMARK                         _______ _______ _______ _____ _____    ______ ____
ROOT
ATOM      1  C   UNL     1      -0.575  -2.667   0.055  0.00  0.00    +0.193 C 
ENDROOT
BRANCH   1   2
ATOM      2  C   UNL     1       0.071  -1.938   1.205  0.00  0.00    -0.015 A 
ATOM      3  C   UNL     1      -0.370  -0.675   1.555  0.00  0.00    +0.010 A 
ATOM      4  C   UNL     1       0.220  -0.002   2.609  0.00  0.00    +0.050 A 
ATOM      5  C   UNL     1       1.254  -0.593   3.318  0.00  0.00    +0.162 A 
ATOM      6  C   UNL     1       1.696  -1.864   2.965  0.00  0.00    +0.162 A 
ATOM      7  C   UNL     1       1.098  -2.535   1.911  0.00  0.00    +0.055 A 
BRANCH   6   8
ATOM      8  O   UNL     1       2.711  -2.448   3.657  0.00  0.00    -0.491 OA
ATOM      9  C   UNL     1       3.113  -3.754   3.240  0.00  0.00    +0.277 C 
ENDBRANCH   6   8
BRANCH   5  10
ATOM     10  O   UNL     1       1.834   0.068   4.354  0.00  0.00    -0.491 OA
ATOM     11  C   UNL     1       1.329   1.370   4.659  0.00  0.00    +0.277 C 
ENDBRANCH   5  10
ENDBRANCH   1   2
BRANCH   1  12
ATOM     12  C   UNL     1       0.028  -2.193  -1.242  0.00  0.00    +0.239 C 
ATOM     13  O   UNL     1      -0.151  -1.053  -1.613  0.00  0.00    -0.273 OA
ATOM     14  N   UNL     1       0.766  -3.038  -1.990  0.00  0.00    -0.294 N 
ATOM     15  H   UNL     1       0.909  -3.950  -1.693  0.00  0.00    +0.150 HD
BRANCH  14  16
ATOM     16  C   UNL     1       1.352  -2.577  -3.251  0.00  0.00    +0.278 C 
BRANCH  16  17
ATOM     17  S   UNL     1       3.058  -2.032  -2.962  0.00  0.00    +0.013 S 
ATOM     18  O   UNL     1       3.661  -1.641  -4.188  0.00  0.00    -0.168 OA
ATOM     19  O   UNL     1       3.114  -1.183  -1.824  0.00  0.00    -0.168 OA
BRANCH  17  20
ATOM     20  C   UNL     1       3.923  -3.489  -2.479  0.00  0.00    +0.090 A 
ATOM     21  C   UNL     1       3.992  -3.841  -1.144  0.00  0.00    +0.027 A 
ATOM     22  C   UNL     1       4.671  -4.984  -0.764  0.00  0.00    +0.005 A 
ATOM     23  C   UNL     1       5.281  -5.775  -1.720  0.00  0.00    -0.050 A 
ATOM     24  C   UNL     1       5.211  -5.423  -3.055  0.00  0.00    +0.005 A 
ATOM     25  C   UNL     1       4.528  -4.282  -3.435  0.00  0.00    +0.027 A 
ATOM     26  C   UNL     1       6.022  -7.020  -1.307  0.00  0.00    +0.044 C 
ENDBRANCH  17  20
ENDBRANCH  16  17
ENDBRANCH  14  16
ENDBRANCH   1  12
BRANCH   1  29
ATOM     27  C   UNL     1      -2.794  -2.881   1.039  0.00  0.00    +0.217 C 
ATOM     28  O   UNL     1      -3.997  -2.739   0.988  0.00  0.00    -0.276 OA
ATOM     29  N   UNL     1      -2.015  -2.396   0.052  0.00  0.00    -0.279 N 
BRANCH  27  31
ATOM     30  C   UNL     1      -3.259  -3.987   3.209  0.00  0.00    +0.013 C 
ATOM     31  C   UNL     1      -2.170  -3.601   2.207  0.00  0.00    +0.092 C 
ENDBRANCH  27  31
BRANCH  29  32
ATOM     32  C   UNL     1      -2.608  -1.598  -1.024  0.00  0.00    +0.183 C 
BRANCH  32  33
ATOM     33  C   UNL     1      -2.752  -0.169  -0.569  0.00  0.00    +0.122 A 
ATOM     34  C   UNL     1      -1.898   0.834  -0.841  0.00  0.00    +0.046 A 
ATOM     35  C   UNL     1      -2.418   1.994  -0.222  0.00  0.00    +0.041 A 
ATOM     36  C   UNL     1      -3.558   1.631   0.392  0.00  0.00    +0.195 A 
ATOM     37  O   UNL     1      -3.759   0.321   0.174  0.00  0.00    -0.466 OA
ENDBRANCH  32  33
ENDBRANCH  29  32
ENDBRANCH   1  29
TORSDOF 11
