REMARK  Name = ZINC06408974
REMARK  12 active torsions:
REMARK  status: ('A' for Active; 'I' for Inactive)
REMARK    1  A    between atoms: C_1  and  C_2
REMARK    2  A    between atoms: C_9  and  C_14
REMARK    3  A    between atoms: C_14  and  C_16
REMARK    4  A    between atoms: C_14  and  N_66
REMARK    5  A    between atoms: N_20  and  C_21
REMARK    6  A    between atoms: C_21  and  C_22
REMARK    7  A    between atoms: C_21  and  C_23
REMARK    8  A    between atoms: C_21  and  C_24
REMARK    9  A    between atoms: C_25  and  C_26
REMARK   10  A    between atoms: C_25  and  N_66
REMARK   11  A    between atoms: C_33  and  C_34
REMARK   12  A    between atoms: C_33  and  N_66
REMARK                            x       y       z     vdW  Elec       q    Type
REMARK                         _______ _______ _______ _____ _____    ______ ____
ROOT
ATOM      1  C   UNL     1       3.556   0.476  -0.215  0.00  0.00    +0.040 C 
ENDROOT
BRANCH   1  10
ATOM      2  C   UNL     1       2.947  -1.038  -7.492  0.00  0.00    +0.044 C 
ATOM      3  C   UNL     1       3.775  -0.644  -6.297  0.00  0.00    -0.050 A 
ATOM      4  C   UNL     1       5.134  -0.404  -6.450  0.00  0.00    +0.005 A 
ATOM      5  C   UNL     1       5.910  -0.041  -5.371  0.00  0.00    +0.026 A 
ATOM      6  C   UNL     1       5.329   0.084  -4.114  0.00  0.00    +0.049 A 
ATOM      7  C   UNL     1       3.951  -0.161  -3.962  0.00  0.00    -0.001 A 
ATOM      8  C   UNL     1       3.183  -0.527  -5.072  0.00  0.00    +0.013 A 
ATOM      9  C   UNL     1       3.350  -0.032  -2.633  0.00  0.00    +0.017 A 
ATOM     10  C   UNL     1       4.144   0.330  -1.595  0.00  0.00    +0.011 A 
ATOM     11  C   UNL     1       5.520   0.564  -1.801  0.00  0.00    +0.251 A 
ATOM     12  O   UNL     1       6.217   0.884  -0.853  0.00  0.00    -0.268 OA
ATOM     13  N   UNL     1       6.082   0.443  -3.017  0.00  0.00    -0.322 N 
ATOM     14  H   UNL     1       7.032   0.612  -3.123  0.00  0.00    +0.169 HD
ENDBRANCH   1  10
BRANCH   1  15
ATOM     15  C   UNL     1       2.053   0.392  -0.298  0.00  0.00    +0.143 A 
ATOM     16  N   UNL     1       1.261   1.190  -0.971  0.00  0.00    -0.115 NA
ATOM     17  N   UNL     1       0.049   0.792  -0.791  0.00  0.00    -0.023 NA
ATOM     18  N   UNL     1       0.048  -0.240  -0.021  0.00  0.00    -0.043 NA
ATOM     19  N   UNL     1       1.265  -0.517   0.304  0.00  0.00    -0.225 N 
BRANCH  19  20
ATOM     20  C   UNL     1       1.706  -1.615   1.168  0.00  0.00    +0.059 C 
ATOM     21  C   UNL     1       0.490  -2.424   1.626  0.00  0.00    +0.036 C 
ATOM     22  C   UNL     1       2.659  -2.525   0.390  0.00  0.00    +0.036 C 
ATOM     23  C   UNL     1       2.429  -1.045   2.390  0.00  0.00    +0.036 C 
ENDBRANCH  19  20
ENDBRANCH   1  15
BRANCH   1  24
ATOM     24  N   UNL     1       3.971   1.780   0.342  0.00  0.00    +0.397 N 
ATOM     25  H   UNL     1       4.978   1.904   0.187  0.00  0.00    -0.079 HD
BRANCH  24  26
ATOM     26  C   UNL     1       3.701   1.817   1.795  0.00  0.00    -0.039 C 
BRANCH  26  27
ATOM     27  C   UNL     1       4.209   3.122   2.353  0.00  0.00    -0.046 A 
ATOM     28  C   UNL     1       5.505   3.214   2.826  0.00  0.00    +0.003 A 
ATOM     29  C   UNL     1       5.972   4.412   3.333  0.00  0.00    +0.000 A 
ATOM     30  C   UNL     1       5.141   5.516   3.377  0.00  0.00    +0.001 A 
ATOM     31  C   UNL     1       3.844   5.424   2.909  0.00  0.00    +0.020 A 
ATOM     32  C   UNL     1       3.377   4.226   2.397  0.00  0.00    +0.042 A 
ATOM     33 CL   UNL     1       1.748   4.110   1.809  0.00  0.00    -0.083 Cl
ENDBRANCH  26  27
ENDBRANCH  24  26
BRANCH  24  34
ATOM     34  C   UNL     1       3.243   2.874  -0.335  0.00  0.00    -0.001 C 
BRANCH  34  35
ATOM     35  C   UNL     1       3.824   3.062  -1.712  0.00  0.00    +0.089 A 
ATOM     36  C   UNL     1       3.309   2.578  -2.856  0.00  0.00    +0.042 A 
ATOM     37  C   UNL     1       4.169   2.990  -3.900  0.00  0.00    +0.041 A 
ATOM     38  C   UNL     1       5.159   3.701  -3.331  0.00  0.00    +0.195 A 
ATOM     39  O   UNL     1       4.941   3.747  -2.006  0.00  0.00    -0.470 OA
ENDBRANCH  34  35
ENDBRANCH  24  34
ENDBRANCH   1  24
TORSDOF 8
