REMARK  Name = ZINC63373002
REMARK  6 active torsions:
REMARK  status: ('A' for Active; 'I' for Inactive)
REMARK    1  A    between atoms: C_1  and  C_2
REMARK    2  A    between atoms: C_5  and  N_9
REMARK    3  A    between atoms: C_7  and  C_8
REMARK    4  A    between atoms: C_12  and  C_19
REMARK    5  A    between atoms: C_26  and  O_31
REMARK    6  A    between atoms: O_31  and  C_32
REMARK                            x       y       z     vdW  Elec       q    Type
REMARK                         _______ _______ _______ _____ _____    ______ ____
ROOT
ATOM      1  N   UNL     1       0.168  -6.233   1.175  0.00  0.00    -0.229 N 
ATOM      2  C   UNL     1       0.277  -6.912   0.015  0.00  0.00    +0.270 A 
ATOM      3  O   UNL     1       0.454  -8.117   0.024  0.00  0.00    -0.267 OA
ATOM      4  C   UNL     1       0.185  -6.219  -1.205  0.00  0.00    +0.101 A 
ATOM      5  C   UNL     1      -0.013  -4.870  -1.187  0.00  0.00    +0.263 A 
ATOM      6  N   UNL     1      -0.118  -4.218   0.015  0.00  0.00    -0.274 N 
ATOM      7  H   UNL     1      -0.260  -3.259   0.033  0.00  0.00    +0.173 HD
ATOM      8  C   UNL     1      -0.032  -4.903   1.171  0.00  0.00    +0.337 A 
ATOM      9  O   UNL     1      -0.133  -4.309   2.228  0.00  0.00    -0.246 OA
ATOM     10  O   UNL     1      -0.104  -4.181  -2.345  0.00  0.00    -0.267 OA
ENDROOT
BRANCH   4  11
ATOM     11  C   UNL     1       0.304  -6.956  -2.513  0.00  0.00    +0.121 C 
ATOM     12  C   UNL     1      -0.932  -6.684  -3.374  0.00  0.00    +0.128 C 
ATOM     13  C   UNL     1      -0.885  -5.202  -3.729  0.00  0.00    -0.035 C 
ATOM     14  C   UNL     1      -2.049  -4.690  -3.356  0.00  0.00    +0.003 A 
ATOM     15  C   UNL     1      -2.628  -3.347  -3.509  0.00  0.00    +0.055 A 
ATOM     16  C   UNL     1      -3.870  -3.153  -2.985  0.00  0.00    +0.121 A 
ATOM     17  C   UNL     1      -4.605  -4.146  -2.322  0.00  0.00    +0.047 A 
ATOM     18  C   UNL     1      -4.170  -5.418  -2.130  0.00  0.00    +0.029 A 
ATOM     19  C   UNL     1      -2.840  -5.752  -2.659  0.00  0.00    +0.043 A 
ATOM     20  N   UNL     1      -2.182  -6.893  -2.644  0.00  0.00    -0.376 N 
ATOM     21  C   UNL     1       0.358  -4.563  -4.298  0.00  0.00    +0.048 C 
ATOM     22  C   UNL     1       1.525  -5.026  -3.406  0.00  0.00    +0.086 C 
ATOM     23  N   UNL     1       1.491  -6.482  -3.244  0.00  0.00    -0.307 NA
ATOM     24  H   UNL     1       2.339  -6.819  -2.813  0.00  0.00    +0.123 HD
ATOM     25  H   UNL     1      -2.464  -7.722  -2.226  0.00  0.00    +0.160 HD
BRANCH  16  26
ATOM     26  O   UNL     1      -4.431  -1.921  -3.111  0.00  0.00    -0.495 OA
ATOM     27  C   UNL     1      -5.734  -1.742  -2.552  0.00  0.00    +0.277 C 
ENDBRANCH  16  26
ENDBRANCH   4  11
BRANCH   1  32
ATOM     28  C   UNL     1       0.535  -9.015   6.108  0.00  0.00    +0.044 C 
ATOM     29  C   UNL     1       0.437  -8.276   4.798  0.00  0.00    -0.047 A 
ATOM     30  C   UNL     1      -0.793  -8.114   4.187  0.00  0.00    +0.005 A 
ATOM     31  C   UNL     1      -0.885  -7.437   2.986  0.00  0.00    +0.027 A 
ATOM     32  C   UNL     1       0.259  -6.920   2.393  0.00  0.00    +0.055 A 
ATOM     33  C   UNL     1       1.492  -7.084   3.009  0.00  0.00    +0.030 A 
ATOM     34  C   UNL     1       1.577  -7.757   4.212  0.00  0.00    -0.046 A 
ATOM     35  C   UNL     1       2.915  -7.931   4.884  0.00  0.00    +0.044 C 
ENDBRANCH   1  32
TORSDOF 3
