REMARK  Name = ZINC41585837
REMARK  8 active torsions:
REMARK  status: ('A' for Active; 'I' for Inactive)
REMARK    1  A    between atoms: C_1  and  C_2
REMARK    2  A    between atoms: C_2  and  O_3
REMARK    3  A    between atoms: O_3  and  C_4
REMARK    4  A    between atoms: C_7  and  C_10
REMARK    5  A    between atoms: C_15  and  C_35
REMARK    6  A    between atoms: C_17  and  O_34
REMARK    7  A    between atoms: C_18  and  C_21
REMARK    8  A    between atoms: C_21  and  N_22
REMARK                            x       y       z     vdW  Elec       q    Type
REMARK                         _______ _______ _______ _____ _____    ______ ____
ROOT
ATOM      1  C   UNL     1       1.220  -6.098   1.687  0.00  0.00    +0.058 C 
ATOM      2  C   UNL     1       1.935  -6.600   2.727  0.00  0.00    +0.176 C 
ATOM      3  C   UNL     1       2.244  -8.017   2.964  0.00  0.00    +0.232 C 
ATOM      4  O   UNL     1       1.921  -8.975   2.283  0.00  0.00    -0.283 OA
ATOM      5  C   UNL     1       3.033  -8.020   4.209  0.00  0.00    +0.071 A 
ATOM      6  C   UNL     1       3.624  -9.036   4.962  0.00  0.00    -0.033 A 
ATOM      7  C   UNL     1       4.311  -8.727   6.101  0.00  0.00    +0.050 A 
ATOM      8  C   UNL     1       4.423  -7.401   6.513  0.00  0.00    +0.125 A 
ATOM      9  C   UNL     1       3.841  -6.383   5.776  0.00  0.00    +0.051 A 
ATOM     10  C   UNL     1       3.139  -6.680   4.613  0.00  0.00    +0.148 A 
ATOM     11  O   UNL     1       2.498  -5.886   3.730  0.00  0.00    -0.451 OA
ATOM     12  C   UNL     1       3.504 -10.471   4.519  0.00  0.00    +0.045 C 
ENDROOT
BRANCH   1  16
ATOM     13  C   UNL     1       0.849  -1.902   1.200  0.00  0.00    +0.121 A 
ATOM     14  C   UNL     1       1.470  -2.416   2.333  0.00  0.00    +0.046 A 
ATOM     15  C   UNL     1       1.593  -3.777   2.497  0.00  0.00    +0.011 A 
ATOM     16  C   UNL     1       1.091  -4.645   1.519  0.00  0.00    -0.021 A 
ATOM     17  C   UNL     1       0.466  -4.122   0.380  0.00  0.00    +0.011 A 
ATOM     18  C   UNL     1       0.344  -2.760   0.229  0.00  0.00    +0.046 A 
BRANCH  13  19
ATOM     19  O   UNL     1       0.731  -0.559   1.044  0.00  0.00    -0.492 OA
BRANCH  19  21
ATOM     20  C   UNL     1       1.044   1.737   1.731  0.00  0.00    +0.048 C 
ATOM     21  C   UNL     1       1.271   0.265   2.080  0.00  0.00    +0.225 C 
ENDBRANCH  19  21
ENDBRANCH  13  19
ENDBRANCH   1  16
BRANCH   8  22
ATOM     22  O   UNL     1       5.107  -7.104   7.647  0.00  0.00    -0.506 OA
ATOM     23  H   UNL     1       6.048  -6.935   7.505  0.00  0.00    +0.292 HD
ENDBRANCH   8  22
BRANCH   9  24
ATOM     24  C   UNL     1       3.970  -4.953   6.233  0.00  0.00    +0.127 C 
BRANCH  24  25
ATOM     25  N   UNL     1       5.176  -4.357   5.645  0.00  0.00    -0.295 NA
ATOM     26  C   UNL     1       5.054  -4.255   4.184  0.00  0.00    +0.103 C 
ATOM     27  C   UNL     1       6.393  -3.800   3.594  0.00  0.00    +0.122 C 
ATOM     28  N   UNL     1       6.807  -2.562   4.271  0.00  0.00    -0.314 N 
ATOM     29  C   UNL     1       6.822  -2.546   5.742  0.00  0.00    +0.122 C 
ATOM     30  C   UNL     1       5.466  -3.049   6.248  0.00  0.00    +0.103 C 
ATOM     31  C   UNL     1       7.174  -1.438   3.542  0.00  0.00    +0.099 A 
ATOM     32  C   UNL     1       7.689  -0.326   4.201  0.00  0.00    +0.042 A 
ATOM     33  C   UNL     1       8.050   0.786   3.462  0.00  0.00    +0.005 A 
ATOM     34  C   UNL     1       7.884   0.749   2.084  0.00  0.00    +0.018 A 
ATOM     35  C   UNL     1       7.367  -0.387   1.496  0.00  0.00    +0.084 A 
ATOM     36  N   UNL     1       7.036  -1.436   2.225  0.00  0.00    -0.350 N 
ATOM     37  H   UNL     1       6.679  -2.224   1.786  0.00  0.00    +0.166 HD
ENDBRANCH  24  25
ENDBRANCH   9  24
TORSDOF 6
