REMARK  Name = ZINC35370162
REMARK  3 active torsions:
REMARK  status: ('A' for Active; 'I' for Inactive)
REMARK    1  A    between atoms: C_3  and  C_8
REMARK    2  A    between atoms: N_22  and  C_23
REMARK    3  A    between atoms: C_26  and  N_29
REMARK                            x       y       z     vdW  Elec       q    Type
REMARK                         _______ _______ _______ _____ _____    ______ ____
ROOT
ATOM      1  C   UNL     1       3.345   2.314  -1.120  0.00  0.00    +0.248 C 
ATOM      2  O   UNL     1       3.293   3.520  -0.980  0.00  0.00    -0.270 OA
ATOM      3  N   UNL     1       4.199   1.585  -0.374  0.00  0.00    -0.282 N 
ATOM      4  C   UNL     1       4.145   0.125  -0.336  0.00  0.00    +0.120 C 
ATOM      5  C   UNL     1       5.565  -0.477  -0.112  0.00  0.00    +0.090 C 
ATOM      6  S   UNL     1       6.205   0.779   1.086  0.00  0.00    -0.133 S 
ATOM      7  C   UNL     1       5.245   2.209   0.446  0.00  0.00    +0.087 C 
ATOM      8  C   UNL     1       4.642   2.979   1.612  0.00  0.00    +0.056 C 
ATOM      9  C   UNL     1       3.821   4.158   1.075  0.00  0.00    +0.112 C 
ATOM     10  N   UNL     1       4.670   4.950   0.174  0.00  0.00    -0.285 N 
ATOM     11  C   UNL     1       5.337   4.276  -0.947  0.00  0.00    +0.112 C 
ATOM     12  C   UNL     1       6.149   3.096  -0.399  0.00  0.00    +0.056 C 
ATOM     13  C   UNL     1       4.832   6.273   0.373  0.00  0.00    +0.306 C 
ATOM     14  O   UNL     1       4.401   6.794   1.384  0.00  0.00    -0.252 OA
ATOM     15  N   UNL     1       5.473   7.019  -0.548  0.00  0.00    -0.269 N 
ATOM     16  H   UNL     1       5.894   6.593  -1.311  0.00  0.00    +0.156 HD
ENDROOT
BRANCH   1  19
ATOM     17  C   UNL     1       1.208   1.714  -4.150  0.00  0.00    +0.002 A 
ATOM     18  C   UNL     1       2.023   2.343  -3.231  0.00  0.00    +0.013 A 
ATOM     19  C   UNL     1       2.472   1.646  -2.108  0.00  0.00    +0.038 A 
ATOM     20  C   UNL     1       2.094   0.315  -1.923  0.00  0.00    +0.033 A 
ATOM     21  C   UNL     1       1.278  -0.303  -2.850  0.00  0.00    +0.042 A 
ATOM     22  C   UNL     1       0.837   0.395  -3.962  0.00  0.00    +0.020 A 
ATOM     23 CL   UNL     1       0.807  -1.958  -2.623  0.00  0.00    -0.084 Cl
ENDBRANCH   1  19
BRANCH  15  24
ATOM     24  C   UNL     1       5.533   8.410  -0.403  0.00  0.00    +0.035 A 
ATOM     25  C   UNL     1       5.693   8.973   0.856  0.00  0.00    +0.025 A 
ATOM     26  C   UNL     1       5.752  10.346   0.995  0.00  0.00    +0.034 A 
ATOM     27  C   UNL     1       5.652  11.160  -0.118  0.00  0.00    +0.126 A 
ATOM     28  C   UNL     1       5.493  10.603  -1.374  0.00  0.00    +0.034 A 
ATOM     29  C   UNL     1       5.439   9.230  -1.520  0.00  0.00    +0.025 A 
BRANCH  27  30
ATOM     30  N   UNL     1       5.716  12.631   0.035  0.00  0.00    +0.056 N 
ATOM     31  O   UNL     1       5.855  13.119   1.132  0.00  0.00    -0.126 OA
ATOM     32  O   UNL     1       5.629  13.344  -0.938  0.00  0.00    -0.126 OA
ENDBRANCH  27  30
ENDBRANCH  15  24
TORSDOF 3
