REMARK  Name = ZINC32718909
REMARK  4 active torsions:
REMARK  status: ('A' for Active; 'I' for Inactive)
REMARK    1  A    between atoms: C_6  and  C_7
REMARK    2  A    between atoms: N_12  and  C_13
REMARK    3  A    between atoms: C_13  and  C_14
REMARK    4  A    between atoms: C_20  and  C_22
REMARK                            x       y       z     vdW  Elec       q    Type
REMARK                         _______ _______ _______ _____ _____    ______ ____
ROOT
ATOM      1  C   UNL     1      -3.185   6.304  -2.934  0.00  0.00    +0.200 C 
ATOM      2  O   UNL     1      -2.898   7.362  -2.416  0.00  0.00    -0.278 OA
ATOM      3  N   UNL     1      -3.638   6.276  -4.203  0.00  0.00    -0.296 N 
ATOM      4  C   UNL     1      -4.022   5.065  -4.951  0.00  0.00    +0.108 C 
ATOM      5  C   UNL     1      -5.011   5.565  -6.034  0.00  0.00    +0.021 C 
ATOM      6  C   UNL     1      -4.389   6.934  -6.415  0.00  0.00    +0.029 C 
ATOM      7  C   UNL     1      -3.837   7.447  -5.068  0.00  0.00    +0.106 C 
ENDROOT
BRANCH   7   8
ATOM      8  C   UNL     1      -2.522   8.150  -5.290  0.00  0.00    -0.023 A 
ATOM      9  C   UNL     1      -1.371   7.410  -5.488  0.00  0.00    +0.009 A 
ATOM     10  C   UNL     1      -0.160   8.048  -5.692  0.00  0.00    +0.050 A 
ATOM     11  C   UNL     1      -0.106   9.431  -5.699  0.00  0.00    +0.162 A 
ATOM     12  C   UNL     1      -1.262  10.173  -5.501  0.00  0.00    +0.162 A 
ATOM     13  C   UNL     1      -2.472   9.532  -5.302  0.00  0.00    +0.055 A 
ATOM     14  O   UNL     1      -1.197  11.537  -5.509  0.00  0.00    -0.488 OA
ATOM     15  C   UNL     1      -0.900  12.141  -6.769  0.00  0.00    +0.232 C 
ATOM     16  C   UNL     1       0.602  12.180  -7.007  0.00  0.00    +0.082 C 
ATOM     17  C   UNL     1       1.205  10.790  -7.129  0.00  0.00    +0.232 C 
ATOM     18  O   UNL     1       1.082  10.073  -5.899  0.00  0.00    -0.488 OA
ENDBRANCH   7   8
BRANCH   1  19
ATOM     19  C   UNL     1      -3.035   5.021  -2.158  0.00  0.00    +0.020 C 
BRANCH  19  24
ATOM     20  C   UNL     1      -2.592   4.122   0.055  0.00  0.00    -0.037 C 
ATOM     21  C   UNL     1      -2.903   4.614   1.481  0.00  0.00    -0.013 C 
ATOM     22  C   UNL     1      -3.040   6.149   1.358  0.00  0.00    -0.020 C 
ATOM     23  C   UNL     1      -3.365   6.348  -0.144  0.00  0.00    -0.077 C 
ATOM     24  N   UNL     1      -2.528   5.318  -0.812  0.00  0.00    +0.390 N 
ATOM     25  H   UNL     1      -1.492   5.660  -0.951  0.00  0.00    -0.080 HD
BRANCH  20  31
ATOM     26  C   UNL     1      -0.090   4.126   0.032  0.00  0.00    +0.006 A 
ATOM     27  C   UNL     1       1.126   3.470   0.015  0.00  0.00    +0.049 A 
ATOM     28  C   UNL     1       1.168   2.084   0.002  0.00  0.00    +0.162 A 
ATOM     29  C   UNL     1      -0.016   1.357   0.009  0.00  0.00    +0.162 A 
ATOM     30  C   UNL     1      -1.233   2.021   0.030  0.00  0.00    +0.051 A 
ATOM     31  C   UNL     1      -1.268   3.403   0.037  0.00  0.00    -0.057 A 
ATOM     32  O   UNL     1       0.002  -0.004   0.002  0.00  0.00    -0.485 OA
ATOM     33  C   UNL     1       1.229  -0.629  -0.390  0.00  0.00    +0.270 C 
ATOM     34  C   UNL     1       2.381   0.069   0.347  0.00  0.00    +0.270 C 
ATOM     35  O   UNL     1       2.373   1.453  -0.019  0.00  0.00    -0.485 OA
ENDBRANCH  20  31
ENDBRANCH  19  24
ENDBRANCH   1  19
TORSDOF 4
