REMARK  Name = ZINC15866226
REMARK  6 active torsions:
REMARK  status: ('A' for Active; 'I' for Inactive)
REMARK    1  A    between atoms: C_1  and  C_2
REMARK    2  A    between atoms: C_2  and  C_3
REMARK    3  A    between atoms: C_6  and  C_9
REMARK    4  A    between atoms: C_12  and  C_20
REMARK    5  A    between atoms: C_23  and  S_26
REMARK    6  A    between atoms: S_26  and  C_27
REMARK                            x       y       z     vdW  Elec       q    Type
REMARK                         _______ _______ _______ _____ _____    ______ ____
ROOT
ATOM      1  C   UNL     1      -2.807   3.000  -4.674  0.00  0.00    +0.106 C 
ATOM      2  C   UNL     1      -2.248   2.311  -5.924  0.00  0.00    +0.059 C 
ATOM      3  C   UNL     1      -2.950   2.857  -7.175  0.00  0.00    +0.144 C 
ATOM      4  N   UNL     1      -4.393   2.829  -6.954  0.00  0.00    -0.206 N 
ATOM      5  C   UNL     1      -4.981   2.743  -5.733  0.00  0.00    +0.236 A 
ATOM      6  N   UNL     1      -6.270   2.740  -5.923  0.00  0.00    -0.092 NA
ATOM      7  N   UNL     1      -6.536   2.821  -7.182  0.00  0.00    -0.021 NA
ATOM      8  N   UNL     1      -5.443   2.879  -7.871  0.00  0.00    -0.042 NA
ATOM      9  N   UNL     1      -4.243   2.678  -4.559  0.00  0.00    -0.305 N 
ATOM     10  H   UNL     1      -4.648   2.435  -3.712  0.00  0.00    +0.150 HD
ENDROOT
BRANCH   1  14
ATOM     11  C   UNL     1      -0.742   1.585  -1.213  0.00  0.00    -0.048 A 
ATOM     12  C   UNL     1      -1.750   0.825  -1.775  0.00  0.00    +0.004 A 
ATOM     13  C   UNL     1      -2.421   1.285  -2.892  0.00  0.00    +0.006 A 
ATOM     14  C   UNL     1      -2.078   2.501  -3.453  0.00  0.00    -0.027 A 
ATOM     15  C   UNL     1      -1.067   3.259  -2.894  0.00  0.00    +0.006 A 
ATOM     16  C   UNL     1      -0.398   2.801  -1.774  0.00  0.00    +0.004 A 
BRANCH  11  18
ATOM     17  C   UNL     1      -0.729   1.579   1.267  0.00  0.00    +0.009 C 
ATOM     18  C   UNL     1      -0.013   1.086   0.008  0.00  0.00    +0.032 C 
ENDBRANCH  11  18
ENDBRANCH   1  14
BRANCH   3  19
ATOM     19  C   UNL     1      -2.601   1.999  -8.364  0.00  0.00    -0.023 A 
ATOM     20  C   UNL     1      -2.917   0.652  -8.359  0.00  0.00    +0.007 A 
ATOM     21  C   UNL     1      -2.604  -0.136  -9.449  0.00  0.00    +0.015 A 
ATOM     22  C   UNL     1      -1.961   0.424 -10.547  0.00  0.00    +0.008 A 
ATOM     23  C   UNL     1      -1.641   1.776 -10.546  0.00  0.00    +0.015 A 
ATOM     24  C   UNL     1      -1.962   2.559  -9.455  0.00  0.00    +0.007 A 
BRANCH  22  25
ATOM     25  S   UNL     1      -1.553  -0.579 -11.937  0.00  0.00    -0.129 S 
ATOM     26  C   UNL     1      -2.156  -2.228 -11.481  0.00  0.00    +0.090 C 
ENDBRANCH  22  25
ENDBRANCH   3  19
TORSDOF 4
