REMARK  Name = ZINC39690168
REMARK  6 active torsions:
REMARK  status: ('A' for Active; 'I' for Inactive)
REMARK    1  A    between atoms: C_1  and  C_2
REMARK    2  A    between atoms: C_6  and  C_9
REMARK    3  A    between atoms: C_13  and  C_22
REMARK    4  A    between atoms: N_24  and  C_25
REMARK    5  A    between atoms: C_25  and  C_26
REMARK    6  A    between atoms: C_29  and  N_32
REMARK                            x       y       z     vdW  Elec       q    Type
REMARK                         _______ _______ _______ _____ _____    ______ ____
ROOT
ATOM      1  C   UNL     1       0.044  -2.835   2.444  0.00  0.00    +0.251 C 
ATOM      2  O   UNL     1       1.106  -3.126   2.958  0.00  0.00    -0.270 OA
ATOM      3  N   UNL     1      -1.113  -3.199   3.034  0.00  0.00    -0.296 N 
ATOM      4  C   UNL     1      -2.493  -2.943   2.560  0.00  0.00    +0.121 C 
ATOM      5  C   UNL     1      -3.264  -4.243   2.883  0.00  0.00    +0.100 C 
ATOM      6  C   UNL     1      -2.470  -4.895   4.029  0.00  0.00    -0.004 C 
ATOM      7  C   UNL     1      -1.290  -3.950   4.299  0.00  0.00    +0.115 C 
ATOM      8  C   UNL     1      -3.345  -5.020   5.273  0.00  0.00    -0.010 C 
ATOM      9  C   UNL     1      -2.553  -5.723   6.379  0.00  0.00    -0.082 C 
ATOM     10  N   UNL     1      -2.134  -7.051   5.915  0.00  0.00    +0.379 N 
ATOM     11  C   UNL     1      -1.219  -6.918   4.775  0.00  0.00    -0.082 C 
ATOM     12  C   UNL     1      -1.955  -6.266   3.601  0.00  0.00    -0.010 C 
ATOM     13  H   UNL     1      -1.666  -7.536   6.666  0.00  0.00    -0.086 HD
ATOM     14  H   UNL     1      -2.947  -7.579   5.633  0.00  0.00    -0.086 HD
ENDROOT
BRANCH   1  20
ATOM     15  C   UNL     1      -0.056   1.518  -0.001  0.00  0.00    +0.047 C 
ATOM     16  C   UNL     1      -0.028   0.012  -0.009  0.00  0.00    -0.014 A 
ATOM     17  C   UNL     1      -0.026  -0.671  -1.212  0.00  0.00    +0.007 A 
ATOM     18  C   UNL     1      -0.001  -2.054  -1.230  0.00  0.00    +0.021 A 
ATOM     19  C   UNL     1       0.022  -2.765  -0.046  0.00  0.00    +0.056 A 
ATOM     20  C   UNL     1       0.020  -2.083   1.174  0.00  0.00    +0.091 A 
ATOM     21  C   UNL     1       0.000  -0.684   1.185  0.00  0.00    +0.140 A 
ATOM     22  F   UNL     1       0.003  -0.016   2.359  0.00  0.00    -0.204 F 
ATOM     23 CL   UNL     1       0.052  -4.500  -0.073  0.00  0.00    -0.083 Cl
ENDBRANCH   1  20
BRANCH   5  24
ATOM     24  C   UNL     1      -3.292  -5.149   1.680  0.00  0.00    +0.218 C 
ATOM     25  O   UNL     1      -2.423  -5.067   0.838  0.00  0.00    -0.275 OA
ATOM     26  N   UNL     1      -4.283  -6.051   1.538  0.00  0.00    -0.311 N 
ATOM     27  H   UNL     1      -4.979  -6.117   2.212  0.00  0.00    +0.149 HD
BRANCH  26  28
ATOM     28  C   UNL     1      -4.311  -6.933   0.368  0.00  0.00    +0.139 C 
BRANCH  28  29
ATOM     29  C   UNL     1      -5.512  -7.839   0.451  0.00  0.00    -0.030 A 
ATOM     30  C   UNL     1      -5.411  -9.062   1.088  0.00  0.00    +0.007 A 
ATOM     31  C   UNL     1      -6.510  -9.896   1.165  0.00  0.00    +0.026 A 
ATOM     32  C   UNL     1      -7.717  -9.504   0.602  0.00  0.00    +0.046 A 
ATOM     33  C   UNL     1      -7.815  -8.275  -0.037  0.00  0.00    +0.026 A 
ATOM     34  C   UNL     1      -6.714  -7.444  -0.106  0.00  0.00    +0.007 A 
BRANCH  32  35
ATOM     35  N   UNL     1      -8.834 -10.348   0.678  0.00  0.00    -0.323 N 
ATOM     36  C   UNL     1      -8.867 -11.572   1.281  0.00  0.00    +0.091 A 
ATOM     37  C   UNL     1     -10.111 -12.075   1.147  0.00  0.00    +0.019 A 
ATOM     38  C   UNL     1     -10.875 -11.127   0.435  0.00  0.00    +0.019 A 
ATOM     39  C   UNL     1     -10.071 -10.079   0.167  0.00  0.00    +0.091 A 
ENDBRANCH  32  35
ENDBRANCH  28  29
ENDBRANCH  26  28
ENDBRANCH   5  24
TORSDOF 5
