REMARK  Name = ZINC16040809
REMARK  2 active torsions:
REMARK  status: ('A' for Active; 'I' for Inactive)
REMARK    1  A    between atoms: C_4  and  N_7
REMARK    2  A    between atoms: C_23  and  C_29
REMARK                            x       y       z     vdW  Elec       q    Type
REMARK                         _______ _______ _______ _____ _____    ______ ____
ROOT
ATOM      1  N   UNL     1       3.624  -0.652  -0.037  0.00  0.00    -0.210 N 
ATOM      2  C   UNL     1       3.714  -1.988   0.047  0.00  0.00    +0.232 C 
ATOM      3  O   UNL     1       2.795  -2.747   0.268  0.00  0.00    -0.274 OA
ATOM      4  C   UNL     1       5.158  -2.389  -0.180  0.00  0.00    +0.115 C 
ATOM      5  C   UNL     1       5.621  -3.325   0.939  0.00  0.00    +0.117 C 
ATOM      6  C   UNL     1       6.485  -4.435   0.397  0.00  0.00    -0.019 A 
ATOM      7  C   UNL     1       6.234  -4.989  -0.837  0.00  0.00    +0.006 A 
ATOM      8  C   UNL     1       7.045  -6.004  -1.317  0.00  0.00    +0.000 A 
ATOM      9  C   UNL     1       8.108  -6.465  -0.560  0.00  0.00    +0.001 A 
ATOM     10  C   UNL     1       8.368  -5.919   0.680  0.00  0.00    +0.008 A 
ATOM     11  C   UNL     1       7.554  -4.897   1.173  0.00  0.00    -0.019 A 
ATOM     12  C   UNL     1       7.818  -4.315   2.505  0.00  0.00    +0.023 C 
ATOM     13  C   UNL     1       7.267  -3.128   2.827  0.00  0.00    +0.072 C 
ATOM     14  N   UNL     1       6.440  -2.535   1.878  0.00  0.00    -0.316 N 
ATOM     15  C   UNL     1       6.286  -1.117   1.565  0.00  0.00    +0.172 C 
ATOM     16  C   UNL     1       5.911  -1.047   0.052  0.00  0.00    +0.119 C 
ATOM     17  C   UNL     1       4.805  -0.027  -0.145  0.00  0.00    +0.232 C 
ATOM     18  O   UNL     1       4.963   1.156  -0.361  0.00  0.00    -0.274 OA
ENDROOT
BRANCH   1  22
ATOM     19  C   UNL     1      -0.017   1.377   0.011  0.00  0.00    +0.000 A 
ATOM     20  C   UNL     1       0.753   1.369  -1.138  0.00  0.00    +0.002 A 
ATOM     21  C   UNL     1       1.960   0.697  -1.157  0.00  0.00    +0.024 A 
ATOM     22  C   UNL     1       2.399   0.031  -0.021  0.00  0.00    +0.044 A 
ATOM     23  C   UNL     1       1.624   0.041   1.130  0.00  0.00    +0.024 A 
ATOM     24  C   UNL     1       0.418   0.714   1.143  0.00  0.00    +0.002 A 
ENDBRANCH   1  22
BRANCH  15  25
ATOM     25  C   UNL     1       5.187  -0.516   2.403  0.00  0.00    +0.232 C 
ATOM     26  O   UNL     1       4.367  -1.236   2.933  0.00  0.00    -0.274 OA
ATOM     27  N   UNL     1       5.115   0.820   2.563  0.00  0.00    -0.328 N 
ATOM     28  H   UNL     1       5.771   1.395   2.139  0.00  0.00    +0.145 HD
ATOM     29  H   UNL     1       4.407   1.206   3.102  0.00  0.00    +0.145 HD
ENDBRANCH  15  25
TORSDOF 2
