REMARK  Name = ZINC21302446
REMARK  5 active torsions:
REMARK  status: ('A' for Active; 'I' for Inactive)
REMARK    1  A    between atoms: C_1  and  C_2
REMARK    2  A    between atoms: C_5  and  O_24
REMARK    3  A    between atoms: C_8  and  C_23
REMARK    4  A    between atoms: C_11  and  N_13
REMARK    5  A    between atoms: N_13  and  C_14
REMARK                            x       y       z     vdW  Elec       q    Type
REMARK                         _______ _______ _______ _____ _____    ______ ____
ROOT
ATOM      1  C   UNL     1       4.310   0.254  -3.480  0.00  0.00    +0.044 C 
ATOM      2  C   UNL     1       3.221   1.212  -3.070  0.00  0.00    -0.046 A 
ATOM      3  C   UNL     1       2.776   2.169  -3.961  0.00  0.00    +0.007 A 
ATOM      4  C   UNL     1       1.778   3.049  -3.588  0.00  0.00    +0.046 A 
ATOM      5  C   UNL     1       1.227   2.970  -2.319  0.00  0.00    +0.122 A 
ATOM      6  C   UNL     1       1.676   2.008  -1.423  0.00  0.00    +0.018 A 
ATOM      7  C   UNL     1       2.674   1.130  -1.800  0.00  0.00    -0.033 A 
ATOM      8  C   UNL     1       2.985   0.187  -0.657  0.00  0.00    +0.019 C 
ATOM      9  C   UNL     1       2.385   0.859   0.596  0.00  0.00    +0.035 C 
ATOM     10  C   UNL     1       1.248   1.716  -0.001  0.00  0.00    +0.105 C 
ATOM     11  C   UNL     1       2.327  -1.173  -0.897  0.00  0.00    +0.012 C 
ENDROOT
BRANCH  10  12
ATOM     12  N   UNL     1      -0.011   0.966   0.007  0.00  0.00    -0.337 N 
ATOM     13  H   UNL     1       0.004  -0.134   0.006  0.00  0.00    +0.147 HD
BRANCH  12  14
ATOM     14  C   UNL     1      -1.232   1.649   0.017  0.00  0.00    +0.031 A 
ATOM     15  C   UNL     1      -1.251   3.037   0.025  0.00  0.00    +0.027 A 
ATOM     16  C   UNL     1      -2.457   3.713   0.033  0.00  0.00    +0.051 A 
ATOM     17  C   UNL     1      -3.649   3.008   0.034  0.00  0.00    +0.166 A 
ATOM     18  C   UNL     1      -3.633   1.616   0.027  0.00  0.00    +0.168 A 
ATOM     19  C   UNL     1      -2.425   0.939   0.013  0.00  0.00    +0.072 A 
ATOM     20  O   UNL     1      -4.922   1.165   0.029  0.00  0.00    -0.453 OA
ATOM     21  C   UNL     1      -5.724   2.290  -0.374  0.00  0.00    +0.466 C 
ATOM     22  O   UNL     1      -4.949   3.429   0.041  0.00  0.00    -0.453 OA
ENDBRANCH  12  14
ENDBRANCH  10  12
BRANCH   5  23
ATOM     23  O   UNL     1       0.246   3.835  -1.950  0.00  0.00    -0.506 OA
ATOM     24  H   UNL     1      -0.193   3.773  -0.943  0.00  0.00    +0.292 HD
ENDBRANCH   5  23
TORSDOF 3
