REMARK  Name = ZINC03144367
REMARK  10 active torsions:
REMARK  status: ('A' for Active; 'I' for Inactive)
REMARK    1  A    between atoms: C_1  and  C_2
REMARK    2  A    between atoms: C_2  and  C_3
REMARK    3  A    between atoms: C_2  and  C_4
REMARK    4  A    between atoms: C_2  and  C_5
REMARK    5  A    between atoms: C_5  and  C_7
REMARK    6  A    between atoms: C_5  and  N_22
REMARK    7  A    between atoms: C_7  and  N_9
REMARK    8  A    between atoms: C_7  and  O_14
REMARK    9  A    between atoms: O_14  and  C_15
REMARK   10  A    between atoms: N_27  and  C_33
REMARK                            x       y       z     vdW  Elec       q    Type
REMARK                         _______ _______ _______ _____ _____    ______ ____
ROOT
ATOM      1  C   UNL     1       0.507  -0.715  -1.402  0.00  0.00    +0.149 C 
ENDROOT
BRANCH   1   2
ATOM      2  N   UNL     1       0.239  -2.068  -1.894  0.00  0.00    -0.366 N 
ATOM      3  C   UNL     1      -0.965  -2.414  -2.211  0.00  0.00    +0.098 C 
ATOM      4  N   UNL     1      -2.107  -1.641  -2.155  0.00  0.00    -0.285 N 
ATOM      5  C   UNL     1      -3.177  -2.336  -2.563  0.00  0.00    +0.143 C 
ATOM      6  S   UNL     1      -4.762  -1.691  -2.624  0.00  0.00    -0.018 S 
ATOM      7  N   UNL     1      -2.869  -3.599  -2.920  0.00  0.00    -0.269 N 
ATOM      8  C   UNL     1      -1.430  -3.747  -2.729  0.00  0.00    +0.094 C 
ATOM      9  C   UNL     1      -1.096  -4.885  -1.754  0.00  0.00    +0.034 C 
ATOM     10  C   UNL     1      -1.087  -6.150  -2.642  0.00  0.00    +0.003 C 
ATOM     11  C   UNL     1      -0.843  -5.674  -4.086  0.00  0.00    +0.003 C 
ATOM     12  C   UNL     1      -0.711  -4.136  -4.029  0.00  0.00    +0.034 C 
ATOM     13  H   UNL     1      -2.131  -0.717  -1.859  0.00  0.00    +0.155 HD
ATOM     14  H   UNL     1       0.966  -2.705  -1.982  0.00  0.00    +0.161 HD
BRANCH   7  15
ATOM     15  C   UNL     1      -3.755  -4.576  -3.388  0.00  0.00    +0.036 A 
ATOM     16  C   UNL     1      -4.404  -5.414  -2.490  0.00  0.00    +0.023 A 
ATOM     17  C   UNL     1      -5.278  -6.377  -2.955  0.00  0.00    +0.002 A 
ATOM     18  C   UNL     1      -5.506  -6.507  -4.313  0.00  0.00    +0.000 A 
ATOM     19  C   UNL     1      -4.862  -5.675  -5.209  0.00  0.00    +0.002 A 
ATOM     20  C   UNL     1      -3.991  -4.705  -4.750  0.00  0.00    +0.023 A 
ENDBRANCH   7  15
ENDBRANCH   1   2
BRANCH   1  22
ATOM     21  C   UNL     1       0.685   0.704   0.647  0.00  0.00    +0.013 C 
ATOM     22  C   UNL     1       0.251  -0.660   0.105  0.00  0.00    -0.012 C 
ATOM     23  C   UNL     1       1.053  -1.763   0.799  0.00  0.00    +0.013 C 
ATOM     24  C   UNL     1      -1.240  -0.865   0.377  0.00  0.00    +0.013 C 
ENDBRANCH   1  22
BRANCH   1  25
ATOM     25  C   UNL     1       1.965  -0.348  -1.686  0.00  0.00    +0.317 C 
BRANCH  25  26
ATOM     26  N   UNL     1       2.198  -0.356  -3.132  0.00  0.00    -0.211 N 
ATOM     27  C   UNL     1       2.699   0.648  -3.873  0.00  0.00    +0.223 A 
ATOM     28  N   UNL     1       2.751   0.247  -5.117  0.00  0.00    -0.223 NA
ATOM     29  C   UNL     1       2.295  -1.002  -5.210  0.00  0.00    +0.245 A 
ATOM     30  N   UNL     1       1.949  -1.416  -4.019  0.00  0.00    -0.155 NA
ENDBRANCH  25  26
BRANCH  25  31
ATOM     31  O   UNL     1       2.826  -1.301  -1.059  0.00  0.00    -0.465 OA
BRANCH  31  32
ATOM     32  C   UNL     1       4.088  -0.890  -0.762  0.00  0.00    +0.124 A 
ATOM     33  C   UNL     1       4.968  -1.756  -0.130  0.00  0.00    +0.047 A 
ATOM     34  C   UNL     1       6.250  -1.337   0.172  0.00  0.00    +0.023 A 
ATOM     35  C   UNL     1       6.655  -0.055  -0.155  0.00  0.00    +0.041 A 
ATOM     36  C   UNL     1       5.777   0.810  -0.785  0.00  0.00    +0.023 A 
ATOM     37  C   UNL     1       4.497   0.392  -1.095  0.00  0.00    +0.047 A 
ATOM     38 CL   UNL     1       8.265   0.469   0.226  0.00  0.00    -0.084 Cl
ENDBRANCH  31  32
ENDBRANCH  25  31
ENDBRANCH   1  25
TORSDOF 7
