REMARK  Name = ZINC22976624
REMARK  11 active torsions:
REMARK  status: ('A' for Active; 'I' for Inactive)
REMARK    1  A    between atoms: C_1  and  C_2
REMARK    2  A    between atoms: C_7  and  N_12
REMARK    3  A    between atoms: C_9  and  C_11
REMARK    4  A    between atoms: N_12  and  C_13
REMARK    5  A    between atoms: C_13  and  N_15
REMARK    6  A    between atoms: N_15  and  N_16
REMARK    7  A    between atoms: C_17  and  C_19
REMARK    8  A    between atoms: C_19  and  C_20
REMARK    9  A    between atoms: C_20  and  C_22
REMARK   10  A    between atoms: C_20  and  N_23
REMARK   11  A    between atoms: C_24  and  C_26
REMARK                            x       y       z     vdW  Elec       q    Type
REMARK                         _______ _______ _______ _____ _____    ______ ____
ROOT
ATOM      1  N   UNL     1       2.342  -0.403  -0.022  0.00  0.00    -0.235 N 
ATOM      2  C   UNL     1       3.518  -1.061  -0.037  0.00  0.00    +0.231 C 
ATOM      3  O   UNL     1       4.560  -0.441  -0.044  0.00  0.00    -0.274 OA
ATOM      4  H   UNL     1       1.397  -0.966  -0.017  0.00  0.00    +0.173 HD
ENDROOT
BRANCH   1   5
ATOM      5  N   UNL     1       2.323   0.998  -0.015  0.00  0.00    -0.246 N 
ATOM      6  H   UNL     1       3.268   1.560  -0.021  0.00  0.00    +0.172 HD
BRANCH   5   7
ATOM      7  C   UNL     1       1.147   1.655   0.000  0.00  0.00    +0.147 C 
ATOM      8  S   UNL     1       1.124   3.367   0.009  0.00  0.00    -0.017 S 
BRANCH   7   9
ATOM      9  N   UNL     1      -0.011   0.966   0.007  0.00  0.00    -0.322 N 
ATOM     10  H   UNL     1       0.004  -0.134   0.006  0.00  0.00    +0.148 HD
BRANCH   9  16
ATOM     11  C   UNL     1      -3.590  -1.381  -0.380  0.00  0.00    +0.008 C 
ATOM     12  C   UNL     1      -2.504  -0.492   0.229  0.00  0.00    -0.009 C 
ATOM     13  C   UNL     1      -2.881  -0.141   1.670  0.00  0.00    +0.003 C 
ATOM     14  C   UNL     1      -1.794   0.747   2.279  0.00  0.00    +0.002 C 
ATOM     15  C   UNL     1      -1.667   2.032   1.458  0.00  0.00    +0.022 C 
ATOM     16  C   UNL     1      -1.290   1.681   0.017  0.00  0.00    +0.075 C 
ATOM     17  C   UNL     1      -2.376   0.792  -0.592  0.00  0.00    +0.009 C 
ATOM     18  C   UNL     1      -1.999   0.442  -2.033  0.00  0.00    +0.009 C 
ENDBRANCH   9  16
ENDBRANCH   7   9
ENDBRANCH   5   7
ENDBRANCH   1   5
BRANCH   2  19
ATOM     19  C   UNL     1       3.539  -2.568  -0.045  0.00  0.00    +0.119 C 
BRANCH  19  20
ATOM     20  C   UNL     1       4.988  -3.058  -0.062  0.00  0.00    +0.079 C 
ATOM     21  C   UNL     1       5.009  -4.582  -0.196  0.00  0.00    +0.028 C 
BRANCH  20  22
ATOM     22  N   UNL     1       5.649  -2.669   1.186  0.00  0.00    -0.308 N 
ATOM     23  C   UNL     1       6.989  -2.524   1.221  0.00  0.00    +0.244 C 
ATOM     24  O   UNL     1       7.648  -2.716   0.218  0.00  0.00    -0.270 OA
ATOM     25  H   UNL     1       5.053  -2.494   2.093  0.00  0.00    +0.149 HD
BRANCH  23  26
ATOM     26  C   UNL     1       7.657  -2.131   2.481  0.00  0.00    +0.037 A 
ATOM     27  C   UNL     1       6.902  -1.903   3.632  0.00  0.00    +0.013 A 
ATOM     28  C   UNL     1       7.532  -1.541   4.806  0.00  0.00    +0.001 A 
ATOM     29  C   UNL     1       8.907  -1.393   4.839  0.00  0.00    +0.000 A 
ATOM     30  C   UNL     1       9.660  -1.612   3.699  0.00  0.00    +0.001 A 
ATOM     31  C   UNL     1       9.044  -1.980   2.521  0.00  0.00    +0.013 A 
ENDBRANCH  23  26
ENDBRANCH  20  22
ENDBRANCH  19  20
ENDBRANCH   2  19
TORSDOF 8
