REMARK  Name = ZINC28057797
REMARK  5 active torsions:
REMARK  status: ('A' for Active; 'I' for Inactive)
REMARK    1  A    between atoms: C_1  and  C_2
REMARK    2  A    between atoms: C_2  and  C_3
REMARK    3  A    between atoms: C_2  and  C_4
REMARK    4  A    between atoms: C_7  and  C_10
REMARK    5  A    between atoms: C_28  and  C_30
REMARK                            x       y       z     vdW  Elec       q    Type
REMARK                         _______ _______ _______ _____ _____    ______ ____
ROOT
ATOM      1  C   UNL     1       2.765   4.137  -2.569  0.00  0.00    +0.234 C 
ATOM      2  C   UNL     1       2.489   4.998  -1.358  0.00  0.00    +0.026 C 
ATOM      3  C   UNL     1       2.296   6.309  -1.522  0.00  0.00    +0.050 C 
ATOM      4  C   UNL     1       2.319   6.858  -2.899  0.00  0.00    +0.039 A 
ATOM      5  C   UNL     1       2.453   8.221  -3.134  0.00  0.00    +0.033 A 
ATOM      6  C   UNL     1       2.468   8.689  -4.435  0.00  0.00    +0.042 A 
ATOM      7  C   UNL     1       2.351   7.807  -5.497  0.00  0.00    +0.023 A 
ATOM      8  C   UNL     1       2.218   6.449  -5.270  0.00  0.00    +0.048 A 
ATOM      9  C   UNL     1       2.202   5.968  -3.974  0.00  0.00    +0.131 A 
ATOM     10  O   UNL     1       2.074   4.642  -3.711  0.00  0.00    -0.479 OA
ATOM     11 CL   UNL     1       2.635  10.390  -4.739  0.00  0.00    -0.084 Cl
ATOM     12  N   UNL     1       2.066   7.171  -0.444  0.00  0.00    -0.282 N 
ATOM     13  C   UNL     1       2.308   6.678   0.828  0.00  0.00    +0.240 A 
ATOM     14  N   UNL     1       2.409   7.281   1.977  0.00  0.00    -0.092 NA
ATOM     15  N   UNL     1       2.656   6.425   2.909  0.00  0.00    -0.021 NA
ATOM     16  N   UNL     1       2.726   5.230   2.417  0.00  0.00    -0.042 NA
ATOM     17  N   UNL     1       2.498   5.351   1.047  0.00  0.00    -0.201 N 
ATOM     18  C   UNL     1       2.452   4.341  -0.000  0.00  0.00    +0.177 C 
ATOM     19  H   UNL     1       1.707   8.195  -0.626  0.00  0.00    +0.155 HD
ENDROOT
BRANCH  18  20
ATOM     20  C   UNL     1       1.182   3.541   0.133  0.00  0.00    +0.017 A 
ATOM     21  C   UNL     1      -0.045   4.171   0.046  0.00  0.00    +0.009 A 
ATOM     22  C   UNL     1      -1.210   3.438   0.169  0.00  0.00    +0.001 A 
ATOM     23  C   UNL     1      -1.150   2.072   0.374  0.00  0.00    +0.003 A 
ATOM     24  C   UNL     1       0.075   1.440   0.467  0.00  0.00    +0.039 A 
ATOM     25  C   UNL     1       1.243   2.174   0.344  0.00  0.00    +0.129 A 
ATOM     26  F   UNL     1       2.442   1.556   0.430  0.00  0.00    -0.205 F 
ENDBRANCH  18  20
BRANCH   1  30
ATOM     27  C   UNL     1       6.963   4.118  -3.358  0.00  0.00    -0.045 A 
ATOM     28  C   UNL     1       6.365   3.018  -2.773  0.00  0.00    +0.004 A 
ATOM     29  C   UNL     1       5.006   3.023  -2.518  0.00  0.00    +0.008 A 
ATOM     30  C   UNL     1       4.246   4.130  -2.847  0.00  0.00    -0.003 A 
ATOM     31  C   UNL     1       4.843   5.229  -3.436  0.00  0.00    +0.008 A 
ATOM     32  C   UNL     1       6.203   5.225  -3.687  0.00  0.00    +0.004 A 
BRANCH  27  34
ATOM     33  C   UNL     1       8.683   4.290  -5.135  0.00  0.00    +0.012 C 
ATOM     34  C   UNL     1       8.444   4.112  -3.635  0.00  0.00    +0.013 C 
ATOM     35  C   UNL     1       9.111   5.260  -2.873  0.00  0.00    +0.012 C 
ENDBRANCH  27  34
ENDBRANCH   1  30
TORSDOF 3
