REMARK  Name = ZINC04147650
REMARK  11 active torsions:
REMARK  status: ('A' for Active; 'I' for Inactive)
REMARK    1  A    between atoms: C_1  and  C_2
REMARK    2  A    between atoms: C_2  and  C_3
REMARK    3  A    between atoms: C_2  and  C_4
REMARK    4  A    between atoms: C_2  and  C_5
REMARK    5  A    between atoms: C_13  and  C_25
REMARK    6  A    between atoms: C_15  and  C_21
REMARK    7  A    between atoms: C_15  and  C_23
REMARK    8  A    between atoms: C_16  and  N_20
REMARK    9  A    between atoms: C_17  and  C_18
REMARK   10  A    between atoms: C_25  and  C_26
REMARK   11  A    between atoms: C_26  and  C_27
REMARK                            x       y       z     vdW  Elec       q    Type
REMARK                         _______ _______ _______ _____ _____    ______ ____
ROOT
ATOM      1  C   UNL     1       0.681   0.078  -1.083  0.00  0.00    -0.001 C 
ATOM      2  C   UNL     1       0.609  -1.435  -0.837  0.00  0.00    +0.031 C 
ATOM      3  C   UNL     1       1.234  -2.122  -2.023  0.00  0.00    -0.021 C 
ATOM      4  C   UNL     1       2.235  -1.566  -2.678  0.00  0.00    -0.029 C 
ATOM      5  C   UNL     1       2.866  -0.262  -2.288  0.00  0.00    +0.026 C 
ATOM      6  C   UNL     1       2.151   0.480  -1.185  0.00  0.00    +0.013 C 
ATOM      7  C   UNL     1       3.024   0.590  -3.548  0.00  0.00    +0.037 C 
ATOM      8  C   UNL     1       3.980  -0.119  -4.508  0.00  0.00    +0.184 C 
ATOM      9  C   UNL     1       3.590  -1.550  -4.724  0.00  0.00    +0.054 C 
ATOM     10  C   UNL     1       2.788  -2.246  -3.878  0.00  0.00    +0.074 C 
ENDROOT
BRANCH   1  12
ATOM     11  C   UNL     1       0.110   2.330  -0.164  0.00  0.00    +0.011 C 
ATOM     12  C   UNL     1       0.023   0.822   0.080  0.00  0.00    -0.035 C 
ATOM     13  C   UNL     1       0.746   0.474   1.383  0.00  0.00    +0.011 C 
ATOM     14  C   UNL     1      -1.446   0.406   0.186  0.00  0.00    +0.011 C 
ENDBRANCH   1  12
BRANCH   9  15
ATOM     15  N   UNL     1       4.067  -2.190  -5.833  0.00  0.00    -0.358 N 
ATOM     16  H   UNL     1       4.643  -1.717  -6.455  0.00  0.00    +0.142 HD
ATOM     17  H   UNL     1       3.832  -3.116  -5.998  0.00  0.00    +0.142 HD
ENDBRANCH   9  15
BRANCH  10  18
ATOM     18  C   UNL     1       2.480  -3.620  -4.139  0.00  0.00    +0.101 C 
ATOM     19  N   UNL     1       2.236  -4.710  -4.346  0.00  0.00    -0.191 NA
ENDBRANCH  10  18
BRANCH   8  20
ATOM     20  C   UNL     1       5.342  -0.072  -3.951  0.00  0.00    +0.091 C 
ATOM     21  N   UNL     1       6.393  -0.035  -3.522  0.00  0.00    -0.195 NA
ENDBRANCH   8  20
BRANCH   8  22
ATOM     22  C   UNL     1       3.968   0.581  -5.803  0.00  0.00    +0.091 C 
ATOM     23  N   UNL     1       3.959   1.122  -6.801  0.00  0.00    -0.195 NA
ENDBRANCH   8  22
BRANCH   7  24
ATOM     24  C   UNL     1       1.661   0.771  -4.219  0.00  0.00    +0.012 C 
BRANCH  24  25
ATOM     25  C   UNL     1       1.703   1.993  -5.139  0.00  0.00    +0.035 C 
BRANCH  25  26
ATOM     26  C   UNL     1       0.325   2.256  -5.688  0.00  0.00    -0.047 A 
ATOM     27  C   UNL     1      -0.073   1.662  -6.871  0.00  0.00    +0.003 A 
ATOM     28  C   UNL     1      -1.337   1.903  -7.375  0.00  0.00    +0.000 A 
ATOM     29  C   UNL     1      -2.204   2.739  -6.695  0.00  0.00    +0.000 A 
ATOM     30  C   UNL     1      -1.806   3.333  -5.512  0.00  0.00    +0.000 A 
ATOM     31  C   UNL     1      -0.543   3.088  -5.006  0.00  0.00    +0.003 A 
ENDBRANCH  25  26
ENDBRANCH  24  25
ENDBRANCH   7  24
TORSDOF 8
