REMARK  Name = ZINC01383227
REMARK  5 active torsions:
REMARK  status: ('A' for Active; 'I' for Inactive)
REMARK    1  A    between atoms: C_7  and  O_12
REMARK    2  A    between atoms: C_8  and  C_10
REMARK    3  A    between atoms: O_12  and  C_13
REMARK    4  A    between atoms: C_13  and  C_14
REMARK    5  A    between atoms: C_17  and  N_20
REMARK                            x       y       z     vdW  Elec       q    Type
REMARK                         _______ _______ _______ _____ _____    ______ ____
ROOT
ATOM      1  C   UNL     1       4.463   1.861  -0.031  0.00  0.00    +0.001 A 
ATOM      2  C   UNL     1       3.874   3.119  -0.019  0.00  0.00    +0.001 A 
ATOM      3  C   UNL     1       2.498   3.227  -0.005  0.00  0.00    +0.016 A 
ATOM      4  C   UNL     1       1.726   2.083  -0.003  0.00  0.00    +0.024 A 
ATOM      5  C   UNL     1       2.299   0.792  -0.016  0.00  0.00    +0.032 A 
ATOM      6  C   UNL     1       3.715   0.727  -0.030  0.00  0.00    +0.013 A 
ATOM      7  C   UNL     1       1.343  -0.304  -0.012  0.00  0.00    +0.153 A 
ATOM      8  C   UNL     1       0.002  -0.004   0.002  0.00  0.00    +0.132 A 
ATOM      9  S   UNL     1      -0.022   1.778   0.012  0.00  0.00    -0.074 S 
ENDROOT
BRANCH   8  10
ATOM     10  C   UNL     1      -1.109  -0.907   0.008  0.00  0.00    +0.110 C 
ATOM     11  N   UNL     1      -1.991  -1.623   0.013  0.00  0.00    -0.190 NA
ENDBRANCH   8  10
BRANCH   7  12
ATOM     12  O   UNL     1       1.766  -1.594  -0.024  0.00  0.00    -0.485 OA
BRANCH  12  13
ATOM     13  C   UNL     1       1.956  -2.203  -1.302  0.00  0.00    +0.264 C 
BRANCH  13  14
ATOM     14  C   UNL     1       2.423  -3.624  -1.117  0.00  0.00    -0.010 A 
ATOM     15  C   UNL     1       3.775  -3.903  -1.048  0.00  0.00    +0.009 A 
ATOM     16  C   UNL     1       4.204  -5.206  -0.874  0.00  0.00    +0.033 A 
ATOM     17  C   UNL     1       3.280  -6.230  -0.779  0.00  0.00    +0.126 A 
ATOM     18  C   UNL     1       1.928  -5.952  -0.854  0.00  0.00    +0.033 A 
ATOM     19  C   UNL     1       1.500  -4.648  -1.024  0.00  0.00    +0.009 A 
BRANCH  17  20
ATOM     20  N   UNL     1       3.739  -7.626  -0.598  0.00  0.00    +0.056 N 
ATOM     21  O   UNL     1       2.926  -8.528  -0.514  0.00  0.00    -0.126 OA
ATOM     22  O   UNL     1       4.930  -7.871  -0.532  0.00  0.00    -0.126 OA
ENDBRANCH  17  20
ENDBRANCH  13  14
ENDBRANCH  12  13
ENDBRANCH   7  12
TORSDOF 5
