REMARK  Name = ZINC03979010
REMARK  9 active torsions:
REMARK  status: ('A' for Active; 'I' for Inactive)
REMARK    1  A    between atoms: C_1  and  C_2
REMARK    2  A    between atoms: C_2  and  C_34
REMARK    3  A    between atoms: C_9  and  C_13
REMARK    4  A    between atoms: C_10  and  O_11
REMARK    5  A    between atoms: O_11  and  C_12
REMARK    6  A    between atoms: C_22  and  O_24
REMARK    7  A    between atoms: C_26  and  O_32
REMARK    8  A    between atoms: C_28  and  C_30
REMARK    9  A    between atoms: C_28  and  C_31
REMARK                            x       y       z     vdW  Elec       q    Type
REMARK                         _______ _______ _______ _____ _____    ______ ____
ROOT
ATOM      1  C   UNL     1       4.953   4.027   0.093  0.00  0.00    +0.031 C 
ATOM      2  C   UNL     1       5.385   4.583   1.216  0.00  0.00    +0.202 C 
ATOM      3  O   UNL     1       6.567   5.225   1.295  0.00  0.00    -0.463 OA
ATOM      4  C   UNL     1       7.168   5.668   0.164  0.00  0.00    +0.137 A 
ATOM      5  C   UNL     1       8.147   6.648   0.245  0.00  0.00    +0.092 A 
ATOM      6  C   UNL     1       8.772   7.111  -0.906  0.00  0.00    +0.128 A 
ATOM      7  C   UNL     1       8.412   6.592  -2.139  0.00  0.00    -0.003 A 
ATOM      8  C   UNL     1       7.436   5.614  -2.217  0.00  0.00    +0.017 A 
ATOM      9  C   UNL     1       6.814   5.151  -1.073  0.00  0.00    +0.028 A 
ATOM     10  C   UNL     1       5.754   4.086  -1.177  0.00  0.00    +0.182 C 
ATOM     11  C   UNL     1       9.061   7.073  -3.413  0.00  0.00    +0.074 C 
ATOM     12  C   UNL     1      10.371   7.792  -3.084  0.00  0.00    +0.162 C 
ATOM     13  C   UNL     1      10.100   8.795  -1.955  0.00  0.00    +0.131 C 
ATOM     14  O   UNL     1       9.731   8.066  -0.784  0.00  0.00    -0.483 OA
ATOM     15  C   UNL     1       8.960   9.731  -2.360  0.00  0.00    +0.058 C 
ATOM     16  C   UNL     1      11.363   9.612  -1.676  0.00  0.00    +0.058 C 
ENDROOT
BRANCH   1  25
ATOM     17  C   UNL     1      -2.413   1.389  -0.132  0.00  0.00    +0.060 C 
ATOM     18  C   UNL     1      -1.168   2.218   0.189  0.00  0.00    +0.124 C 
ATOM     19  C   UNL     1      -1.086   3.379  -0.767  0.00  0.00    +0.020 C 
ATOM     20  C   UNL     1       0.099   3.896  -1.087  0.00  0.00    +0.015 C 
ATOM     21  C   UNL     1       1.307   3.289  -0.489  0.00  0.00    +0.059 A 
ATOM     22  C   UNL     1       1.198   2.014   0.089  0.00  0.00    +0.132 A 
ATOM     23  C   UNL     1       2.308   1.415   0.658  0.00  0.00    +0.047 A 
ATOM     24  C   UNL     1       3.525   2.069   0.658  0.00  0.00    +0.015 A 
ATOM     25  C   UNL     1       3.647   3.337   0.087  0.00  0.00    +0.026 A 
ATOM     26  C   UNL     1       2.530   3.953  -0.491  0.00  0.00    +0.138 A 
ATOM     27  O   UNL     1      -0.009   1.392   0.075  0.00  0.00    -0.482 OA
ATOM     28  C   UNL     1      -1.272   2.749   1.620  0.00  0.00    +0.060 C 
BRANCH  26  29
ATOM     29  O   UNL     1       2.640   5.186  -1.050  0.00  0.00    -0.494 OA
ATOM     30  C   UNL     1       2.328   6.305  -0.218  0.00  0.00    +0.277 C 
ENDBRANCH  26  29
ENDBRANCH   1  25
BRANCH  10  31
ATOM     31  O   UNL     1       6.379   2.821  -1.402  0.00  0.00    -0.382 OA
ATOM     32  H   UNL     1       5.758   2.101  -1.578  0.00  0.00    +0.211 HD
ENDBRANCH  10  31
BRANCH  12  33
ATOM     33  O   UNL     1      11.350   6.842  -2.660  0.00  0.00    -0.388 OA
ATOM     34  H   UNL     1      11.569   6.177  -3.327  0.00  0.00    +0.210 HD
ENDBRANCH  12  33
TORSDOF 4
