REMARK  Name = ZINC55254329
REMARK  7 active torsions:
REMARK  status: ('A' for Active; 'I' for Inactive)
REMARK    1  A    between atoms: C_1  and  C_2
REMARK    2  A    between atoms: C_7  and  C_8
REMARK    3  A    between atoms: C_8  and  C_9
REMARK    4  A    between atoms: C_9  and  N_12
REMARK    5  A    between atoms: C_13  and  C_15
REMARK    6  A    between atoms: C_15  and  S_16
REMARK    7  A    between atoms: S_16  and  C_17
REMARK                            x       y       z     vdW  Elec       q    Type
REMARK                         _______ _______ _______ _____ _____    ______ ____
ROOT
ATOM      1  N   UNL     1      -2.360   0.337   1.701  0.00  0.00    -0.309 N 
ATOM      2  C   UNL     1      -2.192  -0.504   0.662  0.00  0.00    +0.224 C 
ATOM      3  O   UNL     1      -1.233  -1.246   0.631  0.00  0.00    -0.275 OA
ATOM      4  H   UNL     1      -3.091   0.974   1.696  0.00  0.00    +0.149 HD
ENDROOT
BRANCH   1   5
ATOM      5  C   UNL     1      -1.439   0.288   2.840  0.00  0.00    +0.039 C 
ATOM      6  C   UNL     1      -1.655  -0.816   3.877  0.00  0.00    +0.028 C 
ATOM      7  C   UNL     1      -2.002   0.635   4.219  0.00  0.00    +0.028 C 
BRANCH   5   8
ATOM      8  C   UNL     1       0.002   0.704   2.540  0.00  0.00    +0.061 C 
BRANCH   8  15
ATOM      9  C   UNL     1       1.185  -1.921   2.293  0.00  0.00    +0.044 C 
ATOM     10  C   UNL     1       1.477  -1.074   3.505  0.00  0.00    -0.047 A 
ATOM     11  C   UNL     1       2.315  -1.550   4.496  0.00  0.00    +0.003 A 
ATOM     12  C   UNL     1       2.582  -0.773   5.607  0.00  0.00    +0.000 A 
ATOM     13  C   UNL     1       2.012   0.480   5.728  0.00  0.00    +0.000 A 
ATOM     14  C   UNL     1       1.175   0.957   4.737  0.00  0.00    +0.004 A 
ATOM     15  C   UNL     1       0.911   0.182   3.623  0.00  0.00    -0.042 A 
ENDBRANCH   8  15
ENDBRANCH   5   8
ENDBRANCH   1   5
BRANCH   2  16
ATOM     16  C   UNL     1      -3.195  -0.522  -0.463  0.00  0.00    +0.172 C 
BRANCH  16  17
ATOM     17  S   UNL     1      -2.693  -1.750  -1.701  0.00  0.00    -0.088 S 
BRANCH  17  18
ATOM     18  C   UNL     1      -3.949  -1.651  -2.933  0.00  0.00    +0.160 A 
ATOM     19  N   UNL     1      -5.014  -0.874  -2.980  0.00  0.00    -0.133 NA
ATOM     20  N   UNL     1      -5.877  -0.960  -4.048  0.00  0.00    -0.125 NA
ATOM     21  C   UNL     1      -5.635  -1.819  -5.020  0.00  0.00    +0.180 A 
ATOM     22  S   UNL     1      -4.116  -2.571  -4.455  0.00  0.00    -0.025 S 
ATOM     23  N   UNL     1      -6.364  -2.068  -6.177  0.00  0.00    -0.336 N 
ATOM     24  H   UNL     1      -7.178  -1.571  -6.353  0.00  0.00    +0.144 HD
ATOM     25  H   UNL     1      -6.059  -2.738  -6.807  0.00  0.00    +0.144 HD
ENDBRANCH  17  18
ENDBRANCH  16  17
ENDBRANCH   2  16
TORSDOF 6
