REMARK  Name = ZINC67201888
REMARK  12 active torsions:
REMARK  status: ('A' for Active; 'I' for Inactive)
REMARK    1  A    between atoms: C_1  and  C_2
REMARK    2  A    between atoms: C_2  and  C_4
REMARK    3  A    between atoms: C_2  and  N_16
REMARK    4  A    between atoms: C_17  and  C_19
REMARK    5  A    between atoms: C_19  and  C_20
REMARK    6  A    between atoms: C_19  and  C_21
REMARK    7  A    between atoms: C_19  and  N_22
REMARK    8  A    between atoms: C_23  and  O_25
REMARK    9  A    between atoms: O_25  and  C_26
REMARK   10  A    between atoms: C_26  and  C_27
REMARK   11  A    between atoms: C_26  and  C_28
REMARK   12  A    between atoms: C_26  and  C_29
REMARK                            x       y       z     vdW  Elec       q    Type
REMARK                         _______ _______ _______ _____ _____    ______ ____
ROOT
ATOM      1  N   UNL     1      -1.372  -0.511   0.012  0.00  0.00    -0.307 N 
ATOM      2  C   UNL     1      -2.051  -0.643  -1.145  0.00  0.00    +0.237 C 
ATOM      3  O   UNL     1      -1.524  -0.341  -2.194  0.00  0.00    -0.273 OA
ATOM      4  H   UNL     1      -1.794  -0.752   0.852  0.00  0.00    +0.149 HD
ENDROOT
BRANCH   2   5
ATOM      5  C   UNL     1      -3.465  -1.164  -1.134  0.00  0.00    +0.108 C 
ATOM      6  C   UNL     1      -4.432  -0.009  -0.868  0.00  0.00    +0.041 C 
ATOM      7  C   UNL     1      -3.785  -1.796  -2.490  0.00  0.00    +0.041 C 
BRANCH   5   8
ATOM      8  N   UNL     1      -3.605  -2.172  -0.080  0.00  0.00    -0.268 N 
ATOM      9  C   UNL     1      -4.792  -2.780   0.117  0.00  0.00    +0.402 C 
ATOM     10  O   UNL     1      -5.745  -2.493  -0.580  0.00  0.00    -0.226 OA
ATOM     11  H   UNL     1      -2.845  -2.401   0.476  0.00  0.00    +0.153 HD
BRANCH   9  12
ATOM     12  O   UNL     1      -4.921  -3.706   1.086  0.00  0.00    -0.445 OA
BRANCH  12  13
ATOM     13  C   UNL     1      -6.207  -4.310   1.238  0.00  0.00    +0.107 C 
ATOM     14  C   UNL     1      -6.596  -5.018  -0.062  0.00  0.00    +0.055 C 
ATOM     15  C   UNL     1      -6.160  -5.329   2.379  0.00  0.00    +0.055 C 
ATOM     16  C   UNL     1      -7.243  -3.231   1.560  0.00  0.00    +0.055 C 
ENDBRANCH  12  13
ENDBRANCH   9  12
ENDBRANCH   5   8
ENDBRANCH   2   5
BRANCH   1  18
ATOM     17  C   UNL     1      -0.019   1.526   0.010  0.00  0.00    +0.033 C 
ATOM     18  C   UNL     1       0.002  -0.004   0.002  0.00  0.00    +0.100 C 
BRANCH  18  19
ATOM     19  C   UNL     1       0.731  -0.503   1.223  0.00  0.00    -0.025 A 
ATOM     20  C   UNL     1       0.077  -0.557   2.442  0.00  0.00    +0.007 A 
ATOM     21  C   UNL     1       0.737  -1.013   3.566  0.00  0.00    +0.028 A 
ATOM     22  C   UNL     1       2.059  -1.419   3.474  0.00  0.00    +0.067 A 
ATOM     23  C   UNL     1       2.719  -1.364   2.244  0.00  0.00    +0.067 A 
ATOM     24  C   UNL     1       2.047  -0.910   1.120  0.00  0.00    +0.033 A 
ATOM     25  N   UNL     1       4.014  -1.829   2.461  0.00  0.00    -0.306 N 
ATOM     26  H   UNL     1       4.709  -1.906   1.789  0.00  0.00    +0.170 HD
ATOM     27  C   UNL     1       4.137  -2.151   3.763  0.00  0.00    +0.325 A 
ATOM     28  O   UNL     1       5.145  -2.589   4.284  0.00  0.00    -0.247 OA
ATOM     29  N   UNL     1       2.974  -1.915   4.400  0.00  0.00    -0.306 N 
ATOM     30  H   UNL     1       2.803  -2.064   5.343  0.00  0.00    +0.170 HD
ENDBRANCH  18  19
ENDBRANCH   1  18
TORSDOF 6
