REMARK  Name = ZINC44856425
REMARK  12 active torsions:
REMARK  status: ('A' for Active; 'I' for Inactive)
REMARK    1  A    between atoms: C_1  and  C_2
REMARK    2  A    between atoms: C_5  and  C_9
REMARK    3  A    between atoms: C_7  and  C_8
REMARK    4  A    between atoms: C_9  and  C_11
REMARK    5  A    between atoms: C_9  and  N_12
REMARK    6  A    between atoms: C_13  and  C_15
REMARK    7  A    between atoms: N_18  and  S_30
REMARK    8  A    between atoms: C_21  and  C_26
REMARK    9  A    between atoms: C_26  and  C_27
REMARK   10  A    between atoms: C_26  and  C_28
REMARK   11  A    between atoms: C_26  and  C_29
REMARK   12  A    between atoms: S_30  and  C_33
REMARK                            x       y       z     vdW  Elec       q    Type
REMARK                         _______ _______ _______ _____ _____    ______ ____
ROOT
ATOM      1  C   UNL     1       2.493  -6.441  -2.092  0.00  0.00    +0.277 C 
ATOM      2  C   UNL     1       1.668  -6.594  -3.377  0.00  0.00    +0.185 C 
ATOM      3  N   UNL     1       2.556  -7.147  -4.414  0.00  0.00    -0.200 N 
ATOM      4  C   UNL     1       3.434  -8.176  -4.039  0.00  0.00    +0.093 A 
ATOM      5  C   UNL     1       4.080  -8.926  -5.009  0.00  0.00    +0.032 A 
ATOM      6  C   UNL     1       4.947  -9.937  -4.636  0.00  0.00    -0.040 A 
ATOM      7  C   UNL     1       5.169 -10.198  -3.296  0.00  0.00    +0.008 A 
ATOM      8  C   UNL     1       4.526  -9.454  -2.325  0.00  0.00    +0.048 A 
ATOM      9  C   UNL     1       3.654  -8.440  -2.690  0.00  0.00    +0.144 A 
ATOM     10  O   UNL     1       3.022  -7.718  -1.726  0.00  0.00    -0.476 OA
ENDROOT
BRANCH   1  12
ATOM     11  N   UNL     1       1.080  -4.688  -1.069  0.00  0.00    -0.306 N 
ATOM     12  C   UNL     1       1.612  -5.923  -0.984  0.00  0.00    +0.256 C 
ATOM     13  O   UNL     1       1.383  -6.618  -0.017  0.00  0.00    -0.272 OA
ATOM     14  H   UNL     1       1.263  -4.132  -1.842  0.00  0.00    +0.149 HD
BRANCH  11  15
ATOM     15  C   UNL     1       0.223  -4.184   0.008  0.00  0.00    +0.100 C 
ATOM     16  C   UNL     1      -1.213  -4.660  -0.218  0.00  0.00    +0.033 C 
BRANCH  15  21
ATOM     17  C   UNL     1       0.354   1.593   0.035  0.00  0.00    +0.044 C 
ATOM     18  C   UNL     1       0.320   0.086   0.028  0.00  0.00    -0.048 A 
ATOM     19  C   UNL     1       0.283  -0.599  -1.173  0.00  0.00    +0.004 A 
ATOM     20  C   UNL     1       0.252  -1.981  -1.179  0.00  0.00    +0.006 A 
ATOM     21  C   UNL     1       0.258  -2.678   0.015  0.00  0.00    -0.027 A 
ATOM     22  C   UNL     1       0.296  -1.993   1.215  0.00  0.00    +0.009 A 
ATOM     23  C   UNL     1       0.332  -0.611   1.221  0.00  0.00    -0.047 A 
ATOM     24  C   UNL     1       0.378   0.136   2.529  0.00  0.00    +0.044 C 
ENDBRANCH  15  21
ENDBRANCH  11  15
ENDBRANCH   1  12
BRANCH   6  25
ATOM     25  C   UNL     1       5.650 -10.753  -5.689  0.00  0.00    -0.013 C 
ATOM     26  C   UNL     1       6.508  -9.833  -6.559  0.00  0.00    +0.015 C 
ATOM     27  C   UNL     1       6.543 -11.796  -5.014  0.00  0.00    +0.015 C 
ATOM     28  C   UNL     1       4.612 -11.460  -6.563  0.00  0.00    +0.015 C 
ENDBRANCH   6  25
BRANCH   3  29
ATOM     29  S   UNL     1       2.519  -6.575  -5.968  0.00  0.00    +0.043 S 
ATOM     30  O   UNL     1       1.886  -5.307  -5.872  0.00  0.00    -0.155 OA
ATOM     31  O   UNL     1       3.860  -6.683  -6.425  0.00  0.00    -0.155 OA
ATOM     32  C   UNL     1       1.457  -7.738  -6.867  0.00  0.00    +0.218 C 
ENDBRANCH   3  29
TORSDOF 5
