REMARK  Name = ZINC36342368
REMARK  5 active torsions:
REMARK  status: ('A' for Active; 'I' for Inactive)
REMARK    1  A    between atoms: C_4  and  C_7
REMARK    2  A    between atoms: C_10  and  C_25
REMARK    3  A    between atoms: C_13  and  C_15
REMARK    4  A    between atoms: C_15  and  N_16
REMARK    5  A    between atoms: C_19  and  C_22
REMARK                            x       y       z     vdW  Elec       q    Type
REMARK                         _______ _______ _______ _____ _____    ______ ____
ROOT
ATOM      1  C   UNL     1       3.711  -0.707  -0.038  0.00  0.00    +0.137 C 
ATOM      2  C   UNL     1       4.022  -1.230  -1.454  0.00  0.00    +0.087 C 
ATOM      3  C   UNL     1       4.083  -2.731  -1.283  0.00  0.00    +0.070 C 
ATOM      4  N   UNL     1       3.860  -3.033  -0.051  0.00  0.00    -0.181 NA
ATOM      5  N   UNL     1       3.631  -1.931   0.776  0.00  0.00    -0.187 N 
ATOM      6  C   UNL     1       3.378  -1.978   2.099  0.00  0.00    +0.219 C 
ATOM      7  O   UNL     1       3.193  -0.951   2.718  0.00  0.00    -0.276 OA
ENDROOT
BRANCH   3   8
ATOM      8  C   UNL     1       4.354  -3.700  -2.361  0.00  0.00    +0.016 A 
ATOM      9  C   UNL     1       4.587  -3.253  -3.664  0.00  0.00    +0.011 A 
ATOM     10  C   UNL     1       4.840  -4.165  -4.668  0.00  0.00    +0.001 A 
ATOM     11  C   UNL     1       4.864  -5.520  -4.387  0.00  0.00    +0.001 A 
ATOM     12  C   UNL     1       4.635  -5.970  -3.100  0.00  0.00    +0.020 A 
ATOM     13  C   UNL     1       4.386  -5.069  -2.083  0.00  0.00    +0.050 A 
ATOM     14 CL   UNL     1       4.106  -5.636  -0.467  0.00  0.00    -0.083 Cl
ENDBRANCH   3   8
BRANCH   1  18
ATOM     15  C   UNL     1      -0.017   1.378   0.010  0.00  0.00    +0.000 A 
ATOM     16  C   UNL     1       1.171   2.086   0.002  0.00  0.00    +0.000 A 
ATOM     17  C   UNL     1       2.377   1.411  -0.013  0.00  0.00    +0.005 A 
ATOM     18  C   UNL     1       2.396   0.029  -0.020  0.00  0.00    -0.025 A 
ATOM     19  C   UNL     1       1.208  -0.679  -0.012  0.00  0.00    +0.005 A 
ATOM     20  C   UNL     1       0.002  -0.004   0.002  0.00  0.00    +0.000 A 
ENDBRANCH   1  18
BRANCH   6  21
ATOM     21  C   UNL     1       3.324  -3.306   2.809  0.00  0.00    +0.021 C 
BRANCH  21  22
ATOM     22  N   UNL     1       3.035  -3.088   4.232  0.00  0.00    +0.385 N 
ATOM     23  C   UNL     1       4.146  -2.354   4.849  0.00  0.00    -0.077 C 
ATOM     24  C   UNL     1       3.814  -2.054   6.313  0.00  0.00    -0.006 C 
ATOM     25  C   UNL     1       3.593  -3.372   7.061  0.00  0.00    +0.071 C 
ATOM     26  C   UNL     1       2.483  -4.163   6.364  0.00  0.00    -0.006 C 
ATOM     27  C   UNL     1       2.864  -4.385   4.899  0.00  0.00    -0.077 C 
ATOM     28  H   UNL     1       2.186  -2.550   4.324  0.00  0.00    -0.081 HD
BRANCH  25  29
ATOM     29  C   UNL     1       3.190  -3.082   8.484  0.00  0.00    +0.213 C 
ATOM     30  O   UNL     1       3.087  -1.934   8.863  0.00  0.00    -0.276 OA
ATOM     31  N   UNL     1       2.942  -4.098   9.334  0.00  0.00    -0.329 N 
ATOM     32  H   UNL     1       3.024  -5.015   9.030  0.00  0.00    +0.145 HD
ATOM     33  H   UNL     1       2.682  -3.911  10.250  0.00  0.00    +0.145 HD
ENDBRANCH  25  29
ENDBRANCH  21  22
ENDBRANCH   6  21
TORSDOF 5
