REMARK  Name = ZINC39528074
REMARK  7 active torsions:
REMARK  status: ('A' for Active; 'I' for Inactive)
REMARK    1  A    between atoms: C_1  and  O_2
REMARK    2  A    between atoms: O_2  and  C_3
REMARK    3  A    between atoms: N_6  and  C_10
REMARK    4  A    between atoms: C_13  and  C_23
REMARK    5  A    between atoms: C_15  and  C_16
REMARK    6  A    between atoms: C_16  and  C_17
REMARK    7  A    between atoms: C_23  and  C_24
REMARK                            x       y       z     vdW  Elec       q    Type
REMARK                         _______ _______ _______ _____ _____    ______ ____
ROOT
ATOM      1  C   UNL     1      -3.159  -3.573  -0.946  0.00  0.00    +0.033 A 
ATOM      2  C   UNL     1      -2.941  -4.943  -0.869  0.00  0.00    +0.024 A 
ATOM      3  C   UNL     1      -3.546  -5.789  -1.776  0.00  0.00    +0.006 A 
ATOM      4  C   UNL     1      -4.369  -5.274  -2.762  0.00  0.00    -0.043 A 
ATOM      5  C   UNL     1      -4.588  -3.912  -2.841  0.00  0.00    +0.009 A 
ATOM      6  C   UNL     1      -3.991  -3.060  -1.933  0.00  0.00    -0.022 A 
ENDROOT
BRANCH   1   9
ATOM      7  C   UNL     1      -1.423  -0.552  -0.082  0.00  0.00    +0.203 C 
ATOM      8  C   UNL     1      -1.273  -2.054  -0.346  0.00  0.00    +0.152 C 
ATOM      9  N   UNL     1      -2.549  -2.715  -0.029  0.00  0.00    -0.325 N 
ATOM     10  C   UNL     1      -3.164  -2.446   1.280  0.00  0.00    +0.120 C 
ATOM     11  C   UNL     1      -3.240  -0.929   1.480  0.00  0.00    +0.102 C 
ATOM     12  N   UNL     1      -1.906  -0.345   1.290  0.00  0.00    -0.289 NA
ATOM     13  H   UNL     1      -1.251  -0.714   1.963  0.00  0.00    +0.124 HD
BRANCH   7  15
ATOM     14  C   UNL     1      -0.224   1.517  -0.242  0.00  0.00    +0.196 C 
ATOM     15  O   UNL     1      -0.157   0.089  -0.244  0.00  0.00    -0.363 OA
ENDBRANCH   7  15
ENDBRANCH   1   9
BRANCH   6  16
ATOM     16  C   UNL     1      -4.235  -1.575  -2.016  0.00  0.00    +0.072 C 
BRANCH  16  17
ATOM     17  C   UNL     1      -5.260  -1.294  -3.085  0.00  0.00    -0.043 A 
ATOM     18  C   UNL     1      -4.853  -1.045  -4.383  0.00  0.00    +0.004 A 
ATOM     19  C   UNL     1      -5.793  -0.787  -5.364  0.00  0.00    +0.000 A 
ATOM     20  C   UNL     1      -7.138  -0.779  -5.047  0.00  0.00    +0.000 A 
ATOM     21  C   UNL     1      -7.545  -1.030  -3.750  0.00  0.00    +0.000 A 
ATOM     22  C   UNL     1      -6.605  -1.292  -2.770  0.00  0.00    +0.004 A 
ENDBRANCH  16  17
ENDBRANCH   6  16
BRANCH   4  23
ATOM     23  C   UNL     1      -5.028  -6.201  -3.751  0.00  0.00    +0.070 C 
BRANCH  23  24
ATOM     24  C   UNL     1      -6.366  -6.639  -3.214  0.00  0.00    -0.043 A 
ATOM     25  C   UNL     1      -6.459  -7.775  -2.432  0.00  0.00    +0.004 A 
ATOM     26  C   UNL     1      -7.686  -8.177  -1.940  0.00  0.00    +0.000 A 
ATOM     27  C   UNL     1      -8.821  -7.444  -2.230  0.00  0.00    +0.000 A 
ATOM     28  C   UNL     1      -8.729  -6.307  -3.011  0.00  0.00    +0.000 A 
ATOM     29  C   UNL     1      -7.500  -5.903  -3.500  0.00  0.00    +0.004 A 
ENDBRANCH  23  24
ENDBRANCH   4  23
TORSDOF 6
