REMARK  Name = ZINC04488915
REMARK  2 active torsions:
REMARK  status: ('A' for Active; 'I' for Inactive)
REMARK    1  A    between atoms: C_3  and  C_6
REMARK    2  A    between atoms: C_11  and  C_17
REMARK                            x       y       z     vdW  Elec       q    Type
REMARK                         _______ _______ _______ _____ _____    ______ ____
ROOT
ATOM      1  C   UNL     1       2.248   4.142   0.003  0.00  0.00    +0.039 C 
ATOM      2  C   UNL     1       2.169   5.016   1.257  0.00  0.00    +0.060 C 
ATOM      3  C   UNL     1       3.273   6.044   1.228  0.00  0.00    +0.018 C 
ATOM      4  C   UNL     1       3.736   6.528   0.056  0.00  0.00    +0.020 C 
ATOM      5  C   UNL     1       4.838   7.561   0.051  0.00  0.00    +0.063 C 
ATOM      6  C   UNL     1       4.677   8.482   1.262  0.00  0.00    +0.109 C 
ATOM      7  C   UNL     1       4.470   7.642   2.496  0.00  0.00    +0.218 C 
ATOM      8  O   UNL     1       4.907   8.017   3.563  0.00  0.00    -0.275 OA
ATOM      9  N   UNL     1       3.800   6.479   2.417  0.00  0.00    -0.289 N 
ATOM     10  C   UNL     1       3.217   6.089  -1.173  0.00  0.00    +0.162 C 
ATOM     11  O   UNL     1       3.649   6.558  -2.207  0.00  0.00    -0.292 OA
ATOM     12  C   UNL     1       2.133   5.045  -1.229  0.00  0.00    +0.088 C 
ATOM     13  H   UNL     1       3.688   5.939   3.214  0.00  0.00    +0.155 HD
ENDROOT
BRANCH   5  14
ATOM     14  C   UNL     1       6.175   6.870   0.120  0.00  0.00    -0.036 A 
ATOM     15  C   UNL     1       6.479   6.062   1.200  0.00  0.00    +0.008 A 
ATOM     16  C   UNL     1       7.705   5.425   1.267  0.00  0.00    +0.050 A 
ATOM     17  C   UNL     1       8.632   5.597   0.252  0.00  0.00    +0.166 A 
ATOM     18  C   UNL     1       8.326   6.411  -0.836  0.00  0.00    +0.167 A 
ATOM     19  C   UNL     1       7.093   7.042  -0.899  0.00  0.00    +0.053 A 
ATOM     20  O   UNL     1       9.390   6.417  -1.690  0.00  0.00    -0.453 OA
ATOM     21  C   UNL     1      10.504   5.928  -0.919  0.00  0.00    +0.466 C 
ATOM     22  O   UNL     1       9.889   5.093   0.079  0.00  0.00    -0.453 OA
ENDBRANCH   5  14
BRANCH   1  25
ATOM     23  C   UNL     1      -0.013   1.076   0.008  0.00  0.00    +0.008 A 
ATOM     24  C   UNL     1       1.169   1.793   0.001  0.00  0.00    +0.011 A 
ATOM     25  C   UNL     1       1.115   3.148   0.008  0.00  0.00    -0.006 A 
ATOM     26  S   UNL     1      -0.644   3.448   0.027  0.00  0.00    -0.101 S 
ATOM     27  C   UNL     1      -1.190   1.748   0.017  0.00  0.00    +0.045 A 
ENDBRANCH   1  25
TORSDOF 2
