REMARK  Name = ZINC66476591
REMARK  5 active torsions:
REMARK  status: ('A' for Active; 'I' for Inactive)
REMARK    1  A    between atoms: C_1  and  C_2
REMARK    2  A    between atoms: C_4  and  C_27
REMARK    3  A    between atoms: C_12  and  C_14
REMARK    4  A    between atoms: N_22  and  S_23
REMARK    5  A    between atoms: S_23  and  C_26
REMARK                            x       y       z     vdW  Elec       q    Type
REMARK                         _______ _______ _______ _____ _____    ______ ____
ROOT
ATOM      1  C   UNL     1      -0.940   0.799  -0.406  0.00  0.00    +0.044 C 
ATOM      2  C   UNL     1      -0.060  -0.407  -0.204  0.00  0.00    -0.048 A 
ATOM      3  C   UNL     1       0.700  -0.893  -1.253  0.00  0.00    +0.007 A 
ATOM      4  C   UNL     1       1.507  -2.000  -1.071  0.00  0.00    -0.045 A 
ATOM      5  C   UNL     1       1.562  -2.629   0.161  0.00  0.00    -0.023 A 
ATOM      6  C   UNL     1       0.804  -2.141   1.213  0.00  0.00    +0.040 A 
ATOM      7  C   UNL     1      -0.006  -1.025   1.029  0.00  0.00    +0.027 A 
ATOM      8  N   UNL     1       0.846  -2.752   2.473  0.00  0.00    -0.267 N 
ATOM      9  C   UNL     1       1.459  -4.082   2.597  0.00  0.00    +0.114 C 
ATOM     10  C   UNL     1       2.770  -4.069   1.800  0.00  0.00    +0.024 C 
ATOM     11  C   UNL     1       2.448  -3.836   0.324  0.00  0.00    +0.039 C 
ATOM     12  C   UNL     1       0.333  -2.131   3.554  0.00  0.00    +0.251 C 
ATOM     13  O   UNL     1      -0.059  -0.983   3.466  0.00  0.00    -0.270 OA
ATOM     14  C   UNL     1       2.331  -2.524  -2.219  0.00  0.00    +0.044 C 
ENDROOT
BRANCH  12  15
ATOM     15  C   UNL     1       0.246  -2.843   4.842  0.00  0.00    +0.038 A 
ATOM     16  C   UNL     1      -0.009  -4.218   4.871  0.00  0.00    +0.015 A 
ATOM     17  C   UNL     1      -0.088  -4.878   6.072  0.00  0.00    +0.026 A 
ATOM     18  C   UNL     1       0.084  -4.185   7.277  0.00  0.00    +0.054 A 
ATOM     19  C   UNL     1       0.338  -2.819   7.243  0.00  0.00    -0.023 A 
ATOM     20  C   UNL     1       0.425  -2.151   6.043  0.00  0.00    +0.018 A 
ATOM     21  C   UNL     1       0.483  -2.323   8.665  0.00  0.00    +0.058 C 
ATOM     22  C   UNL     1       0.280  -3.578   9.531  0.00  0.00    +0.136 C 
ATOM     23  N   UNL     1       0.042  -4.667   8.580  0.00  0.00    -0.207 N 
BRANCH  23  24
ATOM     24  S   UNL     1      -0.238  -6.244   8.998  0.00  0.00    +0.043 S 
ATOM     25  O   UNL     1      -0.793  -6.181  10.304  0.00  0.00    -0.155 OA
ATOM     26  O   UNL     1      -0.991  -6.777   7.916  0.00  0.00    -0.155 OA
ATOM     27  C   UNL     1       1.405  -7.011   9.053  0.00  0.00    +0.218 C 
ENDBRANCH  23  24
ENDBRANCH  12  15
TORSDOF 2
