REMARK  Name = ZINC38819025
REMARK  4 active torsions:
REMARK  status: ('A' for Active; 'I' for Inactive)
REMARK    1  A    between atoms: C_1  and  C_2
REMARK    2  A    between atoms: C_7  and  C_12
REMARK    3  A    between atoms: C_13  and  N_25
REMARK    4  A    between atoms: N_14  and  C_18
REMARK                            x       y       z     vdW  Elec       q    Type
REMARK                         _______ _______ _______ _____ _____    ______ ____
ROOT
ATOM      1  C   UNL     1      -1.161  -5.116   1.936  0.00  0.00    +0.074 C 
ATOM      2  C   UNL     1      -1.128  -6.329   2.582  0.00  0.00    +0.099 C 
ATOM      3  N   UNL     1      -2.385  -6.786   2.861  0.00  0.00    -0.281 N 
ATOM      4  C   UNL     1      -3.340  -5.789   2.355  0.00  0.00    +0.191 C 
ATOM      5  C   UNL     1      -2.475  -4.699   1.757  0.00  0.00    +0.183 C 
ATOM      6  O   UNL     1      -2.853  -3.672   1.226  0.00  0.00    -0.290 OA
ENDROOT
BRANCH   1  13
ATOM      7  C   UNL     1      -0.033   1.506   0.008  0.00  0.00    +0.044 C 
ATOM      8  C   UNL     1      -0.023  -0.001  -0.013  0.00  0.00    -0.048 A 
ATOM      9  C   UNL     1      -0.061  -0.659  -1.255  0.00  0.00    +0.005 A 
ATOM     10  C   UNL     1      -0.057  -2.002  -1.366  0.00  0.00    +0.027 A 
ATOM     11  C   UNL     1      -0.010  -2.830  -0.153  0.00  0.00    +0.060 A 
ATOM     12  N   UNL     1       0.004  -4.117   0.041  0.00  0.00    -0.359 N 
ATOM     13  C   UNL     1       0.054  -4.344   1.490  0.00  0.00    +0.212 C 
ATOM     14  N   UNL     1       0.068  -3.017   2.117  0.00  0.00    -0.359 N 
ATOM     15  C   UNL     1       0.030  -2.133   1.162  0.00  0.00    +0.061 A 
ATOM     16  C   UNL     1       0.026  -0.664   1.160  0.00  0.00    +0.030 A 
ATOM     17  H   UNL     1      -0.016  -4.801  -0.647  0.00  0.00    +0.162 HD
ATOM     18  H   UNL     1       0.099  -2.832   3.069  0.00  0.00    +0.162 HD
ENDBRANCH   1  13
BRANCH   3  19
ATOM     19  C   UNL     1      -2.705  -7.984   3.508  0.00  0.00    +0.035 A 
ATOM     20  C   UNL     1      -2.380  -8.159   4.847  0.00  0.00    +0.025 A 
ATOM     21  C   UNL     1      -2.697  -9.343   5.484  0.00  0.00    +0.022 A 
ATOM     22  C   UNL     1      -3.338 -10.354   4.789  0.00  0.00    +0.041 A 
ATOM     23  C   UNL     1      -3.663 -10.182   3.455  0.00  0.00    +0.022 A 
ATOM     24  C   UNL     1      -3.353  -8.998   2.815  0.00  0.00    +0.025 A 
ATOM     25 CL   UNL     1      -3.734 -11.841   5.592  0.00  0.00    -0.084 Cl
ENDBRANCH   3  19
BRANCH   2  26
ATOM     26  N   UNL     1       0.021  -6.997   2.906  0.00  0.00    -0.346 N 
ATOM     27  H   UNL     1       0.880  -6.653   2.615  0.00  0.00    +0.143 HD
ATOM     28  H   UNL     1      -0.022  -7.814   3.428  0.00  0.00    +0.143 HD
ENDBRANCH   2  26
TORSDOF 3
