REMARK  Name = ZINC08967299
REMARK  7 active torsions:
REMARK  status: ('A' for Active; 'I' for Inactive)
REMARK    1  A    between atoms: C_1  and  C_2
REMARK    2  A    between atoms: C_2  and  N_3
REMARK    3  A    between atoms: C_5  and  O_22
REMARK    4  A    between atoms: C_8  and  C_21
REMARK    5  A    between atoms: N_12  and  S_13
REMARK    6  A    between atoms: S_13  and  C_16
REMARK    7  A    between atoms: O_22  and  C_23
REMARK                            x       y       z     vdW  Elec       q    Type
REMARK                         _______ _______ _______ _____ _____    ______ ____
ROOT
ATOM      1  N   UNL     1      -5.037   0.145   3.163  0.00  0.00    -0.315 N 
ATOM      2  C   UNL     1      -6.328  -0.344   3.310  0.00  0.00    +0.100 A 
ATOM      3  C   UNL     1      -7.037  -0.541   4.512  0.00  0.00    +0.145 A 
ATOM      4  C   UNL     1      -8.323  -1.038   4.500  0.00  0.00    +0.048 A 
ATOM      5  C   UNL     1      -8.956  -1.358   3.311  0.00  0.00    +0.008 A 
ATOM      6  C   UNL     1      -8.281  -1.174   2.117  0.00  0.00    -0.034 A 
ATOM      7  C   UNL     1      -6.998  -0.678   2.128  0.00  0.00    +0.046 A 
ATOM      8  S   UNL     1      -5.817  -0.295   0.857  0.00  0.00    -0.048 S 
ATOM      9  C   UNL     1      -4.493   0.275   1.909  0.00  0.00    +0.195 A 
ATOM     10  N   UNL     1      -3.308   0.711   1.571  0.00  0.00    -0.103 NA
ATOM     11  C   UNL     1      -8.950  -1.515   0.810  0.00  0.00    +0.045 C 
ENDROOT
BRANCH  10  12
ATOM     12  S   UNL     1      -2.874   0.777  -0.025  0.00  0.00    +0.107 S 
ATOM     13  O   UNL     1      -3.708   1.753  -0.633  0.00  0.00    -0.146 OA
ATOM     14  O   UNL     1      -2.813  -0.566  -0.485  0.00  0.00    -0.146 OA
BRANCH  12  15
ATOM     15  C   UNL     1      -1.230   1.407  -0.093  0.00  0.00    +0.150 A 
ATOM     16  C   UNL     1      -0.055   0.732  -0.063  0.00  0.00    +0.037 A 
ATOM     17  C   UNL     1       1.129   1.443  -0.136  0.00  0.00    +0.010 A 
ATOM     18  C   UNL     1       1.079   2.794  -0.229  0.00  0.00    +0.047 A 
ATOM     19  S   UNL     1      -0.679   3.101  -0.216  0.00  0.00    -0.076 S 
ENDBRANCH  12  15
ENDBRANCH  10  12
BRANCH   1  21
ATOM     20  C   UNL     1      -2.778   0.210   4.099  0.00  0.00    +0.027 C 
ATOM     21  C   UNL     1      -4.256   0.521   4.344  0.00  0.00    +0.121 C 
ENDBRANCH   1  21
BRANCH   3  22
ATOM     22  O   UNL     1      -6.446  -0.236   5.698  0.00  0.00    -0.493 OA
ATOM     23  C   UNL     1      -7.215  -0.457   6.882  0.00  0.00    +0.277 C 
ENDBRANCH   3  22
TORSDOF 4
