REMARK  Name = ZINC00320706
REMARK  11 active torsions:
REMARK  status: ('A' for Active; 'I' for Inactive)
REMARK    1  A    between atoms: C_1  and  C_2
REMARK    2  A    between atoms: C_7  and  C_20
REMARK    3  A    between atoms: C_8  and  N_11
REMARK    4  A    between atoms: N_11  and  C_12
REMARK    5  A    between atoms: C_12  and  C_13
REMARK    6  A    between atoms: C_12  and  C_14
REMARK    7  A    between atoms: C_12  and  C_15
REMARK    8  A    between atoms: C_15  and  C_16
REMARK    9  A    between atoms: C_16  and  C_17
REMARK   10  A    between atoms: C_16  and  C_18
REMARK   11  A    between atoms: C_16  and  C_19
REMARK                            x       y       z     vdW  Elec       q    Type
REMARK                         _______ _______ _______ _____ _____    ______ ____
ROOT
ATOM      1  C   UNL     1       6.607   7.581   0.052  0.00  0.00    +0.045 C 
ATOM      2  C   UNL     1       6.362   6.178   0.544  0.00  0.00    -0.034 A 
ATOM      3  C   UNL     1       7.321   5.543   1.353  0.00  0.00    +0.008 A 
ATOM      4  C   UNL     1       7.100   4.277   1.797  0.00  0.00    +0.047 A 
ATOM      5  C   UNL     1       5.906   3.616   1.438  0.00  0.00    +0.140 A 
ATOM      6  N   UNL     1       5.441   2.412   1.728  0.00  0.00    -0.224 NA
ATOM      7  C   UNL     1       4.242   2.246   1.138  0.00  0.00    +0.130 A 
ATOM      8  C   UNL     1       3.938   3.405   0.453  0.00  0.00    +0.133 A 
ATOM      9  N   UNL     1       4.986   4.263   0.645  0.00  0.00    -0.287 N 
ATOM     10  C   UNL     1       5.225   5.538   0.206  0.00  0.00    +0.097 A 
ENDROOT
BRANCH   7  11
ATOM     11  C   UNL     1       3.395   1.035   1.215  0.00  0.00    +0.093 A 
ATOM     12  C   UNL     1       3.983  -0.206   1.464  0.00  0.00    +0.030 A 
ATOM     13  C   UNL     1       3.179  -1.329   1.533  0.00  0.00    +0.004 A 
ATOM     14  C   UNL     1       1.810  -1.177   1.351  0.00  0.00    +0.020 A 
ATOM     15  C   UNL     1       1.294   0.082   1.107  0.00  0.00    +0.111 A 
ATOM     16  N   UNL     1       2.082   1.137   1.046  0.00  0.00    -0.253 NA
ENDBRANCH   7  11
BRANCH   8  17
ATOM     17  N   UNL     1       2.787   3.654  -0.290  0.00  0.00    -0.323 N 
ATOM     18  H   UNL     1       1.959   3.414   0.235  0.00  0.00    +0.148 HD
BRANCH  17  19
ATOM     19  C   UNL     1       2.740   5.053  -0.737  0.00  0.00    +0.028 C 
ATOM     20  C   UNL     1       2.983   5.978   0.458  0.00  0.00    +0.031 C 
ATOM     21  C   UNL     1       3.822   5.287  -1.792  0.00  0.00    +0.031 C 
BRANCH  19  22
ATOM     22  C   UNL     1       1.366   5.349  -1.340  0.00  0.00    +0.031 C 
BRANCH  22  23
ATOM     23  C   UNL     1       1.374   6.746  -1.965  0.00  0.00    -0.036 C 
ATOM     24  C   UNL     1       2.145   6.709  -3.286  0.00  0.00    +0.010 C 
ATOM     25  C   UNL     1      -0.065   7.196  -2.227  0.00  0.00    +0.010 C 
ATOM     26  C   UNL     1       2.050   7.729  -1.007  0.00  0.00    +0.010 C 
ENDBRANCH  22  23
ENDBRANCH  19  22
ENDBRANCH  17  19
ENDBRANCH   8  17
TORSDOF 5
