REMARK  Name = ZINC63350910
REMARK  12 active torsions:
REMARK  status: ('A' for Active; 'I' for Inactive)
REMARK    1  A    between atoms: C_1  and  C_2
REMARK    2  A    between atoms: C_6  and  O_8
REMARK    3  A    between atoms: O_8  and  C_9
REMARK    4  A    between atoms: C_9  and  C_11
REMARK    5  A    between atoms: C_11  and  C_13
REMARK    6  A    between atoms: C_11  and  N_23
REMARK    7  A    between atoms: C_13  and  C_14
REMARK    8  A    between atoms: C_24  and  O_26
REMARK    9  A    between atoms: O_26  and  C_27
REMARK   10  A    between atoms: C_27  and  C_28
REMARK   11  A    between atoms: C_27  and  C_29
REMARK   12  A    between atoms: C_27  and  C_30
REMARK                            x       y       z     vdW  Elec       q    Type
REMARK                         _______ _______ _______ _____ _____    ______ ____
ROOT
ATOM      1  C   UNL     1       0.280  -2.753   4.846  0.00  0.00    +0.189 C 
ENDROOT
BRANCH   1   2
ATOM      2  N   UNL     1       0.837  -1.831   5.840  0.00  0.00    -0.268 N 
ATOM      3  C   UNL     1       0.182  -0.693   6.144  0.00  0.00    +0.401 C 
ATOM      4  O   UNL     1      -0.870  -0.431   5.594  0.00  0.00    -0.226 OA
ATOM      5  H   UNL     1       1.676  -2.040   6.279  0.00  0.00    +0.153 HD
BRANCH   3   6
ATOM      6  O   UNL     1       0.693   0.154   7.057  0.00  0.00    -0.445 OA
BRANCH   6   7
ATOM      7  C   UNL     1      -0.054   1.341   7.330  0.00  0.00    +0.107 C 
ATOM      8  C   UNL     1      -1.441   0.962   7.852  0.00  0.00    +0.055 C 
ATOM      9  C   UNL     1       0.678   2.173   8.385  0.00  0.00    +0.055 C 
ATOM     10  C   UNL     1      -0.198   2.160   6.046  0.00  0.00    +0.055 C 
ENDBRANCH   6   7
ENDBRANCH   3   6
ENDBRANCH   1   2
BRANCH   1  11
ATOM     11  C   UNL     1       0.148  -2.045   3.523  0.00  0.00    +0.333 C 
ATOM     12  O   UNL     1       0.129  -0.837   3.483  0.00  0.00    -0.248 OA
BRANCH  11  13
ATOM     13  O   UNL     1       0.050  -2.755   2.388  0.00  0.00    -0.424 OA
BRANCH  13  19
ATOM     14  C   UNL     1      -3.109  -0.974  -0.873  0.00  0.00    +0.044 C 
ATOM     15  C   UNL     1      -1.695  -1.189  -0.399  0.00  0.00    -0.043 A 
ATOM     16  C   UNL     1      -0.643  -0.699  -1.146  0.00  0.00    +0.050 A 
ATOM     17  C   UNL     1       0.663  -0.891  -0.718  0.00  0.00    +0.143 A 
ATOM     18  C   UNL     1       0.904  -1.587   0.480  0.00  0.00    +0.063 A 
ATOM     19  C   UNL     1      -0.174  -2.081   1.231  0.00  0.00    +0.143 A 
ATOM     20  C   UNL     1      -1.467  -1.871   0.785  0.00  0.00    +0.050 A 
ATOM     21  C   UNL     1       2.285  -1.781   0.925  0.00  0.00    -0.023 A 
ATOM     22  C   UNL     1       3.286  -1.278   0.160  0.00  0.00    +0.041 A 
ATOM     23  C   UNL     1       2.971  -0.588  -1.033  0.00  0.00    +0.341 A 
ATOM     24  O   UNL     1       3.875  -0.136  -1.712  0.00  0.00    -0.245 OA
ATOM     25  O   UNL     1       1.703  -0.419  -1.438  0.00  0.00    -0.422 OA
ATOM     26  C   UNL     1       4.626  -1.585   0.793  0.00  0.00    +0.043 C 
ATOM     27  C   UNL     1       4.304  -1.962   2.256  0.00  0.00    +0.010 C 
ATOM     28  C   UNL     1       2.852  -2.474   2.143  0.00  0.00    +0.037 C 
ENDBRANCH  13  19
ENDBRANCH  11  13
ENDBRANCH   1  11
BRANCH   1  29
ATOM     29  C   UNL     1      -1.097  -3.231   5.309  0.00  0.00    +0.067 C 
BRANCH  29  30
ATOM     30  C   UNL     1      -0.949  -4.045   6.569  0.00  0.00    -0.039 C 
ATOM     31  C   UNL     1      -1.080  -3.605   7.841  0.00  0.00    -0.001 A 
ATOM     32  C   UNL     1      -1.386  -2.287   8.411  0.00  0.00    +0.010 A 
ATOM     33  C   UNL     1      -1.450  -2.153   9.755  0.00  0.00    +0.001 A 
ATOM     34  C   UNL     1      -1.232  -3.238  10.616  0.00  0.00    +0.002 A 
ATOM     35  C   UNL     1      -0.946  -4.478  10.167  0.00  0.00    +0.026 A 
ATOM     36  C   UNL     1      -0.854  -4.734   8.771  0.00  0.00    +0.043 A 
ATOM     37  N   UNL     1      -0.594  -5.830   8.100  0.00  0.00    -0.380 N 
ATOM     38  C   UNL     1      -0.631  -5.520   6.667  0.00  0.00    +0.144 C 
ATOM     39  H   UNL     1      -0.411  -6.700   8.487  0.00  0.00    +0.160 HD
ENDBRANCH  29  30
ENDBRANCH   1  29
TORSDOF 8
