REMARK  Name = ZINC33649533
REMARK  2 active torsions:
REMARK  status: ('A' for Active; 'I' for Inactive)
REMARK    1  A    between atoms: C_1  and  C_14
REMARK    2  A    between atoms: C_4  and  C_10
REMARK                            x       y       z     vdW  Elec       q    Type
REMARK                         _______ _______ _______ _____ _____    ______ ____
ROOT
ATOM      1  C   UNL     1      -0.013   1.086   0.008  0.00  0.00    +0.193 C 
ATOM      2  N   UNL     1      -0.696   1.561   1.220  0.00  0.00    -0.274 NA
ATOM      3  C   UNL     1       0.045   1.146   2.421  0.00  0.00    +0.193 C 
ATOM      4  N   UNL     1       1.417   1.653   2.341  0.00  0.00    -0.308 N 
ATOM      5  C   UNL     1       2.008   1.847   1.149  0.00  0.00    +0.133 C 
ATOM      6  S   UNL     1       3.617   2.427   1.096  0.00  0.00    -0.019 S 
ATOM      7  N   UNL     1       1.361   1.594  -0.002  0.00  0.00    -0.308 N 
ATOM      8  H   UNL     1      -0.817   2.562   1.198  0.00  0.00    +0.126 HD
ATOM      9  H   UNL     1       1.904   1.850   3.156  0.00  0.00    +0.149 HD
ATOM     10  H   UNL     1       1.809   1.749  -0.849  0.00  0.00    +0.149 HD
ENDROOT
BRANCH   3  11
ATOM     11  C   UNL     1      -0.639   1.716   3.666  0.00  0.00    +0.222 C 
ATOM     12 CL   UNL     1      -2.329   1.097   3.760  0.00  0.00    -0.080 Cl
ATOM     13 CL   UNL     1       0.270   1.208   5.137  0.00  0.00    -0.080 Cl
ATOM     14 CL   UNL     1      -0.663   3.517   3.567  0.00  0.00    -0.080 Cl
ENDBRANCH   3  11
BRANCH   1  15
ATOM     15  C   UNL     1      -0.754   1.594  -1.230  0.00  0.00    +0.222 C 
ATOM     16 CL   UNL     1       0.087   1.013  -2.715  0.00  0.00    -0.080 Cl
ATOM     17 CL   UNL     1      -2.446   0.970  -1.215  0.00  0.00    -0.080 Cl
ATOM     18 CL   UNL     1      -0.778   3.396  -1.219  0.00  0.00    -0.080 Cl
ENDBRANCH   1  15
TORSDOF 2
