REMARK  Name = ZINC36609368
REMARK  13 active torsions:
REMARK  status: ('A' for Active; 'I' for Inactive)
REMARK    1  A    between atoms: C_1  and  C_2
REMARK    2  A    between atoms: C_2  and  C_4
REMARK    3  A    between atoms: C_2  and  C_10
REMARK    4  A    between atoms: C_10  and  C_12
REMARK    5  A    between atoms: C_10  and  N_19
REMARK    6  A    between atoms: N_14  and  C_15
REMARK    7  A    between atoms: C_15  and  C_16
REMARK    8  A    between atoms: C_15  and  C_17
REMARK    9  A    between atoms: C_15  and  C_18
REMARK   10  A    between atoms: N_19  and  C_20
REMARK   11  A    between atoms: C_26  and  C_28
REMARK   12  A    between atoms: C_30  and  N_35
REMARK   13  A    between atoms: C_33  and  O_34
REMARK                            x       y       z     vdW  Elec       q    Type
REMARK                         _______ _______ _______ _____ _____    ______ ____
ROOT
ATOM      1  N   UNL     1       0.444  -0.377   2.824  0.00  0.00    -0.255 N 
ATOM      2  C   UNL     1       0.787   0.872   3.197  0.00  0.00    +0.255 C 
ATOM      3  O   UNL     1       1.668   1.463   2.604  0.00  0.00    -0.269 OA
ENDROOT
BRANCH   1   4
ATOM      4  C   UNL     1      -0.540  -1.074   3.533  0.00  0.00    +0.037 A 
ATOM      5  C   UNL     1      -1.668  -1.547   2.875  0.00  0.00    +0.023 A 
ATOM      6  C   UNL     1      -2.638  -2.235   3.578  0.00  0.00    +0.002 A 
ATOM      7  C   UNL     1      -2.487  -2.452   4.936  0.00  0.00    +0.000 A 
ATOM      8  C   UNL     1      -1.365  -1.981   5.594  0.00  0.00    +0.002 A 
ATOM      9  C   UNL     1      -0.389  -1.298   4.895  0.00  0.00    +0.023 A 
ENDBRANCH   1   4
BRANCH   2  10
ATOM     10  C   UNL     1       0.093   1.521   4.325  0.00  0.00    +0.081 A 
ATOM     11  C   UNL     1      -1.210   1.142   4.661  0.00  0.00    +0.049 A 
ATOM     12  C   UNL     1      -1.853   1.753   5.716  0.00  0.00    +0.127 A 
ATOM     13  C   UNL     1      -1.213   2.741   6.446  0.00  0.00    +0.036 A 
ATOM     14  C   UNL     1       0.073   3.126   6.125  0.00  0.00    +0.048 A 
ATOM     15  C   UNL     1       0.738   2.517   5.070  0.00  0.00    +0.129 A 
BRANCH  12  16
ATOM     16  N   UNL     1      -3.232   1.351   6.070  0.00  0.00    +0.056 N 
ATOM     17  O   UNL     1      -3.761   0.431   5.491  0.00  0.00    -0.126 OA
ATOM     18  O   UNL     1      -3.831   1.943   6.938  0.00  0.00    -0.126 OA
ENDBRANCH  12  16
BRANCH  15  19
ATOM     19  O   UNL     1       2.004   2.889   4.758  0.00  0.00    -0.506 OA
ATOM     20  H   UNL     1       2.055   3.613   4.118  0.00  0.00    +0.292 HD
ENDBRANCH  15  19
ENDBRANCH   2  10
BRANCH   1  21
ATOM     21  C   UNL     1       1.102  -1.005   1.676  0.00  0.00    +0.174 C 
BRANCH  21  22
ATOM     22  C   UNL     1       1.682  -2.332   2.093  0.00  0.00    +0.235 C 
ATOM     23  O   UNL     1       1.558  -2.715   3.237  0.00  0.00    -0.274 OA
ATOM     24  N   UNL     1       2.339  -3.092   1.195  0.00  0.00    -0.309 N 
ATOM     25  H   UNL     1       2.438  -2.786   0.280  0.00  0.00    +0.149 HD
BRANCH  24  26
ATOM     26  C   UNL     1       2.903  -4.382   1.600  0.00  0.00    +0.026 C 
ATOM     27  C   UNL     1       1.783  -5.293   2.107  0.00  0.00    +0.031 C 
ATOM     28  C   UNL     1       3.590  -5.038   0.401  0.00  0.00    +0.031 C 
ATOM     29  C   UNL     1       3.926  -4.163   2.717  0.00  0.00    +0.031 C 
ENDBRANCH  24  26
ENDBRANCH  21  22
BRANCH  21  31
ATOM     30  C   UNL     1      -0.627   0.097   0.247  0.00  0.00    +0.015 C 
ATOM     31  C   UNL     1       0.079  -1.224   0.559  0.00  0.00    +0.046 C 
BRANCH  31  32
ATOM     32  C   UNL     1       0.784  -1.721  -0.677  0.00  0.00    -0.042 A 
ATOM     33  C   UNL     1       1.769  -0.952  -1.267  0.00  0.00    +0.004 A 
ATOM     34  C   UNL     1       2.416  -1.408  -2.401  0.00  0.00    +0.000 A 
ATOM     35  C   UNL     1       2.077  -2.633  -2.944  0.00  0.00    +0.000 A 
ATOM     36  C   UNL     1       1.092  -3.402  -2.354  0.00  0.00    +0.000 A 
ATOM     37  C   UNL     1       0.448  -2.949  -1.218  0.00  0.00    +0.004 A 
ENDBRANCH  31  32
ENDBRANCH  21  31
ENDBRANCH   1  21
TORSDOF 9
