REMARK  Name = ZINC44792444
REMARK  11 active torsions:
REMARK  status: ('A' for Active; 'I' for Inactive)
REMARK    1  A    between atoms: C_1  and  C_2
REMARK    2  A    between atoms: C_5  and  C_8
REMARK    3  A    between atoms: C_8  and  S_9
REMARK    4  A    between atoms: S_9  and  C_10
REMARK    5  A    between atoms: C_10  and  C_11
REMARK    6  A    between atoms: C_11  and  N_12
REMARK    7  A    between atoms: C_13  and  C_15
REMARK    8  A    between atoms: C_15  and  N_16
REMARK    9  A    between atoms: N_16  and  C_17
REMARK   10  A    between atoms: N_16  and  S_25
REMARK   11  A    between atoms: S_25  and  C_28
REMARK                            x       y       z     vdW  Elec       q    Type
REMARK                         _______ _______ _______ _____ _____    ______ ____
ROOT
ATOM      1  N   UNL     1       5.214 -11.573  -0.119  0.00  0.00    -0.194 N 
ENDROOT
BRANCH   1   2
ATOM      2  C   UNL     1       5.702 -11.814   1.167  0.00  0.00    +0.055 A 
ATOM      3  C   UNL     1       7.036 -12.153   1.353  0.00  0.00    +0.044 A 
ATOM      4  C   UNL     1       7.517 -12.390   2.627  0.00  0.00    +0.044 A 
ATOM      5  C   UNL     1       6.670 -12.291   3.717  0.00  0.00    +0.040 A 
ATOM      6  C   UNL     1       5.340 -11.954   3.534  0.00  0.00    +0.044 A 
ATOM      7  C   UNL     1       4.855 -11.710   2.263  0.00  0.00    +0.044 A 
ATOM      8 CL   UNL     1       4.281 -11.832   4.904  0.00  0.00    -0.083 Cl
ATOM      9 CL   UNL     1       9.184 -12.813   2.860  0.00  0.00    -0.083 Cl
ENDBRANCH   1   2
BRANCH   1  10
ATOM     10  S   UNL     1       5.112 -12.813  -1.212  0.00  0.00    +0.075 S 
ATOM     11  O   UNL     1       5.179 -14.020  -0.465  0.00  0.00    -0.150 OA
ATOM     12  O   UNL     1       4.022 -12.509  -2.071  0.00  0.00    -0.150 OA
BRANCH  10  13
ATOM     13  C   UNL     1       6.567 -12.755  -2.204  0.00  0.00    +0.109 A 
ATOM     14  C   UNL     1       6.632 -11.897  -3.286  0.00  0.00    +0.029 A 
ATOM     15  C   UNL     1       7.773 -11.850  -4.064  0.00  0.00    +0.002 A 
ATOM     16  C   UNL     1       8.850 -12.662  -3.760  0.00  0.00    +0.000 A 
ATOM     17  C   UNL     1       8.786 -13.519  -2.678  0.00  0.00    +0.002 A 
ATOM     18  C   UNL     1       7.646 -13.562  -1.897  0.00  0.00    +0.029 A 
ENDBRANCH  10  13
ENDBRANCH   1  10
BRANCH   1  19
ATOM     19  C   UNL     1       4.792 -10.224  -0.502  0.00  0.00    +0.227 C 
BRANCH  19  21
ATOM     20  N   UNL     1       5.840  -8.158  -1.369  0.00  0.00    -0.313 N 
ATOM     21  C   UNL     1       5.989  -9.435  -0.965  0.00  0.00    +0.232 C 
ATOM     22  O   UNL     1       7.088  -9.950  -0.975  0.00  0.00    -0.274 OA
ATOM     23  H   UNL     1       4.962  -7.746  -1.361  0.00  0.00    +0.149 HD
BRANCH  20  24
ATOM     24  C   UNL     1       7.005  -7.391  -1.819  0.00  0.00    +0.115 C 
BRANCH  24  25
ATOM     25  C   UNL     1       6.564  -5.982  -2.218  0.00  0.00    +0.088 C 
BRANCH  25  26
ATOM     26  S   UNL     1       8.006  -5.032  -2.776  0.00  0.00    -0.155 S 
BRANCH  26  27
ATOM     27  C   UNL     1       7.322  -3.409  -3.207  0.00  0.00    +0.104 C 
BRANCH  27  32
ATOM     28  C   UNL     1      11.569   0.040  -5.068  0.00  0.00    +0.044 C 
ATOM     29  C   UNL     1      10.461  -0.859  -4.583  0.00  0.00    -0.050 A 
ATOM     30  C   UNL     1       9.768  -1.648  -5.481  0.00  0.00    +0.003 A 
ATOM     31  C   UNL     1       8.752  -2.474  -5.036  0.00  0.00    +0.005 A 
ATOM     32  C   UNL     1       8.430  -2.510  -3.692  0.00  0.00    -0.038 A 
ATOM     33  C   UNL     1       9.124  -1.721  -2.794  0.00  0.00    +0.005 A 
ATOM     34  C   UNL     1      10.143  -0.899  -3.238  0.00  0.00    +0.003 A 
ENDBRANCH  27  32
ENDBRANCH  26  27
ENDBRANCH  25  26
ENDBRANCH  24  25
ENDBRANCH  20  24
ENDBRANCH  19  21
ENDBRANCH   1  19
TORSDOF 10
