REMARK  Name = ZINC37665556
REMARK  17 active torsions:
REMARK  status: ('A' for Active; 'I' for Inactive)
REMARK    1  A    between atoms: C_1  and  C_2
REMARK    2  A    between atoms: C_2  and  C_3
REMARK    3  A    between atoms: C_3  and  C_5
REMARK    4  A    between atoms: C_3  and  C_11
REMARK    5  A    between atoms: C_11  and  O_13
REMARK    6  A    between atoms: O_13  and  C_14
REMARK    7  A    between atoms: C_19  and  C_20
REMARK    8  A    between atoms: C_21  and  N_30
REMARK    9  A    between atoms: C_25  and  C_29
REMARK   10  A    between atoms: N_30  and  C_31
REMARK   11  A    between atoms: C_31  and  C_32
REMARK   12  A    between atoms: C_31  and  C_33
REMARK   13  A    between atoms: C_31  and  C_34
REMARK   14  A    between atoms: C_34  and  C_35
REMARK   15  A    between atoms: C_35  and  C_36
REMARK   16  A    between atoms: C_35  and  C_37
REMARK   17  A    between atoms: C_35  and  C_38
REMARK                            x       y       z     vdW  Elec       q    Type
REMARK                         _______ _______ _______ _____ _____    ______ ____
ROOT
ATOM      1  C   UNL     1       3.818   5.013  -0.473  0.00  0.00    +0.090 A 
ATOM      2  C   UNL     1       2.919   4.623   0.497  0.00  0.00    +0.129 A 
ATOM      3  N   UNL     1       1.776   5.343   0.289  0.00  0.00    -0.289 N 
ATOM      4  C   UNL     1       0.571   5.369   0.939  0.00  0.00    +0.094 A 
ATOM      5  C   UNL     1      -0.415   6.189   0.524  0.00  0.00    +0.021 A 
ATOM      6  C   UNL     1      -0.220   7.030  -0.586  0.00  0.00    -0.046 A 
ATOM      7  C   UNL     1       0.970   7.017  -1.243  0.00  0.00    +0.048 A 
ATOM      8  C   UNL     1       1.996   6.155  -0.800  0.00  0.00    +0.117 A 
ATOM      9  N   UNL     1       3.226   5.947  -1.240  0.00  0.00    -0.338 N 
ATOM     10  C   UNL     1      -1.328   7.943  -1.046  0.00  0.00    +0.044 C 
ATOM     11  H   UNL     1       3.636   6.395  -1.996  0.00  0.00    +0.167 HD
ENDROOT
BRANCH   1  17
ATOM     12  C   UNL     1       5.412   3.232  -1.198  0.00  0.00    +0.141 A 
ATOM     13  C   UNL     1       6.705   2.761  -1.354  0.00  0.00    +0.047 A 
ATOM     14  C   UNL     1       7.779   3.535  -0.954  0.00  0.00    +0.004 A 
ATOM     15  C   UNL     1       7.569   4.784  -0.396  0.00  0.00    +0.001 A 
ATOM     16  C   UNL     1       6.287   5.267  -0.235  0.00  0.00    +0.014 A 
ATOM     17  C   UNL     1       5.197   4.497  -0.640  0.00  0.00    +0.044 A 
BRANCH  12  18
ATOM     18  O   UNL     1       4.357   2.472  -1.591  0.00  0.00    -0.425 OA
BRANCH  18  19
ATOM     19  C   UNL     1       3.849   2.683  -2.816  0.00  0.00    +0.320 C 
ATOM     20  O   UNL     1       4.272   3.587  -3.498  0.00  0.00    -0.250 OA
BRANCH  19  21
ATOM     21  C   UNL     1       2.752   1.793  -3.340  0.00  0.00    +0.128 C 
BRANCH  21  22
ATOM     22  C   UNL     1       2.356   2.245  -4.722  0.00  0.00    -0.034 A 
ATOM     23  C   UNL     1       3.290   2.252  -5.742  0.00  0.00    +0.004 A 
ATOM     24  C   UNL     1       2.927   2.667  -7.009  0.00  0.00    +0.000 A 
ATOM     25  C   UNL     1       1.630   3.075  -7.258  0.00  0.00    +0.000 A 
ATOM     26  C   UNL     1       0.696   3.067  -6.239  0.00  0.00    +0.000 A 
ATOM     27  C   UNL     1       1.058   2.648  -4.972  0.00  0.00    +0.004 A 
ENDBRANCH  21  22
BRANCH  21  29
ATOM     28  C   UNL     1       3.551  -0.147  -1.984  0.00  0.00    +0.005 C 
ATOM     29  C   UNL     1       3.252   0.349  -3.400  0.00  0.00    +0.016 C 
ENDBRANCH  21  29
ENDBRANCH  19  21
ENDBRANCH  18  19
ENDBRANCH  12  18
ENDBRANCH   1  17
BRANCH   2  30
ATOM     30  N   UNL     1       3.135   3.676   1.499  0.00  0.00    -0.323 N 
ATOM     31  H   UNL     1       3.978   3.198   1.541  0.00  0.00    +0.148 HD
BRANCH  30  32
ATOM     32  C   UNL     1       2.089   3.405   2.488  0.00  0.00    +0.028 C 
ATOM     33  C   UNL     1       1.688   4.710   3.178  0.00  0.00    +0.031 C 
ATOM     34  C   UNL     1       0.869   2.803   1.788  0.00  0.00    +0.031 C 
BRANCH  32  35
ATOM     35  C   UNL     1       2.617   2.418   3.531  0.00  0.00    +0.031 C 
BRANCH  35  36
ATOM     36  C   UNL     1       2.892   1.069   2.864  0.00  0.00    -0.036 C 
ATOM     37  C   UNL     1       3.344   1.297   1.420  0.00  0.00    +0.010 C 
ATOM     38  C   UNL     1       3.992   0.335   3.632  0.00  0.00    +0.010 C 
ATOM     39  C   UNL     1       1.615   0.226   2.871  0.00  0.00    +0.010 C 
ENDBRANCH  35  36
ENDBRANCH  32  35
ENDBRANCH  30  32
ENDBRANCH   2  30
TORSDOF 10
