REMARK  Name = ZINC38107572
REMARK  5 active torsions:
REMARK  status: ('A' for Active; 'I' for Inactive)
REMARK    1  A    between atoms: C_1  and  C_2
REMARK    2  A    between atoms: C_2  and  C_3
REMARK    3  A    between atoms: C_9  and  N_11
REMARK    4  A    between atoms: N_11  and  S_12
REMARK    5  A    between atoms: S_12  and  C_15
REMARK                            x       y       z     vdW  Elec       q    Type
REMARK                         _______ _______ _______ _____ _____    ______ ____
ROOT
ATOM      1  S   UNL     1       1.253  -3.798   0.793  0.00  0.00    +0.078 S 
ATOM      2  O   UNL     1       2.184  -3.904   1.861  0.00  0.00    -0.152 OA
ATOM      3  O   UNL     1      -0.152  -3.783   1.007  0.00  0.00    -0.152 OA
ENDROOT
BRANCH   1   4
ATOM      4  C   UNL     1       1.582  -5.142  -0.297  0.00  0.00    +0.218 A 
ATOM      5  C   UNL     1       0.714  -5.691  -1.165  0.00  0.00    +0.176 A 
ATOM      6  N   UNL     1       1.336  -6.687  -1.814  0.00  0.00    -0.208 NA
ATOM      7  C   UNL     1       2.561  -6.775  -1.379  0.00  0.00    +0.180 A 
ATOM      8  N   UNL     1       2.791  -5.824  -0.420  0.00  0.00    -0.276 N 
ATOM      9  C   UNL     1       4.052  -5.789   0.133  0.00  0.00    +0.102 A 
ATOM     10  C   UNL     1       4.994  -6.645  -0.259  0.00  0.00    +0.067 A 
ATOM     11  S   UNL     1       4.125  -7.611  -1.485  0.00  0.00    -0.058 S 
ATOM     12 CL   UNL     1      -0.933  -5.195  -1.404  0.00  0.00    -0.058 Cl
ENDBRANCH   1   4
BRANCH   1  13
ATOM     13  N   UNL     1       1.622  -2.405  -0.021  0.00  0.00    -0.185 NA
ATOM     14  H   UNL     1       2.351  -1.842   0.285  0.00  0.00    +0.148 HD
BRANCH  13  20
ATOM     15  C   UNL     1       0.718  -0.497  -1.257  0.00  0.00    +0.007 C 
ATOM     16  C   UNL     1      -0.089  -0.097  -2.493  0.00  0.00    +0.005 C 
ATOM     17  C   UNL     1       0.627  -0.590  -3.752  0.00  0.00    +0.000 C 
ATOM     18  C   UNL     1       0.758  -2.114  -3.700  0.00  0.00    +0.002 C 
ATOM     19  C   UNL     1       1.565  -2.514  -2.464  0.00  0.00    +0.020 C 
ATOM     20  C   UNL     1       0.849  -2.021  -1.205  0.00  0.00    +0.080 C 
BRANCH  15  22
ATOM     21  C   UNL     1      -0.019   1.526   0.010  0.00  0.00    +0.004 C 
ATOM     22  C   UNL     1       0.002  -0.004   0.002  0.00  0.00    +0.002 C 
ENDBRANCH  15  22
ENDBRANCH  13  20
ENDBRANCH   1  13
TORSDOF 4
