REMARK  Name = ZINC53334266
REMARK  9 active torsions:
REMARK  status: ('A' for Active; 'I' for Inactive)
REMARK    1  A    between atoms: C_1  and  C_2
REMARK    2  A    between atoms: C_2  and  C_3
REMARK    3  A    between atoms: C_3  and  C_4
REMARK    4  A    between atoms: C_7  and  C_10
REMARK    5  A    between atoms: C_10  and  C_12
REMARK    6  A    between atoms: C_10  and  N_17
REMARK    7  A    between atoms: C_18  and  C_20
REMARK    8  A    between atoms: C_20  and  S_21
REMARK    9  A    between atoms: S_21  and  C_22
REMARK                            x       y       z     vdW  Elec       q    Type
REMARK                         _______ _______ _______ _____ _____    ______ ____
ROOT
ATOM      1  C   UNL     1      -1.355  -6.312  -0.019  0.00  0.00    +0.140 C 
ENDROOT
BRANCH   1   5
ATOM      2  C   UNL     1      -1.413  -2.041   0.005  0.00  0.00    -0.047 A 
ATOM      3  C   UNL     1      -1.409  -2.725  -1.196  0.00  0.00    +0.004 A 
ATOM      4  C   UNL     1      -1.391  -4.107  -1.204  0.00  0.00    +0.006 A 
ATOM      5  C   UNL     1      -1.375  -4.805  -0.011  0.00  0.00    -0.022 A 
ATOM      6  C   UNL     1      -1.378  -4.120   1.190  0.00  0.00    +0.006 A 
ATOM      7  C   UNL     1      -1.392  -2.738   1.198  0.00  0.00    +0.004 A 
BRANCH   2   8
ATOM      8  C   UNL     1      -1.433  -0.534   0.013  0.00  0.00    +0.035 C 
BRANCH   8  10
ATOM      9  C   UNL     1      -0.019   1.526   0.010  0.00  0.00    +0.004 C 
ATOM     10  C   UNL     1       0.002  -0.004   0.002  0.00  0.00    +0.001 C 
ENDBRANCH   8  10
ENDBRANCH   2   8
ENDBRANCH   1   5
BRANCH   1  11
ATOM     11  C   UNL     1      -2.747  -6.833   0.233  0.00  0.00    +0.014 A 
ATOM     12  C   UNL     1      -3.656  -7.302  -0.656  0.00  0.00    +0.013 A 
ATOM     13  C   UNL     1      -4.885  -7.735  -0.193  0.00  0.00    +0.008 A 
ATOM     14  C   UNL     1      -5.144  -7.677   1.136  0.00  0.00    +0.045 A 
ATOM     15  S   UNL     1      -3.622  -7.002   1.780  0.00  0.00    -0.099 S 
ENDBRANCH   1  11
BRANCH   1  16
ATOM     16  N   UNL     1      -0.456  -6.794   1.032  0.00  0.00    -0.303 N 
ATOM     17  C   UNL     1       0.119  -8.008   0.921  0.00  0.00    +0.224 C 
ATOM     18  O   UNL     1      -0.109  -8.701  -0.048  0.00  0.00    -0.275 OA
ATOM     19  H   UNL     1      -0.273  -6.240   1.806  0.00  0.00    +0.150 HD
BRANCH  17  20
ATOM     20  C   UNL     1       1.045  -8.505   2.002  0.00  0.00    +0.173 C 
BRANCH  20  21
ATOM     21  S   UNL     1       1.652 -10.158   1.566  0.00  0.00    -0.075 S 
BRANCH  21  22
ATOM     22  C   UNL     1       2.706 -10.592   2.909  0.00  0.00    +0.210 A 
ATOM     23  N   UNL     1       3.385 -11.740   3.025  0.00  0.00    -0.188 NA
ATOM     24  H   UNL     1       4.207 -10.278   5.625  0.00  0.00    +0.192 HD
ATOM     25  C   UNL     1       4.072 -11.736   4.147  0.00  0.00    +0.209 A 
ATOM     26  N   UNL     1       3.838 -10.565   4.776  0.00  0.00    -0.246 N 
ATOM     27  N   UNL     1       2.958  -9.842   3.954  0.00  0.00    -0.144 NA
ATOM     28  N   UNL     1       4.889 -12.754   4.603  0.00  0.00    -0.328 N 
ATOM     29  H   UNL     1       4.995 -13.563   4.079  0.00  0.00    +0.145 HD
ATOM     30  H   UNL     1       5.357 -12.659   5.448  0.00  0.00    +0.145 HD
ENDBRANCH  21  22
ENDBRANCH  20  21
ENDBRANCH  17  20
ENDBRANCH   1  16
TORSDOF 8
