REMARK  Name = ZINC38682781
REMARK  12 active torsions:
REMARK  status: ('A' for Active; 'I' for Inactive)
REMARK    1  A    between atoms: C_1  and  C_2
REMARK    2  A    between atoms: C_2  and  C_3
REMARK    3  A    between atoms: C_3  and  C_4
REMARK    4  A    between atoms: C_4  and  O_5
REMARK    5  A    between atoms: O_5  and  C_6
REMARK    6  A    between atoms: C_11  and  C_12
REMARK    7  A    between atoms: C_17  and  O_26
REMARK    8  A    between atoms: C_21  and  N_25
REMARK    9  A    between atoms: C_22  and  C_23
REMARK   10  A    between atoms: O_26  and  C_27
REMARK   11  A    between atoms: C_27  and  C_29
REMARK   12  A    between atoms: C_32  and  N_35
REMARK                            x       y       z     vdW  Elec       q    Type
REMARK                         _______ _______ _______ _____ _____    ______ ____
ROOT
ATOM      1  C   UNL     1       2.821  -3.466   4.608  0.00  0.00    +0.101 C 
ATOM      2  C   UNL     1       4.304  -3.701   4.707  0.00  0.00    +0.008 A 
ATOM      3  C   UNL     1       5.131  -3.276   3.682  0.00  0.00    +0.012 A 
ATOM      4  C   UNL     1       6.494  -3.484   3.756  0.00  0.00    +0.047 A 
ATOM      5  C   UNL     1       7.040  -4.121   4.861  0.00  0.00    +0.135 A 
ATOM      6  C   UNL     1       6.215  -4.548   5.889  0.00  0.00    +0.093 A 
ATOM      7  C   UNL     1       4.844  -4.339   5.813  0.00  0.00    +0.138 A 
ATOM      8  O   UNL     1       4.050  -4.764   6.827  0.00  0.00    -0.441 OA
ATOM      9  C   UNL     1       2.817  -4.250   6.973  0.00  0.00    +0.199 C 
ATOM     10  C   UNL     1       2.181  -3.624   5.958  0.00  0.00    +0.098 C 
ENDROOT
BRANCH   1  16
ATOM     11  C   UNL     1       1.563  -4.022   2.511  0.00  0.00    +0.125 A 
ATOM     12  C   UNL     1       1.015  -4.942   1.629  0.00  0.00    +0.046 A 
ATOM     13  C   UNL     1       1.120  -6.295   1.891  0.00  0.00    +0.004 A 
ATOM     14  C   UNL     1       1.771  -6.731   3.030  0.00  0.00    +0.001 A 
ATOM     15  C   UNL     1       2.317  -5.816   3.911  0.00  0.00    +0.008 A 
ATOM     16  C   UNL     1       2.219  -4.463   3.651  0.00  0.00    +0.007 A 
BRANCH  11  17
ATOM     17  O   UNL     1       1.461  -2.691   2.256  0.00  0.00    -0.492 OA
BRANCH  17  18
ATOM     18  C   UNL     1       0.771  -2.310   1.064  0.00  0.00    +0.229 C 
BRANCH  18  19
ATOM     19  C   UNL     1       0.758  -0.784   0.948  0.00  0.00    +0.041 C 
BRANCH  19  21
ATOM     20  C   UNL     1       0.007   1.149  -0.445  0.00  0.00    +0.004 C 
ATOM     21  C   UNL     1       0.019  -0.376  -0.329  0.00  0.00    -0.000 C 
ENDBRANCH  19  21
ENDBRANCH  18  19
ENDBRANCH  17  18
ENDBRANCH  11  17
ENDBRANCH   1  16
BRANCH   9  22
ATOM     22  N   UNL     1       2.186  -4.368   8.186  0.00  0.00    -0.328 N 
ATOM     23  H   UNL     1       2.631  -4.816   8.922  0.00  0.00    +0.145 HD
ATOM     24  H   UNL     1       1.296  -4.002   8.307  0.00  0.00    +0.145 HD
ENDBRANCH   9  22
BRANCH  10  25
ATOM     25  C   UNL     1       0.867  -3.099   6.178  0.00  0.00    +0.101 C 
ATOM     26  N   UNL     1      -0.176  -2.683   6.353  0.00  0.00    -0.191 NA
ENDBRANCH  10  25
BRANCH   5  27
ATOM     27  O   UNL     1       8.381  -4.327   4.935  0.00  0.00    -0.422 OA
BRANCH  27  28
ATOM     28  C   UNL     1       9.177  -3.253   5.102  0.00  0.00    +0.344 C 
ATOM     29  O   UNL     1       8.688  -2.157   5.286  0.00  0.00    -0.245 OA
BRANCH  28  30
ATOM     30  C   UNL     1      10.646  -3.409   5.061  0.00  0.00    +0.060 A 
ATOM     31  C   UNL     1      11.212  -4.666   4.843  0.00  0.00    +0.017 A 
ATOM     32  C   UNL     1      12.584  -4.805   4.806  0.00  0.00    +0.033 A 
ATOM     33  C   UNL     1      13.399  -3.700   4.984  0.00  0.00    +0.126 A 
ATOM     34  C   UNL     1      12.844  -2.451   5.200  0.00  0.00    +0.033 A 
ATOM     35  C   UNL     1      11.474  -2.298   5.233  0.00  0.00    +0.017 A 
BRANCH  33  36
ATOM     36  N   UNL     1      14.870  -3.857   4.944  0.00  0.00    +0.056 N 
ATOM     37  O   UNL     1      15.357  -4.947   4.755  0.00  0.00    -0.126 OA
ATOM     38  O   UNL     1      15.585  -2.894   5.099  0.00  0.00    -0.126 OA
ENDBRANCH  33  36
ENDBRANCH  28  30
ENDBRANCH  27  28
ENDBRANCH   5  27
TORSDOF 11
