REMARK  Name = ZINC36045951
REMARK  11 active torsions:
REMARK  status: ('A' for Active; 'I' for Inactive)
REMARK    1  A    between atoms: C_1  and  C_2
REMARK    2  A    between atoms: C_2  and  C_3
REMARK    3  A    between atoms: C_2  and  N_4
REMARK    4  A    between atoms: C_5  and  C_7
REMARK    5  A    between atoms: C_12  and  C_14
REMARK    6  A    between atoms: C_18  and  O_20
REMARK    7  A    between atoms: O_20  and  C_21
REMARK    8  A    between atoms: N_24  and  C_25
REMARK    9  A    between atoms: C_25  and  C_26
REMARK   10  A    between atoms: C_25  and  C_27
REMARK   11  A    between atoms: C_25  and  C_28
REMARK                            x       y       z     vdW  Elec       q    Type
REMARK                         _______ _______ _______ _____ _____    ______ ____
ROOT
ATOM      1  C   UNL     1      -3.354  -2.615  -0.074  0.00  0.00    +0.101 C 
ATOM      2  C   UNL     1      -4.174  -1.470  -0.722  0.00  0.00    +0.122 C 
ATOM      3  N   UNL     1      -3.628  -1.340  -2.085  0.00  0.00    -0.284 N 
ATOM      4  C   UNL     1      -3.015  -2.619  -2.471  0.00  0.00    +0.118 C 
ATOM      5  C   UNL     1      -3.167  -3.581  -1.273  0.00  0.00    +0.050 C 
ATOM      6  C   UNL     1      -3.684  -0.233  -2.851  0.00  0.00    +0.303 C 
ATOM      7  O   UNL     1      -3.199  -0.239  -3.966  0.00  0.00    -0.253 OA
ATOM      8  N   UNL     1      -4.277   0.883  -2.381  0.00  0.00    -0.294 N 
ATOM      9  H   UNL     1      -4.664   0.888  -1.492  0.00  0.00    +0.151 HD
ENDROOT
BRANCH   5  10
ATOM     10  C   UNL     1      -1.924  -4.415  -1.096  0.00  0.00    -0.039 A 
ATOM     11  C   UNL     1      -1.608  -4.929   0.148  0.00  0.00    +0.004 A 
ATOM     12  C   UNL     1      -0.468  -5.694   0.314  0.00  0.00    +0.004 A 
ATOM     13  C   UNL     1       0.358  -5.947  -0.764  0.00  0.00    +0.045 A 
ATOM     14  C   UNL     1       0.043  -5.433  -2.013  0.00  0.00    +0.120 A 
ATOM     15  C   UNL     1      -1.104  -4.670  -2.178  0.00  0.00    +0.049 A 
BRANCH  14  16
ATOM     16  O   UNL     1       0.854  -5.680  -3.075  0.00  0.00    -0.495 OA
ATOM     17  C   UNL     1       2.015  -6.478  -2.833  0.00  0.00    +0.277 C 
ENDBRANCH  14  16
ENDBRANCH   5  10
BRANCH   1  19
ATOM     18  N   UNL     1      -1.822  -1.946   1.749  0.00  0.00    -0.313 N 
ATOM     19  C   UNL     1      -2.025  -2.111   0.427  0.00  0.00    +0.218 C 
ATOM     20  O   UNL     1      -1.139  -1.853  -0.360  0.00  0.00    -0.275 OA
ATOM     21  H   UNL     1      -2.531  -2.152   2.378  0.00  0.00    +0.149 HD
BRANCH  18  23
ATOM     22  C   UNL     1      -0.720  -0.780   3.595  0.00  0.00    +0.027 C 
ATOM     23  C   UNL     1      -0.530  -1.456   2.236  0.00  0.00    +0.067 C 
ATOM     24  C   UNL     1       0.439  -2.631   2.382  0.00  0.00    +0.027 C 
ENDBRANCH  18  23
ENDBRANCH   1  19
BRANCH   8  25
ATOM     25  C   UNL     1      -4.337   2.087  -3.214  0.00  0.00    +0.028 C 
ATOM     26  C   UNL     1      -5.101   1.777  -4.503  0.00  0.00    +0.031 C 
ATOM     27  C   UNL     1      -5.057   3.200  -2.449  0.00  0.00    +0.031 C 
ATOM     28  C   UNL     1      -2.917   2.540  -3.558  0.00  0.00    +0.031 C 
ENDBRANCH   8  25
TORSDOF 5
