REMARK  Name = ZINC12417780
REMARK  4 active torsions:
REMARK  status: ('A' for Active; 'I' for Inactive)
REMARK    1  A    between atoms: C_1  and  C_2
REMARK    2  A    between atoms: N_7  and  C_9
REMARK    3  A    between atoms: C_13  and  N_16
REMARK    4  A    between atoms: C_21  and  C_23
REMARK                            x       y       z     vdW  Elec       q    Type
REMARK                         _______ _______ _______ _____ _____    ______ ____
ROOT
ATOM      1  C   UNL     1      -0.771   3.064   3.229  0.00  0.00    +0.081 A 
ATOM      2  C   UNL     1      -2.118   2.684   3.409  0.00  0.00    +0.080 A 
ATOM      3  C   UNL     1      -2.741   1.959   2.363  0.00  0.00    +0.067 A 
ATOM      4  C   UNL     1      -2.083   1.630   1.209  0.00  0.00    +0.162 A 
ATOM      5  C   UNL     1      -0.749   2.010   1.053  0.00  0.00    +0.104 A 
ATOM      6  C   UNL     1      -0.109   2.725   2.063  0.00  0.00    +0.169 A 
ATOM      7  F   UNL     1       1.180   3.093   1.901  0.00  0.00    -0.201 F 
ATOM      8  F   UNL     1      -2.716   0.941   0.234  0.00  0.00    -0.202 F 
ATOM      9  S   UNL     1      -4.435   1.521   2.670  0.00  0.00    -0.047 S 
ATOM     10  C   UNL     1      -5.011   2.094   4.254  0.00  0.00    +0.182 A 
ATOM     11  N   UNL     1      -6.148   2.002   4.875  0.00  0.00    -0.221 NA
ATOM     12  C   UNL     1      -6.054   2.623   6.081  0.00  0.00    +0.091 A 
ATOM     13  C   UNL     1      -6.957   2.821   7.129  0.00  0.00    +0.030 A 
ATOM     14  C   UNL     1      -6.558   3.508   8.254  0.00  0.00    +0.002 A 
ATOM     15  C   UNL     1      -5.267   4.004   8.355  0.00  0.00    +0.002 A 
ATOM     16  C   UNL     1      -4.364   3.817   7.328  0.00  0.00    +0.028 A 
ATOM     17  C   UNL     1      -4.749   3.128   6.189  0.00  0.00    +0.077 A 
ATOM     18  N   UNL     1      -4.085   2.783   5.010  0.00  0.00    -0.253 N 
ATOM     19  C   UNL     1      -2.836   3.026   4.619  0.00  0.00    +0.268 A 
ATOM     20  O   UNL     1      -2.175   3.650   5.428  0.00  0.00    -0.267 OA
ENDROOT
BRANCH   1  26
ATOM     21  C   UNL     1       1.302   7.296   4.397  0.00  0.00    +0.009 C 
ATOM     22  C   UNL     1       0.875   5.917   4.902  0.00  0.00    +0.003 C 
ATOM     23  C   UNL     1       2.093   5.178   5.463  0.00  0.00    +0.006 C 
ATOM     24  C   UNL     1       1.668   3.776   5.911  0.00  0.00    +0.019 C 
ATOM     25  C   UNL     1       1.053   3.031   4.724  0.00  0.00    +0.105 C 
ATOM     26  N   UNL     1      -0.109   3.778   4.224  0.00  0.00    -0.327 N 
ATOM     27  C   UNL     1       0.282   5.110   3.745  0.00  0.00    +0.108 C 
ENDBRANCH   1  26
BRANCH   5  28
ATOM     28  N   UNL     1      -0.060   1.680  -0.113  0.00  0.00    -0.323 N 
ATOM     29  C   UNL     1      -0.001   0.225  -0.296  0.00  0.00    +0.105 C 
ATOM     30  C   UNL     1       0.882  -0.104  -1.501  0.00  0.00    +0.019 C 
ATOM     31  C   UNL     1       0.302   0.563  -2.751  0.00  0.00    +0.003 C 
ATOM     32  C   UNL     1       0.207   2.073  -2.516  0.00  0.00    +0.022 C 
ATOM     33  C   UNL     1      -0.657   2.339  -1.281  0.00  0.00    +0.071 C 
ATOM     34  C   UNL     1      -0.738   3.846  -1.031  0.00  0.00    +0.028 C 
ENDBRANCH   5  28
TORSDOF 2
