REMARK  Name = ZINC06300869
REMARK  7 active torsions:
REMARK  status: ('A' for Active; 'I' for Inactive)
REMARK    1  A    between atoms: C_1  and  C_2
REMARK    2  A    between atoms: C_4  and  C_33
REMARK    3  A    between atoms: C_9  and  C_14
REMARK    4  A    between atoms: C_14  and  C_16
REMARK    5  A    between atoms: C_14  and  N_60
REMARK    6  A    between atoms: N_20  and  C_21
REMARK    7  A    between atoms: C_21  and  C_22
REMARK                            x       y       z     vdW  Elec       q    Type
REMARK                         _______ _______ _______ _____ _____    ______ ____
ROOT
ATOM      1  C   UNL     1       1.927   6.393  -1.845  0.00  0.00    +0.039 C 
ENDROOT
BRANCH   1  10
ATOM      2  C   UNL     1      -3.376   2.796  -5.660  0.00  0.00    +0.044 C 
ATOM      3  C   UNL     1      -2.904   3.993  -4.875  0.00  0.00    -0.050 A 
ATOM      4  C   UNL     1      -3.769   5.057  -4.657  0.00  0.00    +0.008 A 
ATOM      5  C   UNL     1      -3.360   6.161  -3.941  0.00  0.00    -0.026 A 
ATOM      6  C   UNL     1      -2.066   6.212  -3.431  0.00  0.00    +0.052 A 
ATOM      7  C   UNL     1      -1.192   5.131  -3.655  0.00  0.00    -0.001 A 
ATOM      8  C   UNL     1      -1.630   4.021  -4.385  0.00  0.00    +0.013 A 
ATOM      9  C   UNL     1       0.167   5.195  -3.114  0.00  0.00    +0.017 A 
ATOM     10  C   UNL     1       0.535   6.296  -2.415  0.00  0.00    +0.011 A 
ATOM     11  C   UNL     1      -0.382   7.351  -2.214  0.00  0.00    +0.251 A 
ATOM     12  O   UNL     1      -0.031   8.330  -1.579  0.00  0.00    -0.268 OA
ATOM     13  N   UNL     1      -1.630   7.304  -2.712  0.00  0.00    -0.322 N 
ATOM     14  H   UNL     1      -2.233   8.048  -2.559  0.00  0.00    +0.169 HD
ATOM     15  C   UNL     1      -4.309   7.308  -3.711  0.00  0.00    +0.046 C 
ENDBRANCH   1  10
BRANCH   1  21
ATOM     16  C   UNL     1       2.622   7.502  -3.881  0.00  0.00    -0.077 C 
ATOM     17  C   UNL     1       3.208   8.800  -4.442  0.00  0.00    -0.019 C 
ATOM     18  C   UNL     1       4.631   8.983  -3.908  0.00  0.00    -0.004 C 
ATOM     19  C   UNL     1       4.596   8.995  -2.377  0.00  0.00    -0.019 C 
ATOM     20  C   UNL     1       3.970   7.692  -1.877  0.00  0.00    -0.077 C 
ATOM     21  N   UNL     1       2.593   7.587  -2.406  0.00  0.00    +0.389 N 
ATOM     22  H   UNL     1       2.066   8.423  -2.130  0.00  0.00    -0.080 HD
ENDBRANCH   1  21
BRANCH   1  23
ATOM     23  C   UNL     1       2.698   5.145  -2.188  0.00  0.00    +0.143 A 
ATOM     24  N   UNL     1       3.128   4.792  -3.375  0.00  0.00    -0.115 NA
ATOM     25  N   UNL     1       3.742   3.665  -3.257  0.00  0.00    -0.023 NA
ATOM     26  N   UNL     1       3.720   3.293  -2.024  0.00  0.00    -0.044 NA
ATOM     27  N   UNL     1       3.081   4.177  -1.335  0.00  0.00    -0.226 N 
BRANCH  27  28
ATOM     28  C   UNL     1       2.825   4.136   0.107  0.00  0.00    +0.182 C 
BRANCH  28  29
ATOM     29  C   UNL     1       1.585   3.321   0.375  0.00  0.00    -0.026 A 
ATOM     30  C   UNL     1       1.671   1.945   0.475  0.00  0.00    +0.005 A 
ATOM     31  C   UNL     1       0.534   1.198   0.720  0.00  0.00    +0.000 A 
ATOM     32  C   UNL     1      -0.689   1.826   0.860  0.00  0.00    +0.000 A 
ATOM     33  C   UNL     1      -0.774   3.203   0.765  0.00  0.00    +0.000 A 
ATOM     34  C   UNL     1       0.363   3.950   0.520  0.00  0.00    +0.005 A 
ENDBRANCH  28  29
ENDBRANCH  27  28
ENDBRANCH   1  23
TORSDOF 5
