REMARK  Name = ZINC39641237
REMARK  14 active torsions:
REMARK  status: ('A' for Active; 'I' for Inactive)
REMARK    1  A    between atoms: C_1  and  C_2
REMARK    2  A    between atoms: C_2  and  O_3
REMARK    3  A    between atoms: O_3  and  C_4
REMARK    4  A    between atoms: C_11  and  C_18
REMARK    5  A    between atoms: C_13  and  O_14
REMARK    6  A    between atoms: C_18  and  O_19
REMARK    7  A    between atoms: O_19  and  C_20
REMARK    8  A    between atoms: C_20  and  C_22
REMARK    9  A    between atoms: C_22  and  C_24
REMARK   10  A    between atoms: C_22  and  N_27
REMARK   11  A    between atoms: C_24  and  C_25
REMARK   12  A    between atoms: C_24  and  C_26
REMARK   13  A    between atoms: C_28  and  C_30
REMARK   14  A    between atoms: C_33  and  C_36
REMARK                            x       y       z     vdW  Elec       q    Type
REMARK                         _______ _______ _______ _____ _____    ______ ____
ROOT
ATOM      1  C   UNL     1       1.716  -8.938  -3.593  0.00  0.00    +0.405 C 
ATOM      2  O   UNL     1       2.050  -8.466  -2.520  0.00  0.00    -0.226 OA
ATOM      3  N   UNL     1       0.461  -9.319  -3.788  0.00  0.00    -0.251 N 
ATOM      4  C   UNL     1      -0.482  -9.062  -2.843  0.00  0.00    +0.040 A 
ATOM      5  C   UNL     1      -1.704  -9.758  -2.866  0.00  0.00    +0.024 A 
ATOM      6  C   UNL     1      -2.654  -9.509  -1.928  0.00  0.00    +0.014 A 
ATOM      7  C   UNL     1      -2.417  -8.551  -0.925  0.00  0.00    +0.024 A 
ATOM      8  C   UNL     1      -3.390  -8.279   0.058  0.00  0.00    +0.007 A 
ATOM      9  C   UNL     1      -3.108  -7.330   1.021  0.00  0.00    +0.095 A 
ATOM     10  C   UNL     1      -1.889  -6.668   1.004  0.00  0.00    +0.285 A 
ATOM     11  O   UNL     1      -0.969  -6.929   0.069  0.00  0.00    -0.425 OA
ATOM     12  C   UNL     1      -1.192  -7.847  -0.894  0.00  0.00    +0.141 A 
ATOM     13  C   UNL     1      -0.230  -8.112  -1.851  0.00  0.00    +0.070 A 
ATOM     14  H   UNL     1       0.215  -9.782  -4.604  0.00  0.00    +0.158 HD
ENDROOT
BRANCH  10  15
ATOM     15  O   UNL     1      -1.627  -5.745   1.948  0.00  0.00    -0.480 OA
ATOM     16  H   UNL     1      -0.756  -5.332   1.864  0.00  0.00    +0.295 HD
ENDBRANCH  10  15
BRANCH   1  17
ATOM     17  O   UNL     1       2.625  -9.074  -4.585  0.00  0.00    -0.450 OA
BRANCH  17  19
ATOM     18  C   UNL     1       4.837  -8.873  -5.537  0.00  0.00    +0.048 C 
ATOM     19  C   UNL     1       3.958  -8.643  -4.306  0.00  0.00    +0.230 C 
ENDBRANCH  17  19
ENDBRANCH   1  17
BRANCH   8  20
ATOM     20  C   UNL     1      -4.709  -9.008   0.059  0.00  0.00    +0.268 C 
BRANCH  20  21
ATOM     21  O   UNL     1      -5.777  -8.061  -0.006  0.00  0.00    -0.459 OA
BRANCH  21  22
ATOM     22  C   UNL     1      -7.027  -8.551  -0.014  0.00  0.00    +0.328 C 
ATOM     23  O   UNL     1      -7.208  -9.745   0.033  0.00  0.00    -0.249 OA
BRANCH  22  24
ATOM     24  C   UNL     1      -8.204  -7.612  -0.080  0.00  0.00    +0.185 C 
BRANCH  24  25
ATOM     25  N   UNL     1      -9.447  -8.387  -0.076  0.00  0.00    -0.298 N 
ATOM     26  C   UNL     1     -10.589  -7.826   0.368  0.00  0.00    +0.245 C 
ATOM     27  O   UNL     1     -10.588  -6.677   0.765  0.00  0.00    -0.270 OA
ATOM     28  H   UNL     1      -9.448  -9.304  -0.393  0.00  0.00    +0.150 HD
BRANCH  26  29
ATOM     29  C   UNL     1     -11.844  -8.608   0.372  0.00  0.00    +0.037 A 
ATOM     30  C   UNL     1     -11.848  -9.929  -0.077  0.00  0.00    +0.013 A 
ATOM     31  C   UNL     1     -13.022 -10.654  -0.070  0.00  0.00    +0.004 A 
ATOM     32  C   UNL     1     -14.194 -10.073   0.381  0.00  0.00    -0.050 A 
ATOM     33  C   UNL     1     -14.197  -8.763   0.828  0.00  0.00    +0.004 A 
ATOM     34  C   UNL     1     -13.029  -8.030   0.832  0.00  0.00    +0.013 A 
ATOM     35  C   UNL     1     -15.473 -10.870   0.386  0.00  0.00    +0.044 C 
ENDBRANCH  26  29
ENDBRANCH  24  25
BRANCH  24  36
ATOM     36  C   UNL     1      -8.124  -6.784  -1.364  0.00  0.00    +0.014 C 
ATOM     37  C   UNL     1      -8.272  -7.706  -2.576  0.00  0.00    +0.009 C 
ATOM     38  C   UNL     1      -9.248  -5.746  -1.373  0.00  0.00    +0.009 C 
ENDBRANCH  24  36
ENDBRANCH  22  24
ENDBRANCH  21  22
ENDBRANCH  20  21
ENDBRANCH   8  20
TORSDOF 10
