REMARK  Name = ZINC16907628
REMARK  8 active torsions:
REMARK  status: ('A' for Active; 'I' for Inactive)
REMARK    1  A    between atoms: C_1  and  C_2
REMARK    2  A    between atoms: C_2  and  C_3
REMARK    3  A    between atoms: C_3  and  C_5
REMARK    4  A    between atoms: C_3  and  O_8
REMARK    5  A    between atoms: O_8  and  C_9
REMARK    6  A    between atoms: C_12  and  C_15
REMARK    7  A    between atoms: N_19  and  N_23
REMARK    8  A    between atoms: C_24  and  C_26
REMARK                            x       y       z     vdW  Elec       q    Type
REMARK                         _______ _______ _______ _____ _____    ______ ____
ROOT
ATOM      1  C   UNL     1      -6.647  -2.950  -0.721  0.00  0.00    +0.028 C 
ATOM      2  C   UNL     1      -7.551  -2.248  -1.450  0.00  0.00    +0.079 C 
ATOM      3  C   UNL     1      -7.612  -0.800  -1.732  0.00  0.00    +0.275 C 
ATOM      4  O   UNL     1      -6.779  -0.028  -1.295  0.00  0.00    -0.267 OA
ATOM      5  N   UNL     1      -8.618  -0.384  -2.483  0.00  0.00    -0.170 N 
ATOM      6  C   UNL     1      -9.539  -1.243  -2.966  0.00  0.00    +0.138 C 
ATOM      7  S   UNL     1     -10.901  -0.902  -3.946  0.00  0.00    -0.026 S 
ATOM      8  S   UNL     1      -8.990  -2.823  -2.341  0.00  0.00    -0.059 S 
ENDROOT
BRANCH   1  12
ATOM      9  C   UNL     1      -3.165  -1.032   0.754  0.00  0.00    +0.122 A 
ATOM     10  C   UNL     1      -3.806  -1.993   1.527  0.00  0.00    +0.046 A 
ATOM     11  C   UNL     1      -4.940  -2.615   1.055  0.00  0.00    +0.011 A 
ATOM     12  C   UNL     1      -5.441  -2.287  -0.211  0.00  0.00    -0.024 A 
ATOM     13  C   UNL     1      -4.787  -1.322  -0.988  0.00  0.00    +0.011 A 
ATOM     14  C   UNL     1      -3.657  -0.703  -0.504  0.00  0.00    +0.046 A 
BRANCH   9  15
ATOM     15  O   UNL     1      -2.050  -0.418   1.226  0.00  0.00    -0.477 OA
BRANCH  15  16
ATOM     16  C   UNL     1      -1.366   0.463   0.332  0.00  0.00    +0.285 C 
BRANCH  16  17
ATOM     17  C   UNL     1      -1.972   1.840   0.423  0.00  0.00    +0.396 C 
ATOM     18  O   UNL     1      -2.832   2.069   1.239  0.00  0.00    -0.242 OA
ATOM     19  O   UNL     1      -1.554   2.812  -0.404  0.00  0.00    -0.242 OA
ENDBRANCH  16  17
BRANCH  16  21
ATOM     20  C   UNL     1       0.757  -0.842   0.503  0.00  0.00    +0.008 C 
ATOM     21  C   UNL     1       0.114   0.530   0.715  0.00  0.00    +0.053 C 
ENDBRANCH  16  21
ENDBRANCH  15  16
ENDBRANCH   9  15
ENDBRANCH   1  12
BRANCH   5  22
ATOM     22  N   UNL     1      -8.730   0.980  -2.784  0.00  0.00    -0.226 N 
ATOM     23  C   UNL     1      -8.407   1.427  -4.014  0.00  0.00    +0.233 C 
ATOM     24  O   UNL     1      -8.019   0.648  -4.859  0.00  0.00    -0.274 OA
ATOM     25  H   UNL     1      -9.082   1.685  -2.017  0.00  0.00    +0.173 HD
BRANCH  23  26
ATOM     26  C   UNL     1      -8.527   2.893  -4.338  0.00  0.00    +0.076 C 
ATOM     27  C   UNL     1      -9.979   3.340  -4.152  0.00  0.00    +0.013 C 
ATOM     28  C   UNL     1     -10.100   4.829  -4.481  0.00  0.00    +0.001 C 
ATOM     29  C   UNL     1      -9.675   5.067  -5.931  0.00  0.00    +0.000 C 
ATOM     30  C   UNL     1      -8.223   4.621  -6.117  0.00  0.00    +0.001 C 
ATOM     31  C   UNL     1      -8.101   3.132  -5.788  0.00  0.00    +0.013 C 
ENDBRANCH  23  26
ENDBRANCH   5  22
TORSDOF 7
