REMARK  Name = ZINC12475027
REMARK  5 active torsions:
REMARK  status: ('A' for Active; 'I' for Inactive)
REMARK    1  A    between atoms: C_1  and  C_2
REMARK    2  A    between atoms: C_7  and  C_8
REMARK    3  A    between atoms: N_9  and  C_20
REMARK    4  A    between atoms: C_10  and  C_12
REMARK    5  A    between atoms: C_20  and  C_21
REMARK                            x       y       z     vdW  Elec       q    Type
REMARK                         _______ _______ _______ _____ _____    ______ ____
ROOT
ATOM      1  C   UNL     1       0.787   1.536  -1.131  0.00  0.00    +0.044 C 
ATOM      2  C   UNL     1       0.567   0.080  -0.809  0.00  0.00    -0.045 A 
ATOM      3  C   UNL     1       0.459  -0.836  -1.831  0.00  0.00    +0.033 A 
ATOM      4  C   UNL     1       0.255  -2.187  -1.534  0.00  0.00    +0.090 A 
ATOM      5  C   UNL     1       0.163  -2.593  -0.191  0.00  0.00    +0.070 A 
ATOM      6  C   UNL     1       0.276  -1.655   0.825  0.00  0.00    +0.031 A 
ATOM      7  C   UNL     1       0.481  -0.327   0.514  0.00  0.00    -0.045 A 
ATOM      8  C   UNL     1       0.608   0.689   1.619  0.00  0.00    +0.044 C 
ATOM      9  N   UNL     1      -0.036  -3.961  -0.213  0.00  0.00    -0.319 N 
ATOM     10  C   UNL     1      -0.060  -4.345  -1.528  0.00  0.00    +0.147 A 
ATOM     11  N   UNL     1       0.111  -3.297  -2.299  0.00  0.00    -0.227 NA
ENDROOT
BRANCH  10  12
ATOM     12  C   UNL     1      -0.251  -5.727  -2.006  0.00  0.00    +0.082 A 
ATOM     13  C   UNL     1       0.649  -6.727  -1.653  0.00  0.00    +0.018 A 
ATOM     14  C   UNL     1       0.436  -8.025  -2.123  0.00  0.00    +0.018 A 
ATOM     15  C   UNL     1      -0.633  -8.297  -2.911  0.00  0.00    +0.086 A 
ATOM     16  N   UNL     1      -1.514  -7.326  -3.259  0.00  0.00    -0.329 N 
ATOM     17  H   UNL     1      -2.270  -7.548  -3.825  0.00  0.00    +0.168 HD
ATOM     18  C   UNL     1      -1.357  -6.060  -2.827  0.00  0.00    +0.259 A 
ATOM     19  O   UNL     1      -2.162  -5.202  -3.146  0.00  0.00    -0.267 OA
ENDBRANCH  10  12
BRANCH   9  20
ATOM     20  C   UNL     1      -0.191  -4.837   0.951  0.00  0.00    +0.159 C 
BRANCH  20  21
ATOM     21  C   UNL     1      -1.649  -4.924   1.323  0.00  0.00    -0.025 A 
ATOM     22  C   UNL     1      -2.206  -3.978   2.163  0.00  0.00    +0.005 A 
ATOM     23  C   UNL     1      -3.543  -4.056   2.505  0.00  0.00    +0.003 A 
ATOM     24  C   UNL     1      -4.325  -5.082   2.007  0.00  0.00    +0.038 A 
ATOM     25  C   UNL     1      -3.768  -6.030   1.166  0.00  0.00    +0.124 A 
ATOM     26  C   UNL     1      -2.430  -5.946   0.819  0.00  0.00    +0.043 A 
ATOM     27  F   UNL     1      -4.532  -7.033   0.679  0.00  0.00    -0.205 F 
ENDBRANCH  20  21
ENDBRANCH   9  20
TORSDOF 3
