REMARK  Name = ZINC23230850
REMARK  5 active torsions:
REMARK  status: ('A' for Active; 'I' for Inactive)
REMARK    1  A    between atoms: C_1  and  C_2
REMARK    2  A    between atoms: C_6  and  C_8
REMARK    3  A    between atoms: N_9  and  N_10
REMARK    4  A    between atoms: C_11  and  C_13
REMARK    5  A    between atoms: C_15  and  N_21
REMARK                            x       y       z     vdW  Elec       q    Type
REMARK                         _______ _______ _______ _____ _____    ______ ____
ROOT
ATOM      1  N   UNL     1       4.752   4.030  -0.020  0.00  0.00    -0.202 N 
ATOM      2  C   UNL     1       5.931   3.377  -0.035  0.00  0.00    +0.283 C 
ATOM      3  O   UNL     1       5.953   2.161  -0.041  0.00  0.00    -0.267 OA
ATOM      4  H   UNL     1       4.733   5.130  -0.014  0.00  0.00    +0.178 HD
ENDROOT
BRANCH   2   5
ATOM      5  C   UNL     1       7.199   4.139  -0.042  0.00  0.00    +0.149 A 
ATOM      6  C   UNL     1       8.413   3.458  -0.051  0.00  0.00    +0.094 A 
ATOM      7  C   UNL     1       9.600   4.192  -0.063  0.00  0.00    +0.067 A 
ATOM      8  C   UNL     1       9.518   5.583  -0.055  0.00  0.00    +0.100 A 
ATOM      9  C   UNL     1       8.271   6.188  -0.041  0.00  0.00    +0.150 A 
ATOM     10  N   UNL     1       7.168   5.468  -0.035  0.00  0.00    -0.228 NA
ATOM     11 CL   UNL     1       8.161   7.921  -0.031  0.00  0.00    -0.060 Cl
ATOM     12 CL   UNL     1      10.961   6.548  -0.062  0.00  0.00    -0.078 Cl
ATOM     13 CL   UNL     1       8.450   1.722  -0.054  0.00  0.00    -0.079 Cl
BRANCH   7  14
ATOM     14  N   UNL     1      10.837   3.550  -0.077  0.00  0.00    -0.356 N 
ATOM     15  H   UNL     1      11.764   4.141  -0.086  0.00  0.00    +0.142 HD
ATOM     16  H   UNL     1      10.886   2.451  -0.079  0.00  0.00    +0.142 HD
ENDBRANCH   7  14
ENDBRANCH   2   5
BRANCH   1  18
ATOM     17  C   UNL     1       2.416   3.937   0.001  0.00  0.00    +0.138 C 
ATOM     18  N   UNL     1       3.552   3.308  -0.013  0.00  0.00    -0.187 NA
BRANCH  17  24
ATOM     19  C   UNL     1      -2.570   3.858   0.047  0.00  0.00    +0.044 C 
ATOM     20  C   UNL     1      -1.249   3.133   0.031  0.00  0.00    -0.050 A 
ATOM     21  C   UNL     1      -1.221   1.750   0.017  0.00  0.00    +0.003 A 
ATOM     22  C   UNL     1      -0.013   1.076   0.008  0.00  0.00    +0.001 A 
ATOM     23  C   UNL     1       1.174   1.780   0.000  0.00  0.00    +0.009 A 
ATOM     24  C   UNL     1       1.153   3.177   0.008  0.00  0.00    -0.005 A 
ATOM     25  C   UNL     1      -0.071   3.850   0.023  0.00  0.00    +0.012 A 
ENDBRANCH  17  24
ENDBRANCH   1  18
TORSDOF 4
