REMARK  Name = ZINC67383481
REMARK  5 active torsions:
REMARK  status: ('A' for Active; 'I' for Inactive)
REMARK    1  A    between atoms: C_1  and  C_2
REMARK    2  A    between atoms: C_2  and  C_4
REMARK    3  A    between atoms: C_2  and  C_23
REMARK    4  A    between atoms: C_4  and  N_5
REMARK    5  A    between atoms: C_12  and  C_15
REMARK                            x       y       z     vdW  Elec       q    Type
REMARK                         _______ _______ _______ _____ _____    ______ ____
ROOT
ATOM      1  N   UNL     1       2.148  -0.104   1.172  0.00  0.00    -0.299 N 
ATOM      2  C   UNL     1       2.997  -0.441   2.162  0.00  0.00    +0.302 C 
ATOM      3  O   UNL     1       2.579  -1.004   3.156  0.00  0.00    -0.253 OA
ATOM      4  N   UNL     1       4.309  -0.155   2.051  0.00  0.00    -0.281 N 
ATOM      5  C   UNL     1       4.821   0.626   0.914  0.00  0.00    +0.137 C 
ATOM      6  C   UNL     1       6.004  -0.132   0.300  0.00  0.00    +0.179 C 
ATOM      7  O   UNL     1       6.946  -0.446   1.329  0.00  0.00    -0.369 OA
ATOM      8  C   UNL     1       6.434  -1.311   2.346  0.00  0.00    +0.166 C 
ATOM      9  C   UNL     1       5.272  -0.609   3.067  0.00  0.00    +0.145 C 
ATOM     10  H   UNL     1       2.467   0.410   0.413  0.00  0.00    +0.150 HD
ENDROOT
BRANCH   8  11
ATOM     11  C   UNL     1       7.526  -1.623   3.337  0.00  0.00    -0.015 A 
ATOM     12  C   UNL     1       8.401  -0.630   3.736  0.00  0.00    +0.009 A 
ATOM     13  C   UNL     1       9.403  -0.914   4.644  0.00  0.00    +0.041 A 
ATOM     14  C   UNL     1       9.530  -2.193   5.157  0.00  0.00    +0.158 A 
ATOM     15  C   UNL     1       8.652  -3.189   4.758  0.00  0.00    +0.159 A 
ATOM     16  C   UNL     1       7.647  -2.900   3.852  0.00  0.00    +0.047 A 
ATOM     17  F   UNL     1       8.774  -4.439   5.257  0.00  0.00    -0.202 F 
ATOM     18  F   UNL     1      10.510  -2.471   6.045  0.00  0.00    -0.202 F 
ENDBRANCH   8  11
BRANCH   1  19
ATOM     19  C   UNL     1       0.742  -0.512   1.241  0.00  0.00    +0.113 C 
BRANCH  19  21
ATOM     20  C   UNL     1      -0.020   1.525   0.011  0.00  0.00    +0.014 C 
ATOM     21  C   UNL     1       0.002  -0.005   0.001  0.00  0.00    +0.033 C 
BRANCH  21  22
ATOM     22  C   UNL     1      -1.411  -0.528   0.011  0.00  0.00    -0.043 A 
ATOM     23  C   UNL     1      -2.259  -0.209   1.055  0.00  0.00    +0.004 A 
ATOM     24  C   UNL     1      -3.555  -0.688   1.064  0.00  0.00    +0.000 A 
ATOM     25  C   UNL     1      -4.004  -1.487   0.029  0.00  0.00    +0.000 A 
ATOM     26  C   UNL     1      -3.156  -1.806  -1.015  0.00  0.00    +0.000 A 
ATOM     27  C   UNL     1      -1.861  -1.323  -1.026  0.00  0.00    +0.004 A 
ENDBRANCH  21  22
ENDBRANCH  19  21
ENDBRANCH   1  19
TORSDOF 4
