REMARK  Name = ZINC54120822
REMARK  13 active torsions:
REMARK  status: ('A' for Active; 'I' for Inactive)
REMARK    1  A    between atoms: C_1  and  C_2
REMARK    2  A    between atoms: C_2  and  N_3
REMARK    3  A    between atoms: N_3  and  C_4
REMARK    4  A    between atoms: N_3  and  C_6
REMARK    5  A    between atoms: C_4  and  C_5
REMARK    6  A    between atoms: C_9  and  C_12
REMARK    7  A    between atoms: C_12  and  N_13
REMARK    8  A    between atoms: N_13  and  C_14
REMARK    9  A    between atoms: C_14  and  C_15
REMARK   10  A    between atoms: C_15  and  C_17
REMARK   11  A    between atoms: C_15  and  O_26
REMARK   12  A    between atoms: C_17  and  O_18
REMARK   13  A    between atoms: O_18  and  C_19
REMARK                            x       y       z     vdW  Elec       q    Type
REMARK                         _______ _______ _______ _____ _____    ______ ____
ROOT
ATOM      1  N   UNL     1      -0.117  -6.582   1.201  0.00  0.00    -0.310 N 
ATOM      2  C   UNL     1       1.072  -6.851   0.534  0.00  0.00    +0.099 A 
ATOM      3  C   UNL     1       2.192  -7.252   1.255  0.00  0.00    +0.042 A 
ATOM      4  C   UNL     1       3.369  -7.516   0.579  0.00  0.00    +0.005 A 
ATOM      5  C   UNL     1       3.387  -7.369  -0.802  0.00  0.00    +0.018 A 
ATOM      6  C   UNL     1       2.239  -6.967  -1.454  0.00  0.00    +0.084 A 
ATOM      7  N   UNL     1       1.128  -6.728  -0.783  0.00  0.00    -0.350 N 
ATOM      8  H   UNL     1       0.334  -6.450  -1.267  0.00  0.00    +0.166 HD
ENDROOT
BRANCH   1   9
ATOM      9  C   UNL     1      -1.302  -6.165   0.447  0.00  0.00    +0.141 C 
BRANCH   9  13
ATOM     10  C   UNL     1      -1.358  -1.906   0.120  0.00  0.00    +0.013 A 
ATOM     11  C   UNL     1      -0.724  -2.666  -0.846  0.00  0.00    +0.022 A 
ATOM     12  C   UNL     1      -0.706  -4.044  -0.740  0.00  0.00    +0.007 A 
ATOM     13  C   UNL     1      -1.321  -4.663   0.332  0.00  0.00    -0.030 A 
ATOM     14  C   UNL     1      -1.954  -3.903   1.298  0.00  0.00    +0.007 A 
ATOM     15  C   UNL     1      -1.968  -2.525   1.194  0.00  0.00    +0.022 A 
BRANCH  10  16
ATOM     16  N   UNL     1      -1.376  -0.512   0.012  0.00  0.00    -0.394 NA
ATOM     17  H   UNL     1      -1.873  -0.121   0.799  0.00  0.00    +0.126 HD
BRANCH  16  19
ATOM     18  C   UNL     1      -0.019   1.526   0.010  0.00  0.00    +0.022 C 
ATOM     19  C   UNL     1       0.002  -0.004   0.002  0.00  0.00    +0.081 C 
ENDBRANCH  16  19
BRANCH  16  20
ATOM     20  C   UNL     1      -2.050  -0.126  -1.234  0.00  0.00    +0.081 C 
ATOM     21  C   UNL     1      -3.520  -0.547  -1.171  0.00  0.00    +0.022 C 
ENDBRANCH  16  20
ENDBRANCH  10  16
ENDBRANCH   9  13
ENDBRANCH   1   9
BRANCH   1  22
ATOM     22  C   UNL     1      -0.186  -6.716   2.658  0.00  0.00    +0.141 C 
BRANCH  22  23
ATOM     23  C   UNL     1      -0.603  -8.143   3.020  0.00  0.00    +0.169 C 
BRANCH  23  24
ATOM     24  O   UNL     1      -1.886  -8.422   2.455  0.00  0.00    -0.387 OA
ATOM     25  H   UNL     1      -2.588  -7.833   2.763  0.00  0.00    +0.210 HD
ENDBRANCH  23  24
BRANCH  23  26
ATOM     26  C   UNL     1      -0.675  -8.283   4.542  0.00  0.00    +0.261 C 
BRANCH  26  27
ATOM     27  O   UNL     1      -0.951  -9.644   4.882  0.00  0.00    -0.489 OA
BRANCH  27  28
ATOM     28  C   UNL     1      -1.048  -9.941   6.205  0.00  0.00    +0.121 A 
ATOM     29  C   UNL     1      -0.886  -8.943   7.155  0.00  0.00    +0.047 A 
ATOM     30  C   UNL     1      -0.985  -9.247   8.499  0.00  0.00    +0.023 A 
ATOM     31  C   UNL     1      -1.244 -10.547   8.898  0.00  0.00    +0.041 A 
ATOM     32  C   UNL     1      -1.405 -11.544   7.952  0.00  0.00    +0.023 A 
ATOM     33  C   UNL     1      -1.313 -11.242   6.607  0.00  0.00    +0.047 A 
ATOM     34 CL   UNL     1      -1.367 -10.927  10.587  0.00  0.00    -0.084 Cl
ENDBRANCH  27  28
ENDBRANCH  26  27
ENDBRANCH  23  26
ENDBRANCH  22  23
ENDBRANCH   1  22
TORSDOF 11
