REMARK  Name = ZINC49487661
REMARK  8 active torsions:
REMARK  status: ('A' for Active; 'I' for Inactive)
REMARK    1  A    between atoms: C_1  and  C_2
REMARK    2  A    between atoms: C_3  and  C_11
REMARK    3  A    between atoms: C_4  and  C_10
REMARK    4  A    between atoms: N_5  and  C_7
REMARK    5  A    between atoms: C_7  and  C_8
REMARK    6  A    between atoms: C_7  and  C_9
REMARK    7  A    between atoms: C_11  and  C_13
REMARK    8  A    between atoms: C_14  and  C_15
REMARK                            x       y       z     vdW  Elec       q    Type
REMARK                         _______ _______ _______ _____ _____    ______ ____
ROOT
ATOM      1  C   UNL     1      -0.016   1.510   0.005  0.00  0.00    +0.068 C 
ATOM      2  C   UNL     1       0.004   0.003   0.001  0.00  0.00    +0.071 A 
ATOM      3  C   UNL     1      -0.091  -0.825  -1.139  0.00  0.00    +0.065 A 
ATOM      4  C   UNL     1      -0.033  -2.132  -0.701  0.00  0.00    +0.047 A 
ATOM      5  N   UNL     1       0.091  -2.102   0.637  0.00  0.00    -0.265 N 
ATOM      6  N   UNL     1       0.117  -0.765   1.050  0.00  0.00    -0.175 NA
ATOM      7  C   UNL     1      -0.096  -3.366  -1.563  0.00  0.00    +0.066 C 
ENDROOT
BRANCH   5   8
ATOM      8  C   UNL     1       0.188  -3.271   1.514  0.00  0.00    +0.101 C 
ATOM      9  C   UNL     1       1.513  -3.227   2.278  0.00  0.00    +0.032 C 
ATOM     10  C   UNL     1      -0.975  -3.260   2.509  0.00  0.00    +0.032 C 
ENDBRANCH   5   8
BRANCH   3  11
ATOM     11  C   UNL     1      -0.228  -0.376  -2.540  0.00  0.00    +0.190 C 
ATOM     12  O   UNL     1      -1.329  -0.120  -2.993  0.00  0.00    -0.287 OA
BRANCH  11  13
ATOM     13  C   UNL     1       0.920  -0.243  -3.354  0.00  0.00    +0.052 C 
ATOM     14  C   UNL     1       0.808   0.270  -4.607  0.00  0.00    +0.019 C 
BRANCH  14  15
ATOM     15  C   UNL     1       1.956   0.403  -5.422  0.00  0.00    +0.013 A 
ATOM     16  C   UNL     1       2.060   0.903  -6.717  0.00  0.00    +0.030 A 
ATOM     17  C   UNL     1       3.325   0.906  -7.253  0.00  0.00    +0.025 A 
ATOM     18  C   UNL     1       4.358   0.436  -6.510  0.00  0.00    +0.061 A 
ATOM     19  S   UNL     1       3.649  -0.018  -5.056  0.00  0.00    -0.096 S 
ATOM     20 BR   UNL     1       3.621   1.555  -9.004  0.00  0.00    -0.050 Br
ENDBRANCH  14  15
ENDBRANCH  11  13
ENDBRANCH   3  11
TORSDOF 4
