REMARK  Name = ZINC61587917
REMARK  4 active torsions:
REMARK  status: ('A' for Active; 'I' for Inactive)
REMARK    1  A    between atoms: C_3  and  N_12
REMARK    2  A    between atoms: C_6  and  S_7
REMARK    3  A    between atoms: S_7  and  N_10
REMARK    4  A    between atoms: N_12  and  C_13
REMARK                            x       y       z     vdW  Elec       q    Type
REMARK                         _______ _______ _______ _____ _____    ______ ____
ROOT
ATOM      1  C   UNL     1      -0.017   1.378   0.010  0.00  0.00    +0.030 A 
ATOM      2  C   UNL     1       1.169   2.087   0.002  0.00  0.00    +0.026 A 
ATOM      3  C   UNL     1       2.381   1.410  -0.013  0.00  0.00    +0.042 A 
ATOM      4  C   UNL     1       2.397   0.020  -0.021  0.00  0.00    +0.041 A 
ATOM      5  C   UNL     1       1.207  -0.682  -0.013  0.00  0.00    +0.045 A 
ATOM      6  C   UNL     1       0.002  -0.004   0.002  0.00  0.00    +0.106 A 
ATOM      7 BR   UNL     1       4.044  -0.908  -0.042  0.00  0.00    -0.048 Br
ENDROOT
BRANCH   6   8
ATOM      8  S   UNL     1      -1.513  -0.904   0.012  0.00  0.00    +0.056 S 
ATOM      9  O   UNL     1      -1.221  -2.185   0.553  0.00  0.00    -0.153 OA
ATOM     10  O   UNL     1      -2.493  -0.043   0.577  0.00  0.00    -0.153 OA
BRANCH   8  11
ATOM     11  N   UNL     1      -1.949  -1.145  -1.567  0.00  0.00    -0.204 NA
ATOM     12  H   UNL     1      -1.389  -0.805  -2.283  0.00  0.00    +0.144 HD
ATOM     13  H   UNL     1      -2.764  -1.627  -1.777  0.00  0.00    +0.144 HD
ENDBRANCH   8  11
ENDBRANCH   6   8
BRANCH   3  14
ATOM     14  N   UNL     1       3.582   2.124  -0.021  0.00  0.00    -0.339 N 
ATOM     15  H   UNL     1       4.428   1.649  -0.032  0.00  0.00    +0.146 HD
BRANCH  14  16
ATOM     16  C   UNL     1       3.564   3.589  -0.014  0.00  0.00    +0.080 C 
ATOM     17  C   UNL     1       4.854   4.115  -0.636  0.00  0.00    +0.024 C 
ATOM     18  C   UNL     1       4.754   5.614  -0.903  0.00  0.00    +0.012 C 
ATOM     19  C   UNL     1       4.787   6.383   0.420  0.00  0.00    +0.069 C 
ATOM     20  S   UNL     1       3.340   5.904   1.410  0.00  0.00    -0.159 S 
ATOM     21  C   UNL     1       3.441   4.088   1.429  0.00  0.00    +0.091 C 
ENDBRANCH  14  16
ENDBRANCH   3  14
TORSDOF 4
