REMARK  Name = ZINC39621057
REMARK  6 active torsions:
REMARK  status: ('A' for Active; 'I' for Inactive)
REMARK    1  A    between atoms: C_3  and  C_6
REMARK    2  A    between atoms: C_8  and  S_12
REMARK    3  A    between atoms: S_12  and  C_13
REMARK    4  A    between atoms: C_13  and  C_14
REMARK    5  A    between atoms: N_16  and  C_17
REMARK    6  A    between atoms: C_19  and  C_28
REMARK                            x       y       z     vdW  Elec       q    Type
REMARK                         _______ _______ _______ _____ _____    ______ ____
ROOT
ATOM      1  C   UNL     1       8.818  -1.155  -0.111  0.00  0.00    +0.224 C 
ATOM      2  O   UNL     1       9.798  -0.441  -0.115  0.00  0.00    -0.275 OA
ATOM      3  N   UNL     1       8.959  -2.495  -0.125  0.00  0.00    -0.302 N 
ATOM      4  H   UNL     1       8.175  -3.066  -0.121  0.00  0.00    +0.150 HD
ENDROOT
BRANCH   3   5
ATOM      5  C   UNL     1      10.298  -3.089  -0.146  0.00  0.00    +0.151 C 
ATOM      6  C   UNL     1      10.383  -4.331   0.775  0.00  0.00    +0.132 C 
ATOM      7  C   UNL     1      11.243  -5.412   0.172  0.00  0.00    -0.046 C 
ATOM      8  C   UNL     1      11.475  -5.357  -1.135  0.00  0.00    -0.013 C 
ATOM      9  S   UNL     1      10.649  -3.910  -1.757  0.00  0.00    -0.106 S 
ATOM     10  C   UNL     1      12.283  -6.326  -1.951  0.00  0.00    +0.042 C 
ATOM     11  C   UNL     1      13.130  -7.184  -1.003  0.00  0.00    +0.005 C 
ATOM     12  C   UNL     1      12.229  -7.698   0.124  0.00  0.00    +0.005 C 
ATOM     13  C   UNL     1      11.829  -6.533   1.028  0.00  0.00    +0.032 C 
BRANCH   6  14
ATOM     14  C   UNL     1       8.995  -4.875   0.996  0.00  0.00    +0.220 C 
ATOM     15  O   UNL     1       8.720  -6.000   0.635  0.00  0.00    -0.275 OA
ATOM     16  N   UNL     1       8.059  -4.112   1.595  0.00  0.00    -0.329 N 
ATOM     17  H   UNL     1       8.279  -3.212   1.883  0.00  0.00    +0.145 HD
ATOM     18  H   UNL     1       7.166  -4.462   1.737  0.00  0.00    +0.145 HD
ENDBRANCH   6  14
ENDBRANCH   3   5
BRANCH   1  19
ATOM     19  C   UNL     1       7.440  -0.543  -0.089  0.00  0.00    +0.173 C 
BRANCH  19  20
ATOM     20  S   UNL     1       7.582   1.266  -0.074  0.00  0.00    -0.077 S 
BRANCH  20  23
ATOM     21  C   UNL     1       3.740   1.825  -0.024  0.00  0.00    +0.189 A 
ATOM     22  N   UNL     1       4.842   1.059  -0.044  0.00  0.00    -0.200 NA
ATOM     23  C   UNL     1       5.911   1.824  -0.050  0.00  0.00    +0.185 A 
ATOM     24  N   UNL     1       5.505   3.113  -0.033  0.00  0.00    -0.253 N 
ATOM     25  H   UNL     1       6.073   3.900  -0.032  0.00  0.00    +0.191 HD
ATOM     26  N   UNL     1       4.102   3.090  -0.022  0.00  0.00    -0.151 NA
BRANCH  21  29
ATOM     27  C   UNL     1      -0.016   1.353   0.009  0.00  0.00    +0.008 A 
ATOM     28  C   UNL     1       1.178   2.041   0.002  0.00  0.00    +0.019 A 
ATOM     29  C   UNL     1       2.347   1.329  -0.013  0.00  0.00    +0.058 A 
ATOM     30  S   UNL     1       1.752  -0.354  -0.017  0.00  0.00    -0.093 S 
ATOM     31  C   UNL     1       0.002  -0.004   0.002  0.00  0.00    +0.046 A 
ENDBRANCH  21  29
ENDBRANCH  20  23
ENDBRANCH  19  20
ENDBRANCH   1  19
TORSDOF 6
