REMARK  Name = ZINC20505859
REMARK  8 active torsions:
REMARK  status: ('A' for Active; 'I' for Inactive)
REMARK    1  A    between atoms: C_1  and  C_2
REMARK    2  A    between atoms: C_2  and  C_4
REMARK    3  A    between atoms: C_2  and  N_11
REMARK    4  A    between atoms: N_6  and  C_7
REMARK    5  A    between atoms: C_7  and  C_8
REMARK    6  A    between atoms: C_8  and  O_9
REMARK    7  A    between atoms: O_9  and  C_10
REMARK    8  A    between atoms: N_11  and  C_12
REMARK                            x       y       z     vdW  Elec       q    Type
REMARK                         _______ _______ _______ _____ _____    ______ ____
ROOT
ATOM      1  N   UNL     1      -3.611   1.792   0.029  0.00  0.00    -0.331 N 
ATOM      2  H   UNL     1      -3.480   2.805   0.436  0.00  0.00    +0.147 HD
ENDROOT
BRANCH   1   3
ATOM      3  C   UNL     1      -4.756   1.206  -0.521  0.00  0.00    +0.065 A 
ATOM      4  C   UNL     1      -4.745   0.754  -1.835  0.00  0.00    +0.064 A 
ATOM      5  C   UNL     1      -5.876   0.170  -2.373  0.00  0.00    +0.037 A 
ATOM      6  C   UNL     1      -7.022   0.045  -1.609  0.00  0.00    +0.021 A 
ATOM      7  C   UNL     1      -7.039   0.499  -0.302  0.00  0.00    +0.037 A 
ATOM      8  C   UNL     1      -5.909   1.079   0.244  0.00  0.00    +0.064 A 
ATOM      9 CL   UNL     1      -5.931   1.648   1.884  0.00  0.00    -0.082 Cl
ATOM     10 BR   UNL     1      -8.570  -0.747  -2.352  0.00  0.00    -0.050 Br
ATOM     11 CL   UNL     1      -3.309   0.917  -2.797  0.00  0.00    -0.082 Cl
ENDBRANCH   1   3
BRANCH   1  13
ATOM     12  C   UNL     1      -2.545  -0.035   1.263  0.00  0.00    +0.038 C 
ATOM     13  C   UNL     1      -2.482   0.853   0.018  0.00  0.00    +0.154 C 
BRANCH  13  14
ATOM     14  C   UNL     1      -1.187   1.624   0.017  0.00  0.00    +0.233 C 
ATOM     15  O   UNL     1      -1.204   2.837   0.023  0.00  0.00    -0.274 OA
ATOM     16  N   UNL     1      -0.011   0.966   0.007  0.00  0.00    -0.312 N 
ATOM     17  H   UNL     1       0.004  -0.134   0.006  0.00  0.00    +0.149 HD
BRANCH  16  18
ATOM     18  C   UNL     1       1.248   1.716  -0.001  0.00  0.00    +0.132 C 
BRANCH  18  19
ATOM     19  C   UNL     1       2.424   0.737  -0.017  0.00  0.00    +0.178 C 
BRANCH  19  20
ATOM     20  O   UNL     1       2.414   0.001  -1.242  0.00  0.00    -0.381 OA
ATOM     21  C   UNL     1       3.478  -0.946  -1.360  0.00  0.00    +0.194 C 
ENDBRANCH  19  20
ENDBRANCH  18  19
ENDBRANCH  16  18
ENDBRANCH  13  14
ENDBRANCH   1  13
TORSDOF 6
