REMARK  Name = ZINC18269089
REMARK  7 active torsions:
REMARK  status: ('A' for Active; 'I' for Inactive)
REMARK    1  A    between atoms: C_7  and  N_31
REMARK    2  A    between atoms: C_9  and  C_11
REMARK    3  A    between atoms: C_11  and  O_12
REMARK    4  A    between atoms: O_12  and  C_13
REMARK    5  A    between atoms: C_13  and  C_15
REMARK    6  A    between atoms: C_18  and  S_21
REMARK    7  A    between atoms: S_21  and  N_24
REMARK                            x       y       z     vdW  Elec       q    Type
REMARK                         _______ _______ _______ _____ _____    ______ ____
ROOT
ATOM      1  C   UNL     1       1.707  -4.423  -1.586  0.00  0.00    +0.340 C 
ATOM      2  O   UNL     1       1.931  -5.253  -0.728  0.00  0.00    -0.245 OA
ENDROOT
BRANCH   1   3
ATOM      3  C   UNL     1       0.500  -3.575  -1.497  0.00  0.00    +0.059 A 
ATOM      4  C   UNL     1      -0.385  -3.726  -0.428  0.00  0.00    +0.017 A 
ATOM      5  C   UNL     1      -1.510  -2.931  -0.350  0.00  0.00    +0.029 A 
ATOM      6  C   UNL     1      -1.761  -1.986  -1.329  0.00  0.00    +0.106 A 
ATOM      7  C   UNL     1      -0.891  -1.835  -2.394  0.00  0.00    +0.029 A 
ATOM      8  C   UNL     1       0.240  -2.619  -2.481  0.00  0.00    +0.017 A 
BRANCH   6   9
ATOM      9  S   UNL     1      -3.200  -0.975  -1.222  0.00  0.00    +0.061 S 
ATOM     10  O   UNL     1      -4.139  -1.686  -0.427  0.00  0.00    -0.153 OA
ATOM     11  O   UNL     1      -3.493  -0.544  -2.544  0.00  0.00    -0.153 OA
BRANCH   9  12
ATOM     12  N   UNL     1      -2.784   0.380  -0.365  0.00  0.00    -0.177 NA
ATOM     13  C   UNL     1      -2.281   1.542  -1.038  0.00  0.00    +0.109 C 
ATOM     14  C   UNL     1      -0.749   1.592  -1.257  0.00  0.00    +0.017 C 
ATOM     15  C   UNL     1      -0.013   1.086   0.008  0.00  0.00    +0.001 C 
ATOM     16  C   UNL     1      -0.703   1.564   1.253  0.00  0.00    +0.001 C 
ATOM     17  C   UNL     1      -1.581   0.401   1.701  0.00  0.00    +0.017 C 
ATOM     18  C   UNL     1      -2.928   0.411   1.129  0.00  0.00    +0.109 C 
ENDBRANCH   9  12
ENDBRANCH   6   9
ENDBRANCH   1   3
BRANCH   1  19
ATOM     19  O   UNL     1       2.559  -4.275  -2.619  0.00  0.00    -0.453 OA
BRANCH  19  20
ATOM     20  C   UNL     1       3.724  -5.141  -2.642  0.00  0.00    +0.308 C 
BRANCH  20  29
ATOM     21  C   UNL     1       7.790  -3.050  -7.064  0.00  0.00    +0.001 A 
ATOM     22  C   UNL     1       8.017  -2.381  -5.865  0.00  0.00    +0.002 A 
ATOM     23  C   UNL     1       7.271  -2.652  -4.757  0.00  0.00    +0.028 A 
ATOM     24  C   UNL     1       6.258  -3.618  -4.824  0.00  0.00    +0.076 A 
ATOM     25  C   UNL     1       6.028  -4.298  -6.045  0.00  0.00    +0.040 A 
ATOM     26  C   UNL     1       6.812  -3.996  -7.164  0.00  0.00    +0.013 A 
ATOM     27  C   UNL     1       4.999  -5.270  -6.087  0.00  0.00    +0.128 A 
ATOM     28  N   UNL     1       4.308  -5.498  -4.978  0.00  0.00    -0.214 NA
ATOM     29  C   UNL     1       4.555  -4.834  -3.860  0.00  0.00    +0.169 A 
ATOM     30  N   UNL     1       5.495  -3.923  -3.764  0.00  0.00    -0.228 NA
BRANCH  27  31
ATOM     31  N   UNL     1       4.728  -5.965  -7.246  0.00  0.00    -0.343 N 
ATOM     32  H   UNL     1       5.244  -5.790  -8.048  0.00  0.00    +0.144 HD
ATOM     33  H   UNL     1       4.020  -6.628  -7.259  0.00  0.00    +0.144 HD
ENDBRANCH  27  31
ENDBRANCH  20  29
ENDBRANCH  19  20
ENDBRANCH   1  19
TORSDOF 7
