REMARK  Name = ZINC15930477
REMARK  4 active torsions:
REMARK  status: ('A' for Active; 'I' for Inactive)
REMARK    1  A    between atoms: C_2  and  C_3
REMARK    2  A    between atoms: C_3  and  N_4
REMARK    3  A    between atoms: N_12  and  N_13
REMARK    4  A    between atoms: C_14  and  C_16
REMARK                            x       y       z     vdW  Elec       q    Type
REMARK                         _______ _______ _______ _____ _____    ______ ____
ROOT
ATOM      1  N   UNL     1       1.393   1.891   0.007  0.00  0.00    -0.254 N 
ATOM      2  C   UNL     1       2.027   2.416   1.129  0.00  0.00    +0.047 A 
ATOM      3  C   UNL     1       1.644   2.470   2.465  0.00  0.00    +0.025 A 
ATOM      4  C   UNL     1       2.472   3.058   3.399  0.00  0.00    +0.017 A 
ATOM      5  C   UNL     1       3.690   3.599   3.022  0.00  0.00    +0.019 A 
ATOM      6  C   UNL     1       4.087   3.554   1.699  0.00  0.00    +0.027 A 
ATOM      7  C   UNL     1       3.259   2.963   0.751  0.00  0.00    +0.029 A 
ATOM      8  C   UNL     1       3.379   2.754  -0.711  0.00  0.00    +0.153 C 
ATOM      9  N   UNL     1       4.373   3.108  -1.489  0.00  0.00    -0.174 NA
ATOM     10  C   UNL     1       2.139   2.054  -1.099  0.00  0.00    +0.272 C 
ATOM     11  O   UNL     1       1.842   1.691  -2.222  0.00  0.00    -0.268 OA
ATOM     12 BR   UNL     1       4.811   4.400   4.317  0.00  0.00    -0.050 Br
ENDROOT
BRANCH   9  13
ATOM     13  N   UNL     1       5.542   3.644  -0.932  0.00  0.00    -0.202 N 
ATOM     14  C   UNL     1       6.513   4.122  -1.736  0.00  0.00    +0.263 C 
ATOM     15  O   UNL     1       6.375   4.088  -2.943  0.00  0.00    -0.268 OA
ATOM     16  H   UNL     1       5.652   3.672   0.031  0.00  0.00    +0.178 HD
BRANCH  14  17
ATOM     17  C   UNL     1       7.745   4.687  -1.149  0.00  0.00    +0.039 A 
ATOM     18  C   UNL     1       7.910   4.723   0.237  0.00  0.00    +0.013 A 
ATOM     19  C   UNL     1       9.063   5.252   0.779  0.00  0.00    +0.002 A 
ATOM     20  C   UNL     1      10.056   5.746  -0.048  0.00  0.00    +0.014 A 
ATOM     21  C   UNL     1       9.900   5.714  -1.423  0.00  0.00    +0.014 A 
ATOM     22  C   UNL     1       8.753   5.183  -1.978  0.00  0.00    +0.027 A 
ATOM     23  I   UNL     1      11.411   6.467  -2.664  0.00  0.00    -0.044 I 
ENDBRANCH  14  17
ENDBRANCH   9  13
BRANCH   1  24
ATOM     24  C   UNL     1       0.082   1.238   0.030  0.00  0.00    +0.202 C 
BRANCH  24  26
ATOM     25  C   UNL     1       0.394  -1.354   0.461  0.00  0.00    +0.005 C 
ATOM     26  C   UNL     1       0.256  -0.204   0.270  0.00  0.00    -0.086 C 
ENDBRANCH  24  26
ENDBRANCH   1  24
TORSDOF 4
