REMARK  Name = ZINC39227252
REMARK  8 active torsions:
REMARK  status: ('A' for Active; 'I' for Inactive)
REMARK    1  A    between atoms: C_1  and  C_2
REMARK    2  A    between atoms: C_5  and  C_8
REMARK    3  A    between atoms: C_11  and  C_13
REMARK    4  A    between atoms: C_13  and  N_14
REMARK    5  A    between atoms: C_25  and  O_34
REMARK    6  A    between atoms: C_28  and  O_29
REMARK    7  A    between atoms: O_29  and  C_30
REMARK    8  A    between atoms: O_34  and  C_35
REMARK                            x       y       z     vdW  Elec       q    Type
REMARK                         _______ _______ _______ _____ _____    ______ ____
ROOT
ATOM      1  N   UNL     1       1.495  -7.963   1.694  0.00  0.00    +0.386 N 
ATOM      2  C   UNL     1       2.159  -8.312   0.432  0.00  0.00    -0.074 C 
ATOM      3  C   UNL     1       3.630  -8.639   0.698  0.00  0.00    +0.030 C 
ATOM      4  C   UNL     1       3.718  -9.818   1.670  0.00  0.00    +0.114 C 
ATOM      5  C   UNL     1       2.957  -9.473   2.953  0.00  0.00    +0.030 C 
ATOM      6  C   UNL     1       1.511  -9.116   2.602  0.00  0.00    -0.074 C 
ATOM      7  C   UNL     1       5.190 -10.088   2.011  0.00  0.00    +0.127 C 
ATOM      8  C   UNL     1       5.218 -11.271   2.963  0.00  0.00    +0.174 C 
ATOM      9  O   UNL     1       5.976 -11.310   3.910  0.00  0.00    -0.292 OA
ATOM     10  C   UNL     1       4.281 -12.365   2.678  0.00  0.00    +0.105 A 
ATOM     11  C   UNL     1       3.261 -12.166   1.725  0.00  0.00    +0.180 A 
ATOM     12  C   UNL     1       2.368 -13.185   1.449  0.00  0.00    +0.206 A 
ATOM     13  C   UNL     1       2.471 -14.410   2.111  0.00  0.00    +0.183 A 
ATOM     14  C   UNL     1       3.487 -14.610   3.060  0.00  0.00    +0.066 A 
ATOM     15  C   UNL     1       4.396 -13.589   3.347  0.00  0.00    +0.145 A 
ATOM     16  C   UNL     1       3.303 -15.982   3.551  0.00  0.00    +0.053 A 
ATOM     17  C   UNL     1       2.246 -16.475   2.892  0.00  0.00    +0.196 A 
ATOM     18  O   UNL     1       1.757 -15.552   2.044  0.00  0.00    -0.459 OA
ATOM     19  O   UNL     1       3.148 -10.980   1.072  0.00  0.00    -0.481 OA
ATOM     20  H   UNL     1       1.981  -7.191   2.125  0.00  0.00    -0.081 HD
ENDROOT
BRANCH  15  21
ATOM     21  O   UNL     1       5.378 -13.782   4.261  0.00  0.00    -0.494 OA
ATOM     22  C   UNL     1       5.077 -13.445   5.617  0.00  0.00    +0.277 C 
ENDBRANCH  15  21
BRANCH  12  23
ATOM     23  O   UNL     1       1.383 -12.993   0.528  0.00  0.00    -0.488 OA
ATOM     24  C   UNL     1       1.687 -13.332  -0.826  0.00  0.00    +0.277 C 
ENDBRANCH  12  23
BRANCH   1  25
ATOM     25  C   UNL     1       0.105  -7.574   1.424  0.00  0.00    +0.021 C 
BRANCH  25  29
ATOM     26  C   UNL     1       0.059  -4.251  -0.021  0.00  0.00    +0.248 A 
ATOM     27  N   UNL     1       0.070  -5.024  -1.082  0.00  0.00    -0.107 NA
ATOM     28  N   UNL     1       0.087  -6.255  -0.710  0.00  0.00    -0.114 NA
ATOM     29  C   UNL     1       0.087  -6.317   0.592  0.00  0.00    +0.202 A 
ATOM     30  O   UNL     1       0.075  -5.057   1.060  0.00  0.00    -0.422 OA
BRANCH  26  35
ATOM     31  C   UNL     1      -0.018   1.503   0.010  0.00  0.00    +0.044 C 
ATOM     32  C   UNL     1       0.002  -0.004   0.002  0.00  0.00    -0.050 A 
ATOM     33  C   UNL     1       0.006  -0.686  -1.202  0.00  0.00    +0.004 A 
ATOM     34  C   UNL     1       0.024  -2.066  -1.216  0.00  0.00    +0.013 A 
ATOM     35  C   UNL     1       0.040  -2.773  -0.013  0.00  0.00    +0.038 A 
ATOM     36  C   UNL     1       0.036  -2.079   1.198  0.00  0.00    +0.013 A 
ATOM     37  C   UNL     1       0.023  -0.699   1.198  0.00  0.00    +0.004 A 
ENDBRANCH  26  35
ENDBRANCH  25  29
ENDBRANCH   1  25
TORSDOF 5
