REMARK  Name = ZINC52211815
REMARK  6 active torsions:
REMARK  status: ('A' for Active; 'I' for Inactive)
REMARK    1  A    between atoms: C_1  and  C_2
REMARK    2  A    between atoms: C_7  and  C_8
REMARK    3  A    between atoms: N_13  and  C_14
REMARK    4  A    between atoms: C_14  and  C_15
REMARK    5  A    between atoms: C_19  and  C_28
REMARK    6  A    between atoms: N_30  and  C_31
REMARK                            x       y       z     vdW  Elec       q    Type
REMARK                         _______ _______ _______ _____ _____    ______ ____
ROOT
ATOM      1  C   UNL     1       2.409  -1.589   4.880  0.00  0.00    +0.203 C 
ATOM      2  O   UNL     1       1.666  -2.450   5.301  0.00  0.00    -0.277 OA
ATOM      3  N   UNL     1       3.671  -1.500   5.345  0.00  0.00    -0.266 N 
ATOM      4  C   UNL     1       4.551  -0.386   4.954  0.00  0.00    +0.168 C 
ATOM      5  C   UNL     1       5.307   0.070   6.210  0.00  0.00    +0.276 C 
ATOM      6  O   UNL     1       6.040  -1.039   6.736  0.00  0.00    -0.476 OA
ATOM      7  C   UNL     1       5.377  -2.212   6.907  0.00  0.00    +0.143 A 
ATOM      8  C   UNL     1       4.190  -2.465   6.226  0.00  0.00    +0.078 A 
ATOM      9  C   UNL     1       3.525  -3.666   6.411  0.00  0.00    +0.027 A 
ATOM     10  C   UNL     1       4.039  -4.611   7.281  0.00  0.00    +0.002 A 
ATOM     11  C   UNL     1       5.213  -4.357   7.964  0.00  0.00    +0.004 A 
ATOM     12  C   UNL     1       5.886  -3.168   7.773  0.00  0.00    +0.047 A 
ENDROOT
BRANCH   5  13
ATOM     13  C   UNL     1       6.257   1.183   5.851  0.00  0.00    +0.255 C 
ATOM     14  O   UNL     1       7.454   1.015   5.952  0.00  0.00    -0.272 OA
ATOM     15  N   UNL     1       5.777   2.366   5.418  0.00  0.00    -0.315 N 
ATOM     16  C   UNL     1       6.702   3.448   5.069  0.00  0.00    +0.128 C 
ATOM     17  H   UNL     1       4.820   2.501   5.337  0.00  0.00    +0.148 HD
ENDBRANCH   5  13
BRANCH   1  18
ATOM     18  C   UNL     1       1.921  -0.617   3.837  0.00  0.00    +0.020 C 
BRANCH  18  23
ATOM     19  C   UNL     1       0.033   0.030   2.486  0.00  0.00    -0.037 C 
ATOM     20  C   UNL     1      -1.405   0.453   2.878  0.00  0.00    -0.013 C 
ATOM     21  C   UNL     1      -1.273   0.621   4.415  0.00  0.00    -0.020 C 
ATOM     22  C   UNL     1      -0.282  -0.496   4.804  0.00  0.00    -0.077 C 
ATOM     23  N   UNL     1       0.489  -0.838   3.593  0.00  0.00    +0.390 N 
ATOM     24  H   UNL     1       0.332  -1.805   3.353  0.00  0.00    -0.080 HD
BRANCH  19  31
ATOM     25  C   UNL     1       0.426   1.416  -0.018  0.00  0.00    +0.044 C 
ATOM     26  C   UNL     1       0.206  -0.075  -0.009  0.00  0.00    -0.049 A 
ATOM     27  C   UNL     1       0.199  -0.780  -1.198  0.00  0.00    +0.003 A 
ATOM     28  C   UNL     1      -0.003  -2.147  -1.189  0.00  0.00    +0.000 A 
ATOM     29  C   UNL     1      -0.196  -2.810   0.009  0.00  0.00    +0.000 A 
ATOM     30  C   UNL     1      -0.187  -2.105   1.198  0.00  0.00    +0.002 A 
ATOM     31  C   UNL     1       0.018  -0.738   1.189  0.00  0.00    -0.058 A 
ENDBRANCH  19  31
ENDBRANCH  18  23
ENDBRANCH   1  18
TORSDOF 4
