REMARK  Name = ZINC38666362
REMARK  10 active torsions:
REMARK  status: ('A' for Active; 'I' for Inactive)
REMARK    1  A    between atoms: C_1  and  C_2
REMARK    2  A    between atoms: C_2  and  C_3
REMARK    3  A    between atoms: C_6  and  C_9
REMARK    4  A    between atoms: N_11  and  C_12
REMARK    5  A    between atoms: C_12  and  C_13
REMARK    6  A    between atoms: C_13  and  C_15
REMARK    7  A    between atoms: C_13  and  N_24
REMARK    8  A    between atoms: C_18  and  N_21
REMARK    9  A    between atoms: N_21  and  C_22
REMARK   10  A    between atoms: N_21  and  C_23
REMARK                            x       y       z     vdW  Elec       q    Type
REMARK                         _______ _______ _______ _____ _____    ______ ____
ROOT
ATOM      1  C   UNL     1      -7.902  -2.911  -2.548  0.00  0.00    +0.121 C 
ENDROOT
BRANCH   1   2
ATOM      2  N   UNL     1      -7.281  -3.640  -3.657  0.00  0.00    -0.321 N 
ATOM      3  C   UNL     1      -6.261  -4.681  -3.510  0.00  0.00    +0.110 C 
ATOM      4  C   UNL     1      -5.935  -5.130  -4.944  0.00  0.00    +0.056 C 
ATOM      5  C   UNL     1      -6.826  -4.279  -5.821  0.00  0.00    -0.025 A 
ATOM      6  C   UNL     1      -7.579  -3.447  -5.007  0.00  0.00    +0.033 A 
ATOM      7  C   UNL     1      -8.488  -2.565  -5.595  0.00  0.00    +0.023 A 
ATOM      8  C   UNL     1      -8.634  -2.529  -6.966  0.00  0.00    +0.002 A 
ATOM      9  C   UNL     1      -7.881  -3.367  -7.768  0.00  0.00    +0.000 A 
ATOM     10  C   UNL     1      -6.973  -4.237  -7.193  0.00  0.00    +0.005 A 
ENDBRANCH   1   2
BRANCH   1  11
ATOM     11  C   UNL     1      -9.005  -3.748  -1.953  0.00  0.00    -0.025 A 
ATOM     12  C   UNL     1      -8.733  -5.024  -1.496  0.00  0.00    +0.007 A 
ATOM     13  C   UNL     1      -9.742  -5.793  -0.950  0.00  0.00    +0.023 A 
ATOM     14  C   UNL     1     -11.031  -5.284  -0.860  0.00  0.00    +0.029 A 
ATOM     15  C   UNL     1     -11.301  -4.001  -1.321  0.00  0.00    +0.023 A 
ATOM     16  C   UNL     1     -10.286  -3.235  -1.860  0.00  0.00    +0.007 A 
BRANCH  14  17
ATOM     17  N   UNL     1     -12.054  -6.059  -0.309  0.00  0.00    -0.336 N 
ATOM     18  C   UNL     1     -11.768  -7.412   0.175  0.00  0.00    +0.129 C 
ATOM     19  C   UNL     1     -13.413  -5.520  -0.216  0.00  0.00    +0.129 C 
ENDBRANCH  14  17
ENDBRANCH   1  11
BRANCH   1  20
ATOM     20  C   UNL     1      -6.850  -2.619  -1.477  0.00  0.00    +0.131 C 
BRANCH  20  23
ATOM     21  C   UNL     1      -4.668  -1.545  -1.324  0.00  0.00    +0.244 C 
ATOM     22  O   UNL     1      -4.655  -1.807  -0.137  0.00  0.00    -0.270 OA
ATOM     23  N   UNL     1      -5.721  -1.908  -2.083  0.00  0.00    -0.309 N 
ATOM     24  H   UNL     1      -5.731  -1.700  -3.030  0.00  0.00    +0.149 HD
BRANCH  21  28
ATOM     25  C   UNL     1      -1.394   0.514  -3.080  0.00  0.00    -0.048 A 
ATOM     26  C   UNL     1      -1.376   0.218  -1.729  0.00  0.00    +0.004 A 
ATOM     27  C   UNL     1      -2.436  -0.451  -1.152  0.00  0.00    +0.013 A 
ATOM     28  C   UNL     1      -3.528  -0.828  -1.935  0.00  0.00    +0.037 A 
ATOM     29  C   UNL     1      -3.540  -0.527  -3.298  0.00  0.00    +0.013 A 
ATOM     30  C   UNL     1      -2.476   0.147  -3.861  0.00  0.00    +0.004 A 
BRANCH  25  32
ATOM     31  C   UNL     1      -0.476   2.752  -3.624  0.00  0.00    +0.009 C 
ATOM     32  C   UNL     1      -0.232   1.244  -3.704  0.00  0.00    +0.032 C 
ENDBRANCH  25  32
ENDBRANCH  21  28
ENDBRANCH  20  23
ENDBRANCH   1  20
TORSDOF 7
