REMARK  Name = ZINC08435265
REMARK  8 active torsions:
REMARK  status: ('A' for Active; 'I' for Inactive)
REMARK    1  A    between atoms: C_1  and  O_2
REMARK    2  A    between atoms: O_2  and  C_3
REMARK    3  A    between atoms: C_4  and  C_11
REMARK    4  A    between atoms: C_11  and  C_13
REMARK    5  A    between atoms: C_11  and  N_62
REMARK    6  A    between atoms: N_17  and  C_18
REMARK    7  A    between atoms: C_18  and  C_19
REMARK    8  A    between atoms: C_18  and  C_25
REMARK                            x       y       z     vdW  Elec       q    Type
REMARK                         _______ _______ _______ _____ _____    ______ ____
ROOT
ATOM      1  C   UNL     1       5.343   3.545   2.584  0.00  0.00    +0.037 C 
ENDROOT
BRANCH   1   3
ATOM      2  C   UNL     1       6.492   4.674   0.662  0.00  0.00    +0.140 A 
ATOM      3  C   UNL     1       6.295   4.575   2.032  0.00  0.00    -0.009 A 
ATOM      4  C   UNL     1       6.966   5.426   2.889  0.00  0.00    +0.026 A 
ATOM      5  C   UNL     1       7.844   6.369   2.383  0.00  0.00    +0.043 A 
ATOM      6  C   UNL     1       8.043   6.469   1.018  0.00  0.00    +0.043 A 
ATOM      7  C   UNL     1       7.369   5.623   0.156  0.00  0.00    +0.084 A 
ATOM      8 CL   UNL     1       7.619   5.749  -1.557  0.00  0.00    -0.080 Cl
ATOM      9 CL   UNL     1       8.691   7.431   3.463  0.00  0.00    -0.083 Cl
BRANCH   2  11
ATOM     10  C   UNL     1       4.628   4.342  -0.775  0.00  0.00    +0.277 C 
ATOM     11  O   UNL     1       5.828   3.841  -0.183  0.00  0.00    -0.493 OA
ENDBRANCH   2  11
ENDBRANCH   1   3
BRANCH   1  17
ATOM     12  C   UNL     1       7.121   2.771   4.033  0.00  0.00    -0.077 C 
ATOM     13  C   UNL     1       7.525   2.578   5.496  0.00  0.00    -0.019 C 
ATOM     14  C   UNL     1       6.605   1.539   6.143  0.00  0.00    -0.004 C 
ATOM     15  C   UNL     1       5.152   2.005   6.015  0.00  0.00    -0.019 C 
ATOM     16  C   UNL     1       4.817   2.214   4.536  0.00  0.00    -0.077 C 
ATOM     17  N   UNL     1       5.721   3.243   3.980  0.00  0.00    +0.389 N 
ATOM     18  H   UNL     1       5.637   4.099   4.541  0.00  0.00    -0.080 HD
ENDBRANCH   1  17
BRANCH   1  19
ATOM     19  C   UNL     1       3.941   4.096   2.567  0.00  0.00    +0.143 A 
ATOM     20  N   UNL     1       2.962   3.721   1.780  0.00  0.00    -0.115 NA
ATOM     21  N   UNL     1       1.925   4.428   2.071  0.00  0.00    -0.023 NA
ATOM     22  N   UNL     1       2.214   5.239   3.027  0.00  0.00    -0.043 NA
ATOM     23  N   UNL     1       3.450   5.069   3.357  0.00  0.00    -0.219 N 
BRANCH  23  24
ATOM     24  C   UNL     1       4.180   5.795   4.399  0.00  0.00    +0.171 C 
BRANCH  24  25
ATOM     25  C   UNL     1       4.106   7.275   4.127  0.00  0.00    -0.019 A 
ATOM     26  C   UNL     1       5.263   8.030   4.090  0.00  0.00    +0.006 A 
ATOM     27  C   UNL     1       5.194   9.388   3.840  0.00  0.00    +0.000 A 
ATOM     28  C   UNL     1       3.968   9.992   3.633  0.00  0.00    +0.000 A 
ATOM     29  C   UNL     1       2.811   9.236   3.665  0.00  0.00    +0.000 A 
ATOM     30  C   UNL     1       2.880   7.878   3.914  0.00  0.00    +0.006 A 
ENDBRANCH  24  25
BRANCH  24  31
ATOM     31  C   UNL     1       3.564   5.499   5.743  0.00  0.00    -0.019 A 
ATOM     32  C   UNL     1       2.203   5.653   5.927  0.00  0.00    +0.006 A 
ATOM     33  C   UNL     1       1.637   5.377   7.158  0.00  0.00    +0.000 A 
ATOM     34  C   UNL     1       2.434   4.958   8.207  0.00  0.00    +0.000 A 
ATOM     35  C   UNL     1       3.796   4.810   8.024  0.00  0.00    +0.000 A 
ATOM     36  C   UNL     1       4.361   5.080   6.791  0.00  0.00    +0.006 A 
ENDBRANCH  24  31
ENDBRANCH  23  24
ENDBRANCH   1  19
TORSDOF 7
