REMARK  Name = ZINC50864723
REMARK  8 active torsions:
REMARK  status: ('A' for Active; 'I' for Inactive)
REMARK    1  A    between atoms: C_1  and  C_2
REMARK    2  A    between atoms: C_2  and  C_3
REMARK    3  A    between atoms: C_3  and  N_4
REMARK    4  A    between atoms: C_7  and  C_21
REMARK    5  A    between atoms: C_9  and  C_11
REMARK    6  A    between atoms: C_13  and  O_19
REMARK    7  A    between atoms: C_14  and  O_18
REMARK    8  A    between atoms: O_19  and  C_20
REMARK                            x       y       z     vdW  Elec       q    Type
REMARK                         _______ _______ _______ _____ _____    ______ ____
ROOT
ATOM      1  N   UNL     1      -1.413  -1.998   0.005  0.00  0.00    -0.329 N 
ATOM      2  C   UNL     1      -2.604  -2.708   0.012  0.00  0.00    +0.123 A 
ATOM      3  C   UNL     1      -3.829  -2.036   0.022  0.00  0.00    +0.064 A 
ATOM      4  C   UNL     1      -4.991  -2.783   0.029  0.00  0.00    +0.018 A 
ATOM      5  N   UNL     1      -4.911  -4.105   0.027  0.00  0.00    -0.343 N 
ATOM      6  C   UNL     1      -3.735  -4.717   0.018  0.00  0.00    +0.141 A 
ATOM      7  N   UNL     1      -2.597  -4.036   0.005  0.00  0.00    -0.215 NA
ATOM      8  C   UNL     1      -6.335  -2.101   0.040  0.00  0.00    +0.063 C 
ATOM      9  H   UNL     1      -0.567  -2.472  -0.006  0.00  0.00    +0.147 HD
ATOM     10  H   UNL     1      -5.725  -4.633   0.033  0.00  0.00    +0.167 HD
ENDROOT
BRANCH   6  11
ATOM     11  C   UNL     1      -3.691  -6.198   0.016  0.00  0.00    +0.022 A 
ATOM     12  C   UNL     1      -2.463  -6.860   0.013  0.00  0.00    +0.061 A 
ATOM     13  C   UNL     1      -2.426  -8.242   0.012  0.00  0.00    +0.163 A 
ATOM     14  C   UNL     1      -3.613  -8.971   0.014  0.00  0.00    +0.173 A 
ATOM     15  C   UNL     1      -4.834  -8.312   0.018  0.00  0.00    +0.064 A 
ATOM     16  C   UNL     1      -4.876  -6.932   0.024  0.00  0.00    +0.030 A 
ATOM     17 BR   UNL     1      -6.443  -9.305   0.022  0.00  0.00    -0.046 Br
BRANCH  14  18
ATOM     18  O   UNL     1      -3.575 -10.330   0.013  0.00  0.00    -0.503 OA
ATOM     19  H   UNL     1      -3.562 -10.724   0.896  0.00  0.00    +0.292 HD
ENDBRANCH  14  18
BRANCH  13  20
ATOM     20  O   UNL     1      -1.230  -8.890   0.008  0.00  0.00    -0.491 OA
ATOM     21  C   UNL     1      -0.053  -8.080   0.005  0.00  0.00    +0.277 C 
ENDBRANCH  13  20
ENDBRANCH   6  11
BRANCH   1  22
ATOM     22  C   UNL     1      -1.433  -0.534   0.013  0.00  0.00    +0.102 C 
BRANCH  22  24
ATOM     23  C   UNL     1      -0.019   1.526   0.010  0.00  0.00    +0.005 C 
ATOM     24  C   UNL     1       0.002  -0.004   0.002  0.00  0.00    +0.015 C 
ENDBRANCH  22  24
ENDBRANCH   1  22
TORSDOF 5
