REMARK  Name = ZINC59489403
REMARK  11 active torsions:
REMARK  status: ('A' for Active; 'I' for Inactive)
REMARK    1  A    between atoms: C_1  and  C_2
REMARK    2  A    between atoms: C_2  and  C_26
REMARK    3  A    between atoms: N_3  and  N_4
REMARK    4  A    between atoms: C_5  and  S_7
REMARK    5  A    between atoms: S_7  and  C_8
REMARK    6  A    between atoms: N_13  and  C_16
REMARK    7  A    between atoms: C_19  and  C_22
REMARK    8  A    between atoms: C_22  and  O_24
REMARK    9  A    between atoms: O_24  and  C_25
REMARK   10  A    between atoms: C_26  and  C_27
REMARK   11  A    between atoms: C_27  and  C_28
REMARK                            x       y       z     vdW  Elec       q    Type
REMARK                         _______ _______ _______ _____ _____    ______ ____
ROOT
ATOM      1  N   UNL     1      -0.324   0.901   2.593  0.00  0.00    -0.259 N 
ATOM      2  C   UNL     1      -0.245   0.034   3.580  0.00  0.00    +0.146 C 
ATOM      3  N   UNL     1      -0.306  -1.313   3.317  0.00  0.00    -0.338 N 
ATOM      4  H   UNL     1      -0.406  -1.625   2.404  0.00  0.00    +0.144 HD
ATOM      5  H   UNL     1      -0.248  -1.952   4.045  0.00  0.00    +0.144 HD
ATOM      6  H   UNL     1      -0.281   1.853   2.779  0.00  0.00    +0.191 HD
ENDROOT
BRANCH   1   9
ATOM      7  C   UNL     1      -0.480   2.781   0.593  0.00  0.00    +0.062 C 
ATOM      8  C   UNL     1      -0.546   1.304   0.304  0.00  0.00    +0.036 C 
ATOM      9  N   UNL     1      -0.469   0.451   1.274  0.00  0.00    -0.182 NA
BRANCH   8  10
ATOM     10  C   UNL     1      -0.702   0.819  -1.114  0.00  0.00    +0.057 C 
BRANCH  10  11
ATOM     11  C   UNL     1      -2.061   1.264  -1.659  0.00  0.00    +0.041 C 
BRANCH  11  12
ATOM     12  C   UNL     1      -2.217   0.780  -3.077  0.00  0.00    -0.043 A 
ATOM     13  C   UNL     1      -1.790   1.571  -4.127  0.00  0.00    +0.007 A 
ATOM     14  C   UNL     1      -1.930   1.131  -5.430  0.00  0.00    +0.050 A 
ATOM     15  C   UNL     1      -2.501  -0.105  -5.686  0.00  0.00    +0.166 A 
ATOM     16  C   UNL     1      -2.931  -0.902  -4.628  0.00  0.00    +0.166 A 
ATOM     17  C   UNL     1      -2.782  -0.457  -3.325  0.00  0.00    +0.053 A 
ATOM     18  O   UNL     1      -3.451  -2.058  -5.136  0.00  0.00    -0.453 OA
ATOM     19  C   UNL     1      -3.708  -1.786  -6.527  0.00  0.00    +0.466 C 
ATOM     20  O   UNL     1      -2.751  -0.761  -6.857  0.00  0.00    -0.453 OA
ENDBRANCH  11  12
ENDBRANCH  10  11
ENDBRANCH   8  10
ENDBRANCH   1   9
BRANCH   2  21
ATOM     21  S   UNL     1      -0.063   0.600   5.239  0.00  0.00    -0.078 S 
BRANCH  21  22
ATOM     22  C   UNL     1      -0.002  -0.925   6.219  0.00  0.00    +0.149 C 
ATOM     23  C   UNL     1       0.230  -0.603   7.710  0.00  0.00    +0.120 C 
ATOM     24  C   UNL     1      -1.008  -1.148   8.387  0.00  0.00    +0.228 C 
ATOM     25  O   UNL     1      -1.236  -1.103   9.577  0.00  0.00    -0.275 OA
ATOM     26  N   UNL     1      -1.814  -1.688   7.463  0.00  0.00    -0.209 N 
ATOM     27  C   UNL     1      -1.345  -1.620   6.207  0.00  0.00    +0.240 C 
ATOM     28  O   UNL     1      -1.907  -2.045   5.221  0.00  0.00    -0.274 OA
BRANCH  26  29
ATOM     29  C   UNL     1      -3.041  -2.276   7.781  0.00  0.00    +0.044 A 
ATOM     30  C   UNL     1      -4.087  -1.488   8.250  0.00  0.00    +0.025 A 
ATOM     31  C   UNL     1      -5.298  -2.064   8.564  0.00  0.00    +0.017 A 
ATOM     32  C   UNL     1      -5.475  -3.443   8.412  0.00  0.00    +0.059 A 
ATOM     33  C   UNL     1      -4.421  -4.231   7.940  0.00  0.00    +0.017 A 
ATOM     34  C   UNL     1      -3.215  -3.647   7.623  0.00  0.00    +0.025 A 
BRANCH  32  35
ATOM     35  C   UNL     1      -6.770  -4.064   8.748  0.00  0.00    +0.339 C 
ATOM     36  O   UNL     1      -7.684  -3.377   9.158  0.00  0.00    -0.245 OA
BRANCH  35  37
ATOM     37  O   UNL     1      -6.938  -5.392   8.600  0.00  0.00    -0.464 OA
ATOM     38  C   UNL     1      -8.218  -5.926   8.945  0.00  0.00    +0.280 C 
ENDBRANCH  35  37
ENDBRANCH  32  35
ENDBRANCH  26  29
ENDBRANCH  21  22
ENDBRANCH   2  21
TORSDOF 9
