REMARK  Name = ZINC09011259
REMARK  8 active torsions:
REMARK  status: ('A' for Active; 'I' for Inactive)
REMARK    1  A    between atoms: C_3  and  C_6
REMARK    2  A    between atoms: C_6  and  N_7
REMARK    3  A    between atoms: C_13  and  C_18
REMARK    4  A    between atoms: C_18  and  O_20
REMARK    5  A    between atoms: O_20  and  C_21
REMARK    6  A    between atoms: C_21  and  C_22
REMARK    7  A    between atoms: N_24  and  C_25
REMARK    8  A    between atoms: C_26  and  C_33
REMARK                            x       y       z     vdW  Elec       q    Type
REMARK                         _______ _______ _______ _____ _____    ______ ____
ROOT
ATOM      1  C   UNL     1       3.702  -0.669  -0.037  0.00  0.00    +0.340 C 
ATOM      2  O   UNL     1       3.725  -1.883  -0.045  0.00  0.00    -0.245 OA
ENDROOT
BRANCH   1   9
ATOM      3  N   UNL     1      -2.191   0.670   0.027  0.00  0.00    -0.227 N 
ATOM      4  C   UNL     1      -1.447   1.790   0.031  0.00  0.00    +0.254 C 
ATOM      5  O   UNL     1      -1.875   2.926   0.043  0.00  0.00    -0.270 OA
ATOM      6  C   UNL     1      -0.017   1.406   0.010  0.00  0.00    +0.049 A 
ATOM      7  C   UNL     1       1.173   2.116   0.002  0.00  0.00    +0.014 A 
ATOM      8  C   UNL     1       2.381   1.440  -0.013  0.00  0.00    +0.016 A 
ATOM      9  C   UNL     1       2.406   0.045  -0.021  0.00  0.00    +0.060 A 
ATOM     10  C   UNL     1       1.211  -0.679  -0.013  0.00  0.00    +0.028 A 
ATOM     11  C   UNL     1       0.002  -0.004   0.002  0.00  0.00    +0.050 A 
ATOM     12  C   UNL     1      -1.414  -0.428   0.014  0.00  0.00    +0.254 C 
ATOM     13  O   UNL     1      -1.810  -1.576   0.011  0.00  0.00    -0.270 OA
BRANCH   3  14
ATOM     14  C   UNL     1      -3.656   0.648   0.042  0.00  0.00    +0.191 C 
BRANCH  14  17
ATOM     15  C   UNL     1      -4.841   1.244   3.480  0.00  0.00    +0.041 A 
ATOM     16  C   UNL     1      -4.410   1.716   2.219  0.00  0.00    +0.046 A 
ATOM     17  C   UNL     1      -4.144   0.633   1.467  0.00  0.00    +0.123 A 
ATOM     18  O   UNL     1      -4.382  -0.464   2.204  0.00  0.00    -0.466 OA
ATOM     19  C   UNL     1      -4.805  -0.100   3.426  0.00  0.00    +0.195 A 
ENDBRANCH  14  17
ENDBRANCH   3  14
ENDBRANCH   1   9
BRANCH   1  20
ATOM     20  O   UNL     1       4.854   0.028  -0.045  0.00  0.00    -0.452 OA
BRANCH  20  21
ATOM     21  C   UNL     1       6.088  -0.739  -0.061  0.00  0.00    +0.328 C 
BRANCH  21  22
ATOM     22  C   UNL     1       7.264   0.203  -0.067  0.00  0.00    +0.255 C 
ATOM     23  O   UNL     1       7.082   1.402  -0.059  0.00  0.00    -0.272 OA
ATOM     24  N   UNL     1       8.520  -0.288  -0.082  0.00  0.00    -0.277 N 
ATOM     25  H   UNL     1       8.666  -1.247  -0.089  0.00  0.00    +0.155 HD
BRANCH  24  26
ATOM     26  C   UNL     1       9.602   0.579  -0.088  0.00  0.00    +0.084 A 
ATOM     27  C   UNL     1      10.951   0.269  -0.097  0.00  0.00    +0.068 A 
ATOM     28  C   UNL     1      11.901   1.381  -0.106  0.00  0.00    -0.023 A 
ATOM     29  C   UNL     1      11.346   2.606  -0.093  0.00  0.00    -0.004 A 
ATOM     30  S   UNL     1       9.595   2.309  -0.077  0.00  0.00    -0.077 S 
ATOM     31  C   UNL     1      12.384   3.696  -0.100  0.00  0.00    +0.043 C 
ATOM     32  C   UNL     1      13.682   2.994  -0.555  0.00  0.00    +0.010 C 
ATOM     33  C   UNL     1      13.422   1.538  -0.118  0.00  0.00    +0.037 C 
BRANCH  27  34
ATOM     34  C   UNL     1      11.412  -1.123  -0.103  0.00  0.00    +0.244 C 
ATOM     35  O   UNL     1      11.596  -1.699  -1.159  0.00  0.00    -0.270 OA
ATOM     36  N   UNL     1      11.630  -1.765   1.062  0.00  0.00    -0.325 N 
ATOM     37  H   UNL     1      11.483  -1.306   1.904  0.00  0.00    +0.145 HD
ATOM     38  H   UNL     1      11.935  -2.686   1.059  0.00  0.00    +0.145 HD
ENDBRANCH  27  34
ENDBRANCH  24  26
ENDBRANCH  21  22
ENDBRANCH  20  21
ENDBRANCH   1  20
TORSDOF 8
