REMARK  Name = ZINC36209748
REMARK  10 active torsions:
REMARK  status: ('A' for Active; 'I' for Inactive)
REMARK    1  A    between atoms: C_1  and  C_2
REMARK    2  A    between atoms: C_7  and  C_9
REMARK    3  A    between atoms: C_7  and  C_10
REMARK    4  A    between atoms: N_13  and  C_17
REMARK    5  A    between atoms: C_17  and  C_18
REMARK    6  A    between atoms: C_18  and  O_20
REMARK    7  A    between atoms: O_20  and  C_21
REMARK    8  A    between atoms: C_21  and  C_23
REMARK    9  A    between atoms: C_21  and  C_29
REMARK   10  A    between atoms: C_29  and  C_31
REMARK                            x       y       z     vdW  Elec       q    Type
REMARK                         _______ _______ _______ _____ _____    ______ ____
ROOT
ATOM      1  C   UNL     1      -2.004  -2.948  -4.988  0.00  0.00    +0.326 C 
ATOM      2  O   UNL     1      -1.780  -1.950  -5.630  0.00  0.00    -0.249 OA
ENDROOT
BRANCH   1   3
ATOM      3  C   UNL     1      -1.034  -3.393  -3.924  0.00  0.00    +0.238 C 
BRANCH   3  15
ATOM      4  C   UNL     1       0.891   2.999  -2.960  0.00  0.00    +0.007 C 
ATOM      5  C   UNL     1       0.989   1.543  -2.494  0.00  0.00    -0.011 C 
ATOM      6  C   UNL     1       1.455   0.670  -3.661  0.00  0.00    +0.038 C 
ATOM      7  C   UNL     1       1.510  -0.787  -3.223  0.00  0.00    +0.113 C 
ATOM      8  C   UNL     1       2.349  -0.998  -1.978  0.00  0.00    +0.041 C 
ATOM      9  C   UNL     1       2.130   0.007  -0.861  0.00  0.00    -0.032 C 
ATOM     10  C   UNL     1       2.018   1.440  -1.370  0.00  0.00    +0.009 C 
ATOM     11  C   UNL     1       3.346  -0.061   0.088  0.00  0.00    +0.011 C 
ATOM     12  C   UNL     1       0.889  -0.356  -0.041  0.00  0.00    +0.011 C 
ATOM     13  C   UNL     1       0.121  -1.358  -3.076  0.00  0.00    +0.247 C 
ATOM     14  O   UNL     1      -0.801  -0.929  -2.414  0.00  0.00    -0.273 OA
ATOM     15  N   UNL     1       0.089  -2.455  -3.864  0.00  0.00    -0.213 N 
ATOM     16  C   UNL     1       1.212  -2.575  -4.580  0.00  0.00    +0.310 C 
ATOM     17  O   UNL     1       1.415  -3.474  -5.373  0.00  0.00    -0.252 OA
ATOM     18  N   UNL     1       2.090  -1.591  -4.322  0.00  0.00    -0.285 N 
ATOM     19  H   UNL     1       2.938  -1.427  -4.760  0.00  0.00    +0.151 HD
ENDBRANCH   3  15
ENDBRANCH   1   3
BRANCH   1  20
ATOM     20  O   UNL     1      -3.117  -3.661  -5.222  0.00  0.00    -0.447 OA
BRANCH  20  21
ATOM     21  C   UNL     1      -3.991  -3.181  -6.245  0.00  0.00    +0.277 C 
BRANCH  21  22
ATOM     22  C   UNL     1      -3.599  -3.789  -7.567  0.00  0.00    +0.000 A 
ATOM     23  C   UNL     1      -3.264  -5.128  -7.639  0.00  0.00    +0.008 A 
ATOM     24  C   UNL     1      -2.904  -5.685  -8.852  0.00  0.00    +0.000 A 
ATOM     25  C   UNL     1      -2.880  -4.904  -9.992  0.00  0.00    +0.000 A 
ATOM     26  C   UNL     1      -3.217  -3.565  -9.920  0.00  0.00    +0.000 A 
ATOM     27  C   UNL     1      -3.581  -3.009  -8.708  0.00  0.00    +0.008 A 
ENDBRANCH  21  22
BRANCH  21  28
ATOM     28  C   UNL     1      -5.410  -3.568  -5.915  0.00  0.00    +0.208 C 
ATOM     29  O   UNL     1      -5.627  -4.482  -5.148  0.00  0.00    -0.288 OA
BRANCH  28  30
ATOM     30  C   UNL     1      -6.533  -2.836  -6.523  0.00  0.00    +0.022 A 
ATOM     31  C   UNL     1      -6.291  -1.709  -7.315  0.00  0.00    +0.011 A 
ATOM     32  C   UNL     1      -7.348  -1.029  -7.882  0.00  0.00    +0.001 A 
ATOM     33  C   UNL     1      -8.646  -1.460  -7.669  0.00  0.00    +0.000 A 
ATOM     34  C   UNL     1      -8.894  -2.574  -6.887  0.00  0.00    +0.001 A 
ATOM     35  C   UNL     1      -7.847  -3.268  -6.318  0.00  0.00    +0.011 A 
ENDBRANCH  28  30
ENDBRANCH  21  28
ENDBRANCH  20  21
ENDBRANCH   1  20
TORSDOF 7
