REMARK  Name = ZINC51476692
REMARK  6 active torsions:
REMARK  status: ('A' for Active; 'I' for Inactive)
REMARK    1  A    between atoms: N_12  and  C_13
REMARK    2  A    between atoms: C_13  and  C_14
REMARK    3  A    between atoms: N_16  and  C_17
REMARK    4  A    between atoms: C_17  and  C_18
REMARK    5  A    between atoms: N_22  and  C_24
REMARK    6  A    between atoms: C_24  and  C_25
REMARK                            x       y       z     vdW  Elec       q    Type
REMARK                         _______ _______ _______ _____ _____    ______ ____
ROOT
ATOM      1  C   UNL     1       4.859  -0.258  -3.817  0.00  0.00    +0.196 C 
ATOM      2  O   UNL     1       4.265  -0.944  -4.621  0.00  0.00    -0.278 OA
ATOM      3  N   UNL     1       6.113   0.158  -4.081  0.00  0.00    -0.317 N 
ATOM      4  H   UNL     1       6.588   0.707  -3.438  0.00  0.00    +0.149 HD
ENDROOT
BRANCH   1   5
ATOM      5  C   UNL     1       4.195   0.130  -2.521  0.00  0.00    +0.019 C 
BRANCH   5  15
ATOM      6  C   UNL     1      -0.019   1.526   0.010  0.00  0.00    +0.000 C 
ATOM      7  C   UNL     1       1.417   2.055  -0.000  0.00  0.00    -0.002 C 
ATOM      8  C   UNL     1       2.133   1.562  -1.259  0.00  0.00    -0.015 C 
ATOM      9  C   UNL     1       2.154   0.032  -1.267  0.00  0.00    -0.065 C 
ATOM     10  C   UNL     1       0.718  -0.497  -1.257  0.00  0.00    -0.025 C 
ATOM     11  C   UNL     1       0.002  -0.004   0.002  0.00  0.00    +0.002 C 
ATOM     12  C   UNL     1       0.744  -2.028  -1.261  0.00  0.00    +0.000 C 
ATOM     13  C   UNL     1       1.532  -2.512  -2.482  0.00  0.00    -0.018 C 
ATOM     14  C   UNL     1       2.938  -1.908  -2.447  0.00  0.00    -0.078 C 
ATOM     15  N   UNL     1       2.843  -0.444  -2.473  0.00  0.00    +0.387 N 
ATOM     16  H   UNL     1       2.328  -0.153  -3.290  0.00  0.00    -0.081 HD
ENDBRANCH   5  15
ENDBRANCH   1   5
BRANCH   3  17
ATOM     17  C   UNL     1       6.759  -0.218  -5.341  0.00  0.00    +0.105 C 
BRANCH  17  18
ATOM     18  C   UNL     1       8.167   0.379  -5.391  0.00  0.00    -0.012 C 
ATOM     19  C   UNL     1       8.093   1.919  -5.497  0.00  0.00    -0.016 C 
ATOM     20  C   UNL     1       9.241   2.255  -6.482  0.00  0.00    -0.078 C 
ATOM     21  N   UNL     1       9.186   1.138  -7.460  0.00  0.00    +0.386 N 
ATOM     22  C   UNL     1       8.897  -0.079  -6.667  0.00  0.00    -0.074 C 
ATOM     23  H   UNL     1       8.451   1.299  -8.132  0.00  0.00    -0.081 HD
BRANCH  21  24
ATOM     24  C   UNL     1      10.479   1.000  -8.144  0.00  0.00    +0.036 C 
BRANCH  24  25
ATOM     25  C   UNL     1      10.730   2.235  -9.013  0.00  0.00    +0.376 C 
ATOM     26  F   UNL     1      10.749   3.377  -8.205  0.00  0.00    -0.173 F 
ATOM     27  F   UNL     1      11.961   2.104  -9.665  0.00  0.00    -0.173 F 
ATOM     28  F   UNL     1       9.710   2.353  -9.963  0.00  0.00    -0.173 F 
ENDBRANCH  24  25
ENDBRANCH  21  24
ENDBRANCH  17  18
ENDBRANCH   3  17
TORSDOF 6
