REMARK  Name = ZINC14960762
REMARK  11 active torsions:
REMARK  status: ('A' for Active; 'I' for Inactive)
REMARK    1  A    between atoms: C_1  and  C_2
REMARK    2  A    between atoms: C_2  and  O_3
REMARK    3  A    between atoms: O_3  and  C_4
REMARK    4  A    between atoms: C_7  and  C_12
REMARK    5  A    between atoms: C_9  and  C_10
REMARK    6  A    between atoms: C_10  and  O_11
REMARK    7  A    between atoms: C_12  and  N_60
REMARK    8  A    between atoms: C_13  and  N_60
REMARK    9  A    between atoms: N_22  and  C_23
REMARK   10  A    between atoms: C_25  and  C_30
REMARK   11  A    between atoms: C_27  and  C_29
REMARK                            x       y       z     vdW  Elec       q    Type
REMARK                         _______ _______ _______ _____ _____    ______ ____
ROOT
ATOM      1  C   UNL     1       1.111  -3.359  -4.861  0.00  0.00    -0.037 C 
ATOM      2  C   UNL     1       0.886  -4.713  -4.177  0.00  0.00    -0.011 C 
ATOM      3  C   UNL     1       0.473  -5.752  -5.223  0.00  0.00    +0.005 C 
ATOM      4  C   UNL     1       1.672  -6.079  -6.122  0.00  0.00    +0.056 C 
ATOM      5  C   UNL     1       2.270  -4.782  -6.607  0.00  0.00    +0.047 A 
ATOM      6  C   UNL     1       2.019  -3.571  -6.046  0.00  0.00    -0.020 A 
ATOM      7  C   UNL     1       2.738  -2.611  -6.756  0.00  0.00    +0.137 A 
ATOM      8  N   UNL     1       3.400  -3.220  -7.710  0.00  0.00    -0.174 NA
ATOM      9  N   UNL     1       3.119  -4.592  -7.634  0.00  0.00    -0.237 N 
ENDROOT
BRANCH   9  10
ATOM     10  C   UNL     1       3.632  -5.589  -8.476  0.00  0.00    +0.066 A 
ATOM     11  C   UNL     1       3.921  -6.848  -7.968  0.00  0.00    +0.031 A 
ATOM     12  C   UNL     1       4.420  -7.830  -8.801  0.00  0.00    -0.048 A 
ATOM     13  C   UNL     1       4.645  -7.555 -10.138  0.00  0.00    +0.006 A 
ATOM     14  C   UNL     1       4.364  -6.300 -10.646  0.00  0.00    -0.048 A 
ATOM     15  C   UNL     1       3.858  -5.316  -9.818  0.00  0.00    +0.031 A 
ATOM     16  C   UNL     1       4.609  -6.005 -12.103  0.00  0.00    +0.044 C 
ATOM     17  C   UNL     1       4.728  -9.199  -8.252  0.00  0.00    +0.044 C 
ENDBRANCH   9  10
BRANCH   1  18
ATOM     18  N   UNL     1       1.746  -2.429  -3.908  0.00  0.00    +0.386 N 
ATOM     19  H   UNL     1       1.387  -2.615  -2.963  0.00  0.00    -0.085 HD
ATOM     20  H   UNL     1       2.763  -2.572  -3.921  0.00  0.00    -0.085 HD
BRANCH  18  21
ATOM     21  C   UNL     1       1.446  -1.033  -4.277  0.00  0.00    -0.046 C 
BRANCH  21  25
ATOM     22  C   UNL     1       3.318   1.591  -1.472  0.00  0.00    +0.126 A 
ATOM     23  C   UNL     1       3.998   1.195  -2.614  0.00  0.00    +0.046 A 
ATOM     24  C   UNL     1       3.391   0.347  -3.519  0.00  0.00    +0.005 A 
ATOM     25  C   UNL     1       2.106  -0.108  -3.288  0.00  0.00    -0.064 A 
ATOM     26  C   UNL     1       1.427   0.281  -2.148  0.00  0.00    +0.011 A 
ATOM     27  C   UNL     1       2.028   1.134  -1.242  0.00  0.00    +0.020 A 
BRANCH  22  28
ATOM     28  O   UNL     1       3.913   2.426  -0.579  0.00  0.00    -0.492 OA
BRANCH  28  30
ATOM     29  C   UNL     1       5.742   3.783   0.229  0.00  0.00    +0.048 C 
ATOM     30  C   UNL     1       5.242   2.857  -0.881  0.00  0.00    +0.225 C 
ENDBRANCH  28  30
ENDBRANCH  22  28
BRANCH  27  31
ATOM     31  C   UNL     1       1.286   1.562  -0.002  0.00  0.00    +0.194 C 
BRANCH  31  32
ATOM     32  O   UNL     1      -0.011   0.963   0.007  0.00  0.00    -0.390 OA
ATOM     33  H   UNL     1       0.002  -0.004   0.002  0.00  0.00    +0.210 HD
ENDBRANCH  31  32
ENDBRANCH  27  31
ENDBRANCH  21  25
ENDBRANCH  18  21
ENDBRANCH   1  18
TORSDOF 8
