REMARK  Name = ZINC02918656
REMARK  2 active torsions:
REMARK  status: ('A' for Active; 'I' for Inactive)
REMARK    1  A    between atoms: C_3  and  C_8
REMARK    2  A    between atoms: C_11  and  C_19
REMARK                            x       y       z     vdW  Elec       q    Type
REMARK                         _______ _______ _______ _____ _____    ______ ____
ROOT
ATOM      1  C   UNL     1       3.672   2.183  -0.022  0.00  0.00    +0.144 C 
ATOM      2  C   UNL     1       4.474   1.828  -1.280  0.00  0.00    +0.059 C 
ATOM      3  C   UNL     1       5.898   2.384  -1.162  0.00  0.00    +0.106 C 
ATOM      4  N   UNL     1       6.562   1.744  -0.010  0.00  0.00    -0.305 N 
ATOM      5  C   UNL     1       5.803   1.626   1.146  0.00  0.00    +0.236 A 
ATOM      6  N   UNL     1       4.459   1.832   1.156  0.00  0.00    -0.206 N 
ATOM      7  N   UNL     1       4.058   1.633   2.477  0.00  0.00    -0.042 NA
ATOM      8  N   UNL     1       5.126   1.335   3.145  0.00  0.00    -0.021 NA
ATOM      9  N   UNL     1       6.158   1.325   2.363  0.00  0.00    -0.092 NA
ATOM     10  H   UNL     1       7.476   1.423  -0.058  0.00  0.00    +0.150 HD
ENDROOT
BRANCH   1  13
ATOM     11  C   UNL     1      -0.017   1.378   0.010  0.00  0.00    +0.001 A 
ATOM     12  C   UNL     1       1.171   2.086   0.002  0.00  0.00    +0.006 A 
ATOM     13  C   UNL     1       2.378   1.411  -0.013  0.00  0.00    -0.022 A 
ATOM     14  C   UNL     1       2.397   0.029  -0.022  0.00  0.00    +0.021 A 
ATOM     15  C   UNL     1       1.210  -0.679  -0.014  0.00  0.00    +0.018 A 
ATOM     16  C   UNL     1       0.002  -0.004   0.002  0.00  0.00    +0.015 A 
ATOM     17 BR   UNL     1       1.236  -2.570  -0.025  0.00  0.00    -0.050 Br
ENDBRANCH   1  13
BRANCH   3  18
ATOM     18  C   UNL     1       5.842   3.876  -0.953  0.00  0.00    -0.027 A 
ATOM     19  C   UNL     1       5.582   4.388   0.304  0.00  0.00    +0.006 A 
ATOM     20  C   UNL     1       5.530   5.755   0.496  0.00  0.00    +0.015 A 
ATOM     21  C   UNL     1       5.739   6.612  -0.569  0.00  0.00    +0.013 A 
ATOM     22  C   UNL     1       5.999   6.099  -1.827  0.00  0.00    +0.015 A 
ATOM     23  C   UNL     1       6.056   4.731  -2.018  0.00  0.00    +0.006 A 
ATOM     24  I   UNL     1       5.660   8.685  -0.279  0.00  0.00    -0.044 I 
ENDBRANCH   3  18
TORSDOF 2
