REMARK  Name = ZINC37350331
REMARK  5 active torsions:
REMARK  status: ('A' for Active; 'I' for Inactive)
REMARK    1  A    between atoms: C_3  and  C_6
REMARK    2  A    between atoms: C_7  and  C_12
REMARK    3  A    between atoms: C_8  and  N_11
REMARK    4  A    between atoms: C_15  and  O_18
REMARK    5  A    between atoms: O_18  and  C_19
REMARK                            x       y       z     vdW  Elec       q    Type
REMARK                         _______ _______ _______ _____ _____    ______ ____
ROOT
ATOM      1  C   UNL     1       3.738   1.825  -0.024  0.00  0.00    +0.130 A 
ATOM      2  C   UNL     1       4.890   1.201   0.633  0.00  0.00    +0.071 A 
ATOM      3  C   UNL     1       5.982   2.000   0.361  0.00  0.00    +0.224 A 
ATOM      4  O   UNL     1       5.565   3.028  -0.394  0.00  0.00    -0.339 OA
ATOM      5  N   UNL     1       4.177   2.906  -0.630  0.00  0.00    -0.075 NA
ENDROOT
BRANCH   2   6
ATOM      6  C   UNL     1       4.884  -0.045   1.435  0.00  0.00    -0.011 A 
ATOM      7  C   UNL     1       4.175  -0.101   2.635  0.00  0.00    +0.012 A 
ATOM      8  C   UNL     1       4.171  -1.262   3.378  0.00  0.00    +0.046 A 
ATOM      9  C   UNL     1       4.873  -2.375   2.934  0.00  0.00    +0.127 A 
ATOM     10  C   UNL     1       5.580  -2.323   1.741  0.00  0.00    +0.046 A 
ATOM     11  C   UNL     1       5.582  -1.167   0.989  0.00  0.00    +0.012 A 
BRANCH   9  12
ATOM     12  O   UNL     1       4.867  -3.518   3.671  0.00  0.00    -0.434 OA
BRANCH  12  13
ATOM     13  C   UNL     1       5.610  -4.625   3.155  0.00  0.00    +0.541 C 
ATOM     14  F   UNL     1       5.103  -4.982   1.901  0.00  0.00    -0.166 F 
ATOM     15  F   UNL     1       6.956  -4.265   3.029  0.00  0.00    -0.166 F 
ENDBRANCH  12  13
ENDBRANCH   9  12
ENDBRANCH   2   6
BRANCH   1  18
ATOM     16  C   UNL     1      -0.016   1.354   0.009  0.00  0.00    +0.008 A 
ATOM     17  C   UNL     1       1.177   2.041   0.002  0.00  0.00    +0.018 A 
ATOM     18  C   UNL     1       2.347   1.329  -0.013  0.00  0.00    +0.041 A 
ATOM     19  S   UNL     1       1.752  -0.354  -0.017  0.00  0.00    -0.095 S 
ATOM     20  C   UNL     1       0.002  -0.004   0.002  0.00  0.00    +0.046 A 
ENDBRANCH   1  18
BRANCH   3  21
ATOM     21  N   UNL     1       7.275   1.780   0.789  0.00  0.00    -0.327 N 
ATOM     22  H   UNL     1       7.480   1.004   1.335  0.00  0.00    +0.145 HD
ATOM     23  H   UNL     1       7.979   2.401   0.545  0.00  0.00    +0.145 HD
ENDBRANCH   3  21
TORSDOF 5
