REMARK  Name = ZINC04558010
REMARK  8 active torsions:
REMARK  status: ('A' for Active; 'I' for Inactive)
REMARK    1  A    between atoms: C_1  and  O_2
REMARK    2  A    between atoms: O_2  and  C_3
REMARK    3  A    between atoms: C_5  and  C_10
REMARK    4  A    between atoms: C_8  and  O_9
REMARK    5  A    between atoms: C_10  and  C_12
REMARK    6  A    between atoms: C_10  and  N_14
REMARK    7  A    between atoms: C_15  and  C_26
REMARK    8  A    between atoms: C_18  and  C_20
REMARK                            x       y       z     vdW  Elec       q    Type
REMARK                         _______ _______ _______ _____ _____    ______ ____
ROOT
ATOM      1  N   UNL     1      -5.855  -0.377  -0.844  0.00  0.00    -0.226 N 
ATOM      2  C   UNL     1      -6.471   0.246  -2.027  0.00  0.00    +0.130 C 
ATOM      3  C   UNL     1      -7.410  -0.851  -2.565  0.00  0.00    +0.086 C 
ATOM      4  C   UNL     1      -7.216  -2.001  -1.603  0.00  0.00    +0.068 C 
ATOM      5  N   UNL     1      -6.356  -1.669  -0.704  0.00  0.00    -0.186 NA
ENDROOT
BRANCH   4   6
ATOM      6  C   UNL     1      -7.903  -3.304  -1.684  0.00  0.00    -0.002 A 
ATOM      7  C   UNL     1      -8.812  -3.555  -2.714  0.00  0.00    +0.010 A 
ATOM      8  C   UNL     1      -9.450  -4.776  -2.784  0.00  0.00    +0.001 A 
ATOM      9  C   UNL     1      -9.192  -5.750  -1.836  0.00  0.00    +0.000 A 
ATOM     10  C   UNL     1      -8.293  -5.508  -0.812  0.00  0.00    +0.001 A 
ATOM     11  C   UNL     1      -7.643  -4.294  -0.734  0.00  0.00    +0.010 A 
ENDBRANCH   4   6
BRANCH   2  12
ATOM     12  C   UNL     1      -7.253   1.473  -1.634  0.00  0.00    -0.025 A 
ATOM     13  C   UNL     1      -8.004   1.471  -0.474  0.00  0.00    +0.005 A 
ATOM     14  C   UNL     1      -8.722   2.596  -0.114  0.00  0.00    +0.000 A 
ATOM     15  C   UNL     1      -8.687   3.724  -0.913  0.00  0.00    +0.000 A 
ATOM     16  C   UNL     1      -7.934   3.726  -2.072  0.00  0.00    +0.000 A 
ATOM     17  C   UNL     1      -7.214   2.602  -2.431  0.00  0.00    +0.005 A 
ENDBRANCH   2  12
BRANCH   1  18
ATOM     18  C   UNL     1      -4.871   0.257   0.037  0.00  0.00    +0.225 C 
BRANCH  18  21
ATOM     19  C   UNL     1      -1.201  -0.638   0.010  0.00  0.00    +0.162 A 
ATOM     20  C   UNL     1      -2.374   0.099   0.019  0.00  0.00    +0.056 A 
ATOM     21  C   UNL     1      -3.596  -0.546   0.027  0.00  0.00    -0.008 A 
ATOM     22  C   UNL     1      -3.652  -1.928   0.026  0.00  0.00    +0.010 A 
ATOM     23  C   UNL     1      -2.485  -2.669   0.017  0.00  0.00    +0.049 A 
ATOM     24  C   UNL     1      -1.257  -2.028   0.003  0.00  0.00    +0.158 A 
BRANCH  19  26
ATOM     25  C   UNL     1      -0.017   1.425   0.010  0.00  0.00    +0.277 C 
ATOM     26  O   UNL     1       0.002  -0.004   0.002  0.00  0.00    -0.491 OA
ENDBRANCH  19  26
BRANCH  24  27
ATOM     27  O   UNL     1      -0.108  -2.756  -0.012  0.00  0.00    -0.503 OA
ATOM     28  H   UNL     1       0.232  -2.972   0.867  0.00  0.00    +0.292 HD
ENDBRANCH  24  27
ENDBRANCH  18  21
BRANCH  18  29
ATOM     29  C   UNL     1      -5.405   0.313   1.408  0.00  0.00    +0.091 C 
ATOM     30  N   UNL     1      -5.817   0.356   2.466  0.00  0.00    -0.194 NA
ENDBRANCH  18  29
ENDBRANCH   1  18
TORSDOF 7
