REMARK  Name = ZINC38650875
REMARK  15 active torsions:
REMARK  status: ('A' for Active; 'I' for Inactive)
REMARK    1  A    between atoms: C_1  and  C_2
REMARK    2  A    between atoms: C_2  and  C_3
REMARK    3  A    between atoms: C_3  and  C_4
REMARK    4  A    between atoms: C_4  and  O_5
REMARK    5  A    between atoms: O_5  and  C_6
REMARK    6  A    between atoms: C_9  and  C_12
REMARK    7  A    between atoms: C_17  and  O_26
REMARK    8  A    between atoms: C_21  and  N_25
REMARK    9  A    between atoms: C_22  and  C_23
REMARK   10  A    between atoms: O_26  and  C_27
REMARK   11  A    between atoms: C_27  and  C_29
REMARK   12  A    between atoms: C_34  and  O_35
REMARK   13  A    between atoms: O_35  and  C_36
REMARK   14  A    between atoms: C_36  and  C_37
REMARK   15  A    between atoms: C_37  and  C_38
REMARK                            x       y       z     vdW  Elec       q    Type
REMARK                         _______ _______ _______ _____ _____    ______ ____
ROOT
ATOM      1  C   UNL     1      -3.374  -8.116  -0.045  0.00  0.00    +0.098 C 
ATOM      2  C   UNL     1      -4.148  -8.533  -1.268  0.00  0.00    +0.008 A 
ATOM      3  C   UNL     1      -3.540  -8.480  -2.510  0.00  0.00    +0.012 A 
ATOM      4  C   UNL     1      -4.234  -8.859  -3.641  0.00  0.00    +0.047 A 
ATOM      5  C   UNL     1      -5.548  -9.295  -3.536  0.00  0.00    +0.135 A 
ATOM      6  C   UNL     1      -6.160  -9.349  -2.295  0.00  0.00    +0.093 A 
ATOM      7  C   UNL     1      -5.460  -8.967  -1.157  0.00  0.00    +0.138 A 
ATOM      8  O   UNL     1      -6.074  -9.025   0.051  0.00  0.00    -0.441 OA
ATOM      9  C   UNL     1      -5.339  -9.043   1.175  0.00  0.00    +0.199 C 
ATOM     10  C   UNL     1      -4.054  -8.624   1.195  0.00  0.00    +0.098 C 
ENDROOT
BRANCH   1  14
ATOM     11  C   UNL     1      -3.157  -3.851   0.105  0.00  0.00    +0.121 A 
ATOM     12  C   UNL     1      -1.994  -4.603   0.033  0.00  0.00    +0.046 A 
ATOM     13  C   UNL     1      -2.067  -5.982  -0.015  0.00  0.00    +0.008 A 
ATOM     14  C   UNL     1      -3.298  -6.612   0.008  0.00  0.00    -0.034 A 
ATOM     15  C   UNL     1      -4.458  -5.864   0.079  0.00  0.00    +0.008 A 
ATOM     16  C   UNL     1      -4.391  -4.485   0.133  0.00  0.00    +0.046 A 
BRANCH  11  17
ATOM     17  O   UNL     1      -3.088  -2.494   0.153  0.00  0.00    -0.492 OA
BRANCH  17  18
ATOM     18  C   UNL     1      -1.785  -1.909   0.119  0.00  0.00    +0.229 C 
BRANCH  18  19
ATOM     19  C   UNL     1      -1.908  -0.386   0.182  0.00  0.00    +0.041 C 
BRANCH  19  21
ATOM     20  C   UNL     1      -0.635   1.764   0.208  0.00  0.00    +0.004 C 
ATOM     21  C   UNL     1      -0.512   0.241   0.146  0.00  0.00    -0.000 C 
ENDBRANCH  19  21
ENDBRANCH  18  19
ENDBRANCH  17  18
ENDBRANCH  11  17
ENDBRANCH   1  14
BRANCH   9  22
ATOM     22  N   UNL     1      -5.910  -9.497   2.337  0.00  0.00    -0.328 N 
ATOM     23  H   UNL     1      -6.832  -9.800   2.338  0.00  0.00    +0.145 HD
ATOM     24  H   UNL     1      -5.393  -9.516   3.158  0.00  0.00    +0.145 HD
ENDBRANCH   9  22
BRANCH  10  25
ATOM     25  C   UNL     1      -3.326  -8.666   2.427  0.00  0.00    +0.101 C 
ATOM     26  N   UNL     1      -2.748  -8.700   3.404  0.00  0.00    -0.191 NA
ENDBRANCH  10  25
BRANCH   5  27
ATOM     27  O   UNL     1      -6.232  -9.668  -4.649  0.00  0.00    -0.422 OA
BRANCH  27  28
ATOM     28  C   UNL     1      -5.856 -10.802  -5.273  0.00  0.00    +0.348 C 
ATOM     29  O   UNL     1      -5.001 -11.511  -4.781  0.00  0.00    -0.244 OA
BRANCH  28  30
ATOM     30  C   UNL     1      -6.482 -11.182  -6.552  0.00  0.00    +0.101 A 
ATOM     31  C   UNL     1      -7.462 -10.366  -7.125  0.00  0.00    +0.018 A 
ATOM     32  C   UNL     1      -8.043 -10.727  -8.321  0.00  0.00    +0.001 A 
ATOM     33  C   UNL     1      -7.661 -11.896  -8.959  0.00  0.00    +0.004 A 
ATOM     34  C   UNL     1      -6.694 -12.711  -8.405  0.00  0.00    +0.046 A 
ATOM     35  C   UNL     1      -6.094 -12.360  -7.205  0.00  0.00    +0.134 A 
BRANCH  35  36
ATOM     36  O   UNL     1      -5.140 -13.157  -6.662  0.00  0.00    -0.491 OA
BRANCH  36  37
ATOM     37  C   UNL     1      -4.796 -14.342  -7.384  0.00  0.00    +0.229 C 
BRANCH  37  38
ATOM     38  C   UNL     1      -3.712 -15.106  -6.622  0.00  0.00    +0.038 C 
ATOM     39  C   UNL     1      -3.344 -16.375  -7.395  0.00  0.00    +0.007 C 
ENDBRANCH  37  38
ENDBRANCH  36  37
ENDBRANCH  35  36
ENDBRANCH  28  30
ENDBRANCH  27  28
ENDBRANCH   5  27
TORSDOF 13
