REMARK  Name = ZINC38511111
REMARK  4 active torsions:
REMARK  status: ('A' for Active; 'I' for Inactive)
REMARK    1  A    between atoms: C_11  and  N_18
REMARK    2  A    between atoms: C_19  and  C_21
REMARK    3  A    between atoms: N_26  and  S_27
REMARK    4  A    between atoms: S_27  and  C_30
REMARK                            x       y       z     vdW  Elec       q    Type
REMARK                         _______ _______ _______ _____ _____    ______ ____
ROOT
ATOM      1  C   UNL     1       6.007  -8.706  -4.901  0.00  0.00    +0.002 A 
ATOM      2  C   UNL     1       7.170  -7.958  -5.019  0.00  0.00    +0.001 A 
ATOM      3  C   UNL     1       7.364  -6.872  -4.185  0.00  0.00    +0.017 A 
ATOM      4  C   UNL     1       6.405  -6.552  -3.255  0.00  0.00    +0.041 A 
ATOM      5  C   UNL     1       5.209  -7.291  -3.107  0.00  0.00    +0.081 A 
ATOM      6  C   UNL     1       5.045  -8.394  -3.977  0.00  0.00    +0.029 A 
ATOM      7  N   UNL     1       4.366  -6.851  -2.149  0.00  0.00    -0.221 NA
ATOM      8  C   UNL     1       4.631  -5.808  -1.399  0.00  0.00    +0.196 A 
ATOM      9  S   UNL     1       6.228  -5.292  -2.015  0.00  0.00    -0.048 S 
ATOM     10  N   UNL     1       3.865  -5.247  -0.384  0.00  0.00    -0.193 N 
ATOM     11  C   UNL     1       4.232  -4.208   0.418  0.00  0.00    +0.134 A 
ATOM     12  C   UNL     1       3.200  -3.969   1.274  0.00  0.00    +0.016 A 
ATOM     13  C   UNL     1       2.182  -4.884   0.987  0.00  0.00    +0.069 A 
ATOM     14  N   UNL     1       2.577  -5.643  -0.007  0.00  0.00    -0.168 NA
ATOM     15  C   UNL     1       1.015  -4.649   1.921  0.00  0.00    +0.058 C 
ATOM     16  C   UNL     1       1.586  -3.807   3.081  0.00  0.00    +0.011 C 
ATOM     17  C   UNL     1       2.771  -3.074   2.415  0.00  0.00    +0.041 C 
ENDROOT
BRANCH  11  18
ATOM     18  N   UNL     1       5.441  -3.517   0.371  0.00  0.00    -0.269 N 
ATOM     19  C   UNL     1       5.508  -2.244   0.809  0.00  0.00    +0.237 C 
ATOM     20  O   UNL     1       4.539  -1.730   1.327  0.00  0.00    -0.274 OA
ATOM     21  H   UNL     1       6.235  -3.952   0.022  0.00  0.00    +0.156 HD
BRANCH  19  22
ATOM     22  C   UNL     1       6.785  -1.460   0.656  0.00  0.00    +0.166 C 
ATOM     23  C   UNL     1       7.676  -1.659   1.900  0.00  0.00    +0.031 C 
ATOM     24  C   UNL     1       8.292  -0.251   2.116  0.00  0.00    +0.019 C 
ATOM     25  C   UNL     1       7.119   0.669   1.696  0.00  0.00    +0.110 C 
ATOM     26  N   UNL     1       6.482  -0.025   0.557  0.00  0.00    -0.164 NA
BRANCH  26  27
ATOM     27  S   UNL     1       5.580   0.692  -0.632  0.00  0.00    +0.068 S 
ATOM     28  O   UNL     1       6.026   2.038  -0.725  0.00  0.00    -0.152 OA
ATOM     29  O   UNL     1       5.594  -0.194  -1.742  0.00  0.00    -0.152 OA
BRANCH  27  30
ATOM     30  C   UNL     1       3.915   0.752  -0.057  0.00  0.00    +0.143 A 
ATOM     31  C   UNL     1       3.305   1.701   0.694  0.00  0.00    +0.036 A 
ATOM     32  C   UNL     1       1.974   1.537   1.029  0.00  0.00    +0.010 A 
ATOM     33  C   UNL     1       1.318   0.432   0.597  0.00  0.00    +0.047 A 
ATOM     34  S   UNL     1       2.592  -0.418  -0.320  0.00  0.00    -0.077 S 
ENDBRANCH  27  30
ENDBRANCH  26  27
ENDBRANCH  19  22
ENDBRANCH  11  18
TORSDOF 4
