REMARK  Name = ZINC09362951
REMARK  13 active torsions:
REMARK  status: ('A' for Active; 'I' for Inactive)
REMARK    1  A    between atoms: C_1  and  C_2
REMARK    2  A    between atoms: C_2  and  C_3
REMARK    3  A    between atoms: C_2  and  C_4
REMARK    4  A    between atoms: C_4  and  C_5
REMARK    5  A    between atoms: C_4  and  C_6
REMARK    6  A    between atoms: C_4  and  N_8
REMARK    7  A    between atoms: C_9  and  C_11
REMARK    8  A    between atoms: C_11  and  S_12
REMARK    9  A    between atoms: S_12  and  C_13
REMARK   10  A    between atoms: C_16  and  C_19
REMARK   11  A    between atoms: N_17  and  N_18
REMARK   12  A    between atoms: C_19  and  O_20
REMARK   13  A    between atoms: O_20  and  C_21
REMARK                            x       y       z     vdW  Elec       q    Type
REMARK                         _______ _______ _______ _____ _____    ______ ____
ROOT
ATOM      1  C   UNL     1      -1.189   2.265  -6.355  0.00  0.00    +0.209 A 
ATOM      2  N   UNL     1      -2.261   2.995  -6.152  0.00  0.00    -0.121 NA
ATOM      3  N   UNL     1      -2.769   3.347  -7.279  0.00  0.00    -0.128 NA
ATOM      4  C   UNL     1      -2.062   2.861  -8.260  0.00  0.00    +0.189 A 
ATOM      5  N   UNL     1      -1.030   2.154  -7.707  0.00  0.00    -0.225 N 
ENDROOT
BRANCH   5   6
ATOM      6  N   UNL     1      -0.045   1.478  -8.369  0.00  0.00    -0.295 N 
ATOM      7  H   UNL     1      -0.317   0.521  -8.543  0.00  0.00    +0.163 HD
ATOM      8  H   UNL     1       0.200   1.946  -9.228  0.00  0.00    +0.163 HD
ENDBRANCH   5   6
BRANCH   1   9
ATOM      9  S   UNL     1      -0.155   1.556  -5.117  0.00  0.00    -0.075 S 
BRANCH   9  10
ATOM     10  C   UNL     1      -1.002   2.140  -3.628  0.00  0.00    +0.173 C 
BRANCH  10  12
ATOM     11  N   UNL     1      -0.726   1.953  -1.177  0.00  0.00    -0.297 N 
ATOM     12  C   UNL     1      -0.273   1.640  -2.407  0.00  0.00    +0.224 C 
ATOM     13  O   UNL     1       0.721   0.957  -2.531  0.00  0.00    -0.275 OA
ATOM     14  H   UNL     1      -1.522   2.499  -1.077  0.00  0.00    +0.150 HD
BRANCH  11  15
ATOM     15  C   UNL     1      -0.018   1.468   0.010  0.00  0.00    +0.121 C 
ATOM     16  C   UNL     1       1.417   1.997  -0.001  0.00  0.00    +0.048 C 
BRANCH  15  18
ATOM     17  C   UNL     1      -0.069   1.353   2.505  0.00  0.00    +0.010 C 
ATOM     18  C   UNL     1      -0.734   1.961   1.269  0.00  0.00    +0.020 C 
ATOM     19  C   UNL     1      -0.646   3.487   1.341  0.00  0.00    +0.010 C 
ENDBRANCH  15  18
BRANCH  15  20
ATOM     20  C   UNL     1       0.002  -0.004   0.002  0.00  0.00    +0.088 C 
ATOM     21  N   UNL     1       0.018  -1.140  -0.004  0.00  0.00    -0.194 NA
ENDBRANCH  15  20
ENDBRANCH  11  15
ENDBRANCH  10  12
ENDBRANCH   9  10
ENDBRANCH   1   9
BRANCH   4  22
ATOM     22  C   UNL     1      -2.331   3.044  -9.732  0.00  0.00    +0.306 C 
BRANCH  22  23
ATOM     23  O   UNL     1      -3.178   1.990 -10.195  0.00  0.00    -0.484 OA
BRANCH  23  24
ATOM     24  C   UNL     1      -3.520   2.007 -11.510  0.00  0.00    +0.122 A 
ATOM     25  C   UNL     1      -4.340   1.015 -12.028  0.00  0.00    +0.046 A 
ATOM     26  C   UNL     1      -4.686   1.034 -13.365  0.00  0.00    +0.005 A 
ATOM     27  C   UNL     1      -4.217   2.041 -14.188  0.00  0.00    +0.015 A 
ATOM     28  C   UNL     1      -3.399   3.031 -13.675  0.00  0.00    +0.021 A 
ATOM     29  C   UNL     1      -3.054   3.019 -12.336  0.00  0.00    +0.061 A 
ATOM     30 BR   UNL     1      -2.759   4.407 -14.803  0.00  0.00    -0.050 Br
ENDBRANCH  23  24
ENDBRANCH  22  23
ENDBRANCH   4  22
TORSDOF 10
