REMARK  Name = ZINC14142364
REMARK  8 active torsions:
REMARK  status: ('A' for Active; 'I' for Inactive)
REMARK    1  A    between atoms: C_1  and  C_2
REMARK    2  A    between atoms: C_2  and  C_4
REMARK    3  A    between atoms: C_2  and  N_54
REMARK    4  A    between atoms: C_9  and  C_10
REMARK    5  A    between atoms: C_9  and  N_54
REMARK    6  A    between atoms: N_12  and  C_13
REMARK    7  A    between atoms: C_16  and  S_19
REMARK    8  A    between atoms: S_19  and  N_22
REMARK                            x       y       z     vdW  Elec       q    Type
REMARK                         _______ _______ _______ _____ _____    ______ ____
ROOT
ATOM      1  C   UNL     1       2.215  -6.404   3.580  0.00  0.00    +0.033 A 
ATOM      2  C   UNL     1       0.839  -6.287   3.732  0.00  0.00    +0.025 A 
ATOM      3  C   UNL     1       0.147  -7.219   4.480  0.00  0.00    +0.030 A 
ATOM      4  C   UNL     1       0.824  -8.260   5.089  0.00  0.00    +0.106 A 
ATOM      5  C   UNL     1       2.194  -8.376   4.944  0.00  0.00    +0.030 A 
ATOM      6  C   UNL     1       2.892  -7.451   4.192  0.00  0.00    +0.025 A 
ENDROOT
BRANCH   1   9
ATOM      7  C   UNL     1       3.983  -5.853   2.087  0.00  0.00    +0.200 C 
ATOM      8  O   UNL     1       4.383  -6.995   2.156  0.00  0.00    -0.278 OA
ATOM      9  N   UNL     1       2.918  -5.466   2.817  0.00  0.00    -0.287 N 
ATOM     10  H   UNL     1       2.639  -4.537   2.813  0.00  0.00    +0.155 HD
BRANCH   7  11
ATOM     11  C   UNL     1       4.677  -4.865   1.184  0.00  0.00    +0.016 C 
BRANCH  11  12
ATOM     12  N   UNL     1       5.800  -5.537   0.505  0.00  0.00    +0.389 N 
ATOM     13  H   UNL     1       6.460  -5.890   1.209  0.00  0.00    -0.084 HD
ATOM     14  H   UNL     1       5.440  -6.323  -0.049  0.00  0.00    -0.084 HD
BRANCH  12  16
ATOM     15  C   UNL     1       7.537  -3.805   0.416  0.00  0.00    -0.008 C 
ATOM     16  C   UNL     1       6.499  -4.593  -0.387  0.00  0.00    -0.037 C 
BRANCH  16  17
ATOM     17  C   UNL     1       7.190  -5.365  -1.481  0.00  0.00    -0.024 A 
ATOM     18  C   UNL     1       7.305  -5.062  -2.797  0.00  0.00    +0.009 A 
ATOM     19  C   UNL     1       7.992  -5.928  -3.627  0.00  0.00    +0.008 A 
ATOM     20  C   UNL     1       8.530  -7.055  -3.100  0.00  0.00    +0.045 A 
ATOM     21  S   UNL     1       8.069  -6.915  -1.381  0.00  0.00    -0.103 S 
ENDBRANCH  16  17
ENDBRANCH  12  16
ENDBRANCH  11  12
ENDBRANCH   7  11
ENDBRANCH   1   9
BRANCH   4  22
ATOM     22  S   UNL     1      -0.062  -9.443   6.049  0.00  0.00    +0.061 S 
ATOM     23  O   UNL     1      -1.403  -9.424   5.580  0.00  0.00    -0.153 OA
ATOM     24  O   UNL     1       0.725 -10.626   6.062  0.00  0.00    -0.153 OA
BRANCH  22  25
ATOM     25  N   UNL     1      -0.097  -8.880   7.606  0.00  0.00    -0.177 NA
ATOM     26  C   UNL     1       0.969  -9.262   8.505  0.00  0.00    +0.109 C 
ATOM     27  C   UNL     1       0.606 -10.581   9.221  0.00  0.00    +0.017 C 
ATOM     28  C   UNL     1      -0.468 -10.351  10.200  0.00  0.00    +0.001 C 
ATOM     29  C   UNL     1      -1.783  -9.876   9.590  0.00  0.00    +0.001 C 
ATOM     30  C   UNL     1      -1.744  -8.377   9.422  0.00  0.00    +0.017 C 
ATOM     31  C   UNL     1      -1.219  -8.015   8.021  0.00  0.00    +0.109 C 
ENDBRANCH  22  25
ENDBRANCH   4  22
TORSDOF 7
