REMARK  Name = ZINC65480656
REMARK  8 active torsions:
REMARK  status: ('A' for Active; 'I' for Inactive)
REMARK    1  A    between atoms: C_1  and  C_2
REMARK    2  A    between atoms: N_5  and  C_8
REMARK    3  A    between atoms: C_8  and  C_9
REMARK    4  A    between atoms: C_8  and  C_10
REMARK    5  A    between atoms: C_10  and  N_11
REMARK    6  A    between atoms: N_14  and  N_15
REMARK    7  A    between atoms: C_16  and  C_18
REMARK    8  A    between atoms: C_18  and  C_19
REMARK                            x       y       z     vdW  Elec       q    Type
REMARK                         _______ _______ _______ _____ _____    ______ ____
ROOT
ATOM      1  N   UNL     1       1.651  -3.736  -2.468  0.00  0.00    -0.300 N 
ATOM      2  C   UNL     1       1.989  -4.060  -3.732  0.00  0.00    +0.316 C 
ATOM      3  O   UNL     1       2.881  -4.860  -3.937  0.00  0.00    -0.251 OA
ATOM      4  N   UNL     1       1.338  -3.496  -4.769  0.00  0.00    -0.218 N 
ATOM      5  H   UNL     1       0.939  -3.098  -2.305  0.00  0.00    +0.150 HD
ATOM      6  H   UNL     1       1.581  -3.729  -5.679  0.00  0.00    +0.174 HD
ENDROOT
BRANCH   4   7
ATOM      7  N   UNL     1       0.310  -2.574  -4.533  0.00  0.00    -0.233 N 
ATOM      8  C   UNL     1      -0.340  -2.010  -5.570  0.00  0.00    +0.233 C 
ATOM      9  O   UNL     1      -0.036  -2.301  -6.708  0.00  0.00    -0.274 OA
ATOM     10  H   UNL     1       0.067  -2.341  -3.624  0.00  0.00    +0.173 HD
BRANCH   8  11
ATOM     11  C   UNL     1      -1.446  -1.018  -5.316  0.00  0.00    +0.132 C 
BRANCH  11  12
ATOM     12  C   UNL     1      -2.005  -0.541  -6.632  0.00  0.00    -0.038 A 
ATOM     13  C   UNL     1      -1.459   0.568  -7.253  0.00  0.00    +0.007 A 
ATOM     14  C   UNL     1      -1.970   1.006  -8.460  0.00  0.00    +0.038 A 
ATOM     15  C   UNL     1      -3.030   0.334  -9.047  0.00  0.00    +0.123 A 
ATOM     16  C   UNL     1      -3.575  -0.775  -8.424  0.00  0.00    +0.038 A 
ATOM     17  C   UNL     1      -3.059  -1.215  -7.220  0.00  0.00    +0.007 A 
ATOM     18  F   UNL     1      -3.530   0.762 -10.227  0.00  0.00    -0.205 F 
ENDBRANCH  11  12
ENDBRANCH   8  11
ENDBRANCH   4   7
BRANCH   1  19
ATOM     19  C   UNL     1       2.358  -4.349  -1.341  0.00  0.00    +0.090 C 
BRANCH  19  20
ATOM     20  C   UNL     1       1.709  -3.904  -0.029  0.00  0.00    -0.054 C 
ATOM     21  C   UNL     1       2.499  -4.475   1.150  0.00  0.00    -0.012 C 
BRANCH  20  26
ATOM     22  C   UNL     1       2.260   1.619   1.282  0.00  0.00    +0.007 C 
ATOM     23  C   UNL     1       2.320   0.091   1.323  0.00  0.00    -0.018 C 
ATOM     24  C   UNL     1       0.899  -0.479   1.276  0.00  0.00    -0.016 C 
ATOM     25  C   UNL     1       0.970  -2.007   1.237  0.00  0.00    -0.078 C 
ATOM     26  N   UNL     1       1.711  -2.437   0.045  0.00  0.00    +0.382 N 
ATOM     27  C   UNL     1       3.095  -1.954   0.119  0.00  0.00    -0.078 C 
ATOM     28  C   UNL     1       3.107  -0.424   0.115  0.00  0.00    -0.016 C 
ATOM     29  H   UNL     1       1.268  -2.060  -0.779  0.00  0.00    -0.081 HD
ENDBRANCH  20  26
ENDBRANCH  19  20
ENDBRANCH   1  19
TORSDOF 6
