REMARK  Name = ZINC21259386
REMARK  9 active torsions:
REMARK  status: ('A' for Active; 'I' for Inactive)
REMARK    1  A    between atoms: C_1  and  C_2
REMARK    2  A    between atoms: C_2  and  O_3
REMARK    3  A    between atoms: O_3  and  C_4
REMARK    4  A    between atoms: C_6  and  C_14
REMARK    5  A    between atoms: C_9  and  O_10
REMARK    6  A    between atoms: O_10  and  C_11
REMARK    7  A    between atoms: C_11  and  C_12
REMARK    8  A    between atoms: C_11  and  C_13
REMARK    9  A    between atoms: C_25  and  C_28
REMARK                            x       y       z     vdW  Elec       q    Type
REMARK                         _______ _______ _______ _____ _____    ______ ____
ROOT
ATOM      1  C   UNL     1      -6.642   5.165   0.044  0.00  0.00    +0.063 C 
ATOM      2  C   UNL     1      -7.241   4.651  -1.266  0.00  0.00    +0.109 C 
ATOM      3  C   UNL     1      -6.189   4.703  -2.344  0.00  0.00    +0.218 C 
ATOM      4  O   UNL     1      -6.507   4.945  -3.488  0.00  0.00    -0.275 OA
ATOM      5  N   UNL     1      -4.899   4.483  -2.038  0.00  0.00    -0.289 N 
ATOM      6  C   UNL     1      -4.514   4.183  -0.756  0.00  0.00    +0.018 C 
ATOM      7  C   UNL     1      -5.313   4.490   0.287  0.00  0.00    +0.020 C 
ATOM      8  C   UNL     1      -4.935   4.199   1.608  0.00  0.00    +0.162 C 
ATOM      9  O   UNL     1      -5.687   4.478   2.521  0.00  0.00    -0.292 OA
ATOM     10  C   UNL     1      -3.611   3.550   1.914  0.00  0.00    +0.088 C 
ATOM     11  C   UNL     1      -2.609   3.923   0.816  0.00  0.00    +0.032 C 
ATOM     12  C   UNL     1      -3.185   3.503  -0.538  0.00  0.00    +0.059 C 
ATOM     13  H   UNL     1      -4.130   4.542  -2.823  0.00  0.00    +0.155 HD
ENDROOT
BRANCH  11  14
ATOM     14  C   UNL     1      -1.306   3.207   1.056  0.00  0.00    -0.042 A 
ATOM     15  C   UNL     1      -1.271   1.825   1.082  0.00  0.00    +0.005 A 
ATOM     16  C   UNL     1      -0.077   1.166   1.307  0.00  0.00    +0.022 A 
ATOM     17  C   UNL     1       1.087   1.890   1.495  0.00  0.00    +0.059 A 
ATOM     18  C   UNL     1       1.054   3.274   1.464  0.00  0.00    +0.060 A 
ATOM     19  C   UNL     1      -0.144   3.931   1.244  0.00  0.00    +0.025 A 
ATOM     20 CL   UNL     1       2.513   4.183   1.699  0.00  0.00    -0.082 Cl
ATOM     21 CL   UNL     1       2.588   1.063   1.772  0.00  0.00    -0.082 Cl
ENDBRANCH  11  14
BRANCH   1  24
ATOM     22  C   UNL     1      -6.897   8.865   0.763  0.00  0.00    +0.162 A 
ATOM     23  C   UNL     1      -7.086   7.495   0.842  0.00  0.00    +0.053 A 
ATOM     24  C   UNL     1      -6.440   6.656  -0.046  0.00  0.00    -0.036 A 
ATOM     25  C   UNL     1      -5.613   7.182  -1.022  0.00  0.00    +0.008 A 
ATOM     26  C   UNL     1      -5.424   8.548  -1.109  0.00  0.00    +0.050 A 
ATOM     27  C   UNL     1      -6.064   9.394  -0.218  0.00  0.00    +0.162 A 
BRANCH  22  28
ATOM     28  O   UNL     1      -7.528   9.692   1.640  0.00  0.00    -0.489 OA
BRANCH  28  30
ATOM     29  C   UNL     1      -8.986  10.159   3.510  0.00  0.00    +0.048 C 
ATOM     30  C   UNL     1      -8.367   9.079   2.621  0.00  0.00    +0.226 C 
ENDBRANCH  28  30
ENDBRANCH  22  28
BRANCH  27  31
ATOM     31  O   UNL     1      -5.880  10.739  -0.303  0.00  0.00    -0.486 OA
BRANCH  31  32
ATOM     32  C   UNL     1      -5.110  11.220  -1.407  0.00  0.00    +0.167 C 
ATOM     33  C   UNL     1      -5.504  12.667  -1.710  0.00  0.00    +0.051 C 
ATOM     34  C   UNL     1      -3.622  11.159  -1.056  0.00  0.00    +0.051 C 
ENDBRANCH  31  32
ENDBRANCH  27  31
ENDBRANCH   1  24
TORSDOF 6
