REMARK  Name = ZINC41354388
REMARK  8 active torsions:
REMARK  status: ('A' for Active; 'I' for Inactive)
REMARK    1  A    between atoms: C_1  and  C_2
REMARK    2  A    between atoms: C_2  and  O_3
REMARK    3  A    between atoms: O_3  and  C_4
REMARK    4  A    between atoms: C_7  and  C_10
REMARK    5  A    between atoms: C_12  and  O_13
REMARK    6  A    between atoms: C_22  and  C_24
REMARK    7  A    between atoms: C_30  and  O_33
REMARK    8  A    between atoms: O_33  and  C_34
REMARK                            x       y       z     vdW  Elec       q    Type
REMARK                         _______ _______ _______ _____ _____    ______ ____
ROOT
ATOM      1  C   UNL     1       0.908  -5.995  -1.917  0.00  0.00    +0.139 A 
ATOM      2  C   UNL     1       1.710  -6.470  -2.937  0.00  0.00    +0.093 A 
ATOM      3  C   UNL     1       1.964  -7.837  -3.038  0.00  0.00    +0.131 A 
ATOM      4  C   UNL     1       1.382  -8.703  -2.079  0.00  0.00    +0.059 A 
ATOM      5  C   UNL     1       1.605 -10.088  -2.133  0.00  0.00    +0.017 A 
ATOM      6  C   UNL     1       1.039 -10.904  -1.204  0.00  0.00    +0.024 A 
ATOM      7  C   UNL     1       0.230 -10.368  -0.186  0.00  0.00    +0.037 A 
ATOM      8  C   UNL     1      -0.000  -8.991  -0.120  0.00  0.00    +0.070 A 
ATOM      9  C   UNL     1       0.572  -8.154  -1.061  0.00  0.00    +0.141 A 
ATOM     10  O   UNL     1       0.365  -6.822  -1.009  0.00  0.00    -0.455 OA
ATOM     11  N   UNL     1      -0.330 -11.192   0.737  0.00  0.00    -0.279 N 
ATOM     12  C   UNL     1      -1.332 -10.758   1.494  0.00  0.00    +0.284 C 
ATOM     13  O   UNL     1      -1.830  -9.663   1.278  0.00  0.00    -0.266 OA
ATOM     14  H   UNL     1       0.001 -12.097   0.843  0.00  0.00    +0.155 HD
ENDROOT
BRANCH  12  15
ATOM     15  C   UNL     1      -1.843 -11.598   2.594  0.00  0.00    +0.191 A 
ATOM     16  C   UNL     1      -2.860 -11.261   3.424  0.00  0.00    +0.063 A 
ATOM     17  C   UNL     1      -3.018 -12.384   4.349  0.00  0.00    +0.025 A 
ATOM     18  C   UNL     1      -3.875 -12.651   5.420  0.00  0.00    +0.012 A 
ATOM     19  C   UNL     1      -3.764 -13.829   6.102  0.00  0.00    +0.004 A 
ATOM     20  C   UNL     1      -2.805 -14.765   5.739  0.00  0.00    +0.049 A 
ATOM     21  C   UNL     1      -1.947 -14.522   4.683  0.00  0.00    +0.163 A 
ATOM     22  C   UNL     1      -2.044 -13.326   3.974  0.00  0.00    +0.177 A 
ATOM     23  O   UNL     1      -1.371 -12.818   2.921  0.00  0.00    -0.447 OA
BRANCH  21  24
ATOM     24  O   UNL     1      -1.012 -15.447   4.337  0.00  0.00    -0.491 OA
ATOM     25  C   UNL     1      -0.972 -16.649   5.108  0.00  0.00    +0.277 C 
ENDBRANCH  21  24
ENDBRANCH  12  15
BRANCH   1  29
ATOM     26  C   UNL     1       0.157  -1.827  -1.637  0.00  0.00    +0.121 A 
ATOM     27  C   UNL     1      -0.399  -2.695  -0.704  0.00  0.00    +0.046 A 
ATOM     28  C   UNL     1      -0.158  -4.048  -0.791  0.00  0.00    +0.015 A 
ATOM     29  C   UNL     1       0.647  -4.548  -1.820  0.00  0.00    +0.018 A 
ATOM     30  C   UNL     1       1.204  -3.671  -2.756  0.00  0.00    +0.015 A 
ATOM     31  C   UNL     1       0.953  -2.320  -2.664  0.00  0.00    +0.046 A 
BRANCH  26  32
ATOM     32  O   UNL     1      -0.083  -0.494  -1.547  0.00  0.00    -0.492 OA
BRANCH  32  34
ATOM     33  C   UNL     1      -1.066   1.466  -0.531  0.00  0.00    +0.048 C 
ATOM     34  C   UNL     1      -0.910  -0.055  -0.468  0.00  0.00    +0.225 C 
ENDBRANCH  32  34
ENDBRANCH  26  32
ENDBRANCH   1  29
BRANCH   3  35
ATOM     35  O   UNL     1       2.746  -8.324  -4.026  0.00  0.00    -0.506 OA
ATOM     36  H   UNL     1       3.091  -7.647  -4.625  0.00  0.00    +0.292 HD
ENDBRANCH   3  35
TORSDOF 6
