REMARK  Name = ZINC21964098
REMARK  7 active torsions:
REMARK  status: ('A' for Active; 'I' for Inactive)
REMARK    1  A    between atoms: C_7  and  C_11
REMARK    2  A    between atoms: N_12  and  N_13
REMARK    3  A    between atoms: C_14  and  C_16
REMARK    4  A    between atoms: C_16  and  C_17
REMARK    5  A    between atoms: C_17  and  C_18
REMARK    6  A    between atoms: C_18  and  C_19
REMARK    7  A    between atoms: N_21  and  C_22
REMARK                            x       y       z     vdW  Elec       q    Type
REMARK                         _______ _______ _______ _____ _____    ______ ____
ROOT
ATOM      1  N   UNL     1      -1.460  -4.171  -0.020  0.00  0.00    -0.207 N 
ATOM      2  C   UNL     1      -2.794  -3.977   0.001  0.00  0.00    +0.232 C 
ATOM      3  O   UNL     1      -3.243  -2.850   0.021  0.00  0.00    -0.274 OA
ATOM      4  H   UNL     1      -1.101  -5.072  -0.035  0.00  0.00    +0.177 HD
ENDROOT
BRANCH   1   6
ATOM      5  C   UNL     1       0.693  -3.257  -0.039  0.00  0.00    +0.140 C 
ATOM      6  N   UNL     1      -0.592  -3.071  -0.019  0.00  0.00    -0.188 NA
BRANCH   5  13
ATOM      7  C   UNL     1      -0.016   1.372   0.025  0.00  0.00    +0.001 A 
ATOM      8  C   UNL     1       1.173   2.089   0.018  0.00  0.00    +0.002 A 
ATOM      9  C   UNL     1       2.386   1.436  -0.007  0.00  0.00    +0.026 A 
ATOM     10  C   UNL     1       2.426   0.046  -0.023  0.00  0.00    +0.047 A 
ATOM     11  C   UNL     1       1.223  -0.678  -0.015  0.00  0.00    +0.008 A 
ATOM     12  C   UNL     1       0.003  -0.005   0.009  0.00  0.00    +0.010 A 
ATOM     13  C   UNL     1       1.604  -2.102  -0.038  0.00  0.00    +0.020 A 
ATOM     14  C   UNL     1       2.964  -2.138  -0.057  0.00  0.00    +0.093 A 
ATOM     15  N   UNL     1       3.458  -0.868  -0.049  0.00  0.00    -0.360 N 
ATOM     16  H   UNL     1       4.401  -0.640  -0.060  0.00  0.00    +0.165 HD
ENDBRANCH   5  13
ENDBRANCH   1   6
BRANCH   2  17
ATOM     17  C   UNL     1      -3.727  -5.160   0.000  0.00  0.00    +0.098 C 
BRANCH  17  18
ATOM     18  C   UNL     1      -5.175  -4.668   0.026  0.00  0.00    +0.018 C 
BRANCH  18  19
ATOM     19  C   UNL     1      -6.123  -5.869   0.025  0.00  0.00    +0.096 C 
BRANCH  19  20
ATOM     20  C   UNL     1      -7.549  -5.384   0.051  0.00  0.00    +0.217 C 
ATOM     21  O   UNL     1      -7.785  -4.194   0.068  0.00  0.00    -0.275 OA
ATOM     22  N   UNL     1      -8.563  -6.271   0.054  0.00  0.00    -0.285 N 
ATOM     23  H   UNL     1      -8.377  -7.220  -0.028  0.00  0.00    +0.155 HD
BRANCH  22  24
ATOM     24  C   UNL     1      -9.884  -5.825   0.176  0.00  0.00    +0.033 A 
ATOM     25  C   UNL     1     -10.811  -6.580   0.882  0.00  0.00    +0.024 A 
ATOM     26  C   UNL     1     -12.114  -6.136   1.001  0.00  0.00    +0.017 A 
ATOM     27  C   UNL     1     -12.495  -4.942   0.416  0.00  0.00    +0.018 A 
ATOM     28  C   UNL     1     -11.573  -4.188  -0.288  0.00  0.00    +0.017 A 
ATOM     29  C   UNL     1     -10.268  -4.623  -0.405  0.00  0.00    +0.024 A 
ATOM     30 BR   UNL     1     -14.280  -4.338   0.581  0.00  0.00    -0.050 Br
ENDBRANCH  22  24
ENDBRANCH  19  20
ENDBRANCH  18  19
ENDBRANCH  17  18
ENDBRANCH   2  17
TORSDOF 7
