REMARK  Name = ZINC36548375
REMARK  7 active torsions:
REMARK  status: ('A' for Active; 'I' for Inactive)
REMARK    1  A    between atoms: C_5  and  N_7
REMARK    2  A    between atoms: N_7  and  C_8
REMARK    3  A    between atoms: C_8  and  C_10
REMARK    4  A    between atoms: C_8  and  C_20
REMARK    5  A    between atoms: C_13  and  C_16
REMARK    6  A    between atoms: N_22  and  C_23
REMARK    7  A    between atoms: C_29  and  C_31
REMARK                            x       y       z     vdW  Elec       q    Type
REMARK                         _______ _______ _______ _____ _____    ______ ____
ROOT
ATOM      1  C   UNL     1       1.168  -2.726  -1.335  0.00  0.00    +0.197 C 
ENDROOT
BRANCH   1   2
ATOM      2  C   UNL     1       0.107  -1.663  -1.456  0.00  0.00    -0.018 A 
ATOM      3  C   UNL     1       0.257  -0.459  -0.794  0.00  0.00    +0.006 A 
ATOM      4  C   UNL     1      -0.717   0.516  -0.905  0.00  0.00    +0.013 A 
ATOM      5  C   UNL     1      -1.839   0.288  -1.679  0.00  0.00    +0.055 A 
ATOM      6  C   UNL     1      -1.988  -0.916  -2.342  0.00  0.00    +0.013 A 
ATOM      7  C   UNL     1      -1.013  -1.890  -2.234  0.00  0.00    +0.006 A 
BRANCH   5   8
ATOM      8  C   UNL     1      -2.901   1.351  -1.799  0.00  0.00    +0.417 C 
ATOM      9  F   UNL     1      -2.608   2.181  -2.886  0.00  0.00    -0.166 F 
ATOM     10  F   UNL     1      -4.146   0.745  -1.997  0.00  0.00    -0.166 F 
ATOM     11  F   UNL     1      -2.933   2.112  -0.626  0.00  0.00    -0.166 F 
ENDBRANCH   5   8
ENDBRANCH   1   2
BRANCH   1  12
ATOM     12  C   UNL     1       2.364  -2.339  -2.166  0.00  0.00    +0.239 C 
ATOM     13  O   UNL     1       3.161  -1.529  -1.742  0.00  0.00    -0.273 OA
ATOM     14  N   UNL     1       2.550  -2.893  -3.381  0.00  0.00    -0.311 N 
ATOM     15  H   UNL     1       1.913  -3.542  -3.720  0.00  0.00    +0.149 HD
BRANCH  14  16
ATOM     16  C   UNL     1       3.712  -2.517  -4.188  0.00  0.00    +0.073 C 
ATOM     17  C   UNL     1       3.394  -1.246  -4.979  0.00  0.00    +0.022 C 
ATOM     18  C   UNL     1       4.609  -0.853  -5.822  0.00  0.00    +0.002 C 
ATOM     19  C   UNL     1       4.945  -1.987  -6.793  0.00  0.00    +0.000 C 
ATOM     20  C   UNL     1       5.263  -3.258  -6.002  0.00  0.00    +0.002 C 
ATOM     21  C   UNL     1       4.048  -3.651  -5.159  0.00  0.00    +0.022 C 
ENDBRANCH  14  16
ENDBRANCH   1  12
BRANCH   1  22
ATOM     22  N   UNL     1       1.570  -2.858   0.067  0.00  0.00    -0.252 N 
ATOM     23  C   UNL     1       0.645  -3.128   1.010  0.00  0.00    +0.241 C 
ATOM     24  O   UNL     1      -0.519  -3.261   0.698  0.00  0.00    -0.273 OA
BRANCH  22  29
ATOM     25  C   UNL     1       4.705  -1.325   1.228  0.00  0.00    +0.002 A 
ATOM     26  C   UNL     1       5.571  -2.400   1.140  0.00  0.00    +0.002 A 
ATOM     27  C   UNL     1       5.112  -3.627   0.698  0.00  0.00    +0.022 A 
ATOM     28  C   UNL     1       3.786  -3.783   0.341  0.00  0.00    +0.062 A 
ATOM     29  C   UNL     1       2.913  -2.704   0.428  0.00  0.00    +0.056 A 
ATOM     30  C   UNL     1       3.378  -1.474   0.873  0.00  0.00    +0.025 A 
ATOM     31 CL   UNL     1       3.211  -5.323  -0.216  0.00  0.00    -0.082 Cl
ENDBRANCH  22  29
BRANCH  23  32
ATOM     32  C   UNL     1       1.058  -3.263   2.453  0.00  0.00    +0.160 C 
ATOM     33  C   UNL     1       1.627  -4.675   2.716  0.00  0.00    +0.041 C 
ATOM     34  C   UNL     1       0.374  -5.433   3.211  0.00  0.00    +0.098 C 
ATOM     35  C   UNL     1      -0.522  -4.347   3.765  0.00  0.00    +0.214 C 
ATOM     36  O   UNL     1      -1.470  -4.536   4.497  0.00  0.00    -0.276 OA
ATOM     37  N   UNL     1      -0.112  -3.141   3.330  0.00  0.00    -0.304 N 
ATOM     38  H   UNL     1      -0.535  -2.300   3.565  0.00  0.00    +0.149 HD
ENDBRANCH  23  32
ENDBRANCH   1  22
TORSDOF 7
