REMARK  Name = ZINC09465612
REMARK  6 active torsions:
REMARK  status: ('A' for Active; 'I' for Inactive)
REMARK    1  A    between atoms: C_1  and  C_2
REMARK    2  A    between atoms: C_15  and  C_17
REMARK    3  A    between atoms: C_17  and  S_18
REMARK    4  A    between atoms: S_18  and  C_19
REMARK    5  A    between atoms: C_21  and  C_30
REMARK    6  A    between atoms: C_22  and  C_24
REMARK                            x       y       z     vdW  Elec       q    Type
REMARK                         _______ _______ _______ _____ _____    ______ ____
ROOT
ATOM      1  S   UNL     1       6.033  -2.788   2.011  0.00  0.00    -0.058 S 
ENDROOT
BRANCH   1   2
ATOM      2  C   UNL     1       5.220  -1.854   0.756  0.00  0.00    +0.258 A 
ATOM      3  N   UNL     1       4.024  -2.102   0.283  0.00  0.00    -0.203 NA
ATOM      4  C   UNL     1       3.730  -1.183  -0.663  0.00  0.00    +0.118 A 
ATOM      5  C   UNL     1       4.817  -0.342  -0.763  0.00  0.00    +0.164 A 
ATOM      6  O   UNL     1       5.731  -0.778   0.136  0.00  0.00    -0.430 OA
BRANCH   5   7
ATOM      7  C   UNL     1       4.957   0.812  -1.670  0.00  0.00    +0.020 A 
ATOM      8  C   UNL     1       3.921   1.743  -1.788  0.00  0.00    +0.011 A 
ATOM      9  C   UNL     1       4.061   2.822  -2.634  0.00  0.00    +0.001 A 
ATOM     10  C   UNL     1       5.220   2.979  -3.375  0.00  0.00    +0.000 A 
ATOM     11  C   UNL     1       6.247   2.058  -3.269  0.00  0.00    +0.001 A 
ATOM     12  C   UNL     1       6.124   0.977  -2.422  0.00  0.00    +0.011 A 
ENDBRANCH   5   7
BRANCH   4  13
ATOM     13  C   UNL     1       2.478  -1.100  -1.450  0.00  0.00    +0.004 A 
ATOM     14  C   UNL     1       2.524  -0.790  -2.809  0.00  0.00    +0.010 A 
ATOM     15  C   UNL     1       1.355  -0.715  -3.537  0.00  0.00    +0.001 A 
ATOM     16  C   UNL     1       0.137  -0.945  -2.921  0.00  0.00    +0.000 A 
ATOM     17  C   UNL     1       0.085  -1.253  -1.573  0.00  0.00    +0.001 A 
ATOM     18  C   UNL     1       1.248  -1.332  -0.835  0.00  0.00    +0.010 A 
ENDBRANCH   4  13
ENDBRANCH   1   2
BRANCH   1  19
ATOM     19  C   UNL     1       7.590  -1.872   2.125  0.00  0.00    +0.175 C 
BRANCH  19  33
ATOM     20  C   UNL     1      11.638  -3.433   3.744  0.00  0.00    +0.029 C 
ATOM     21  C   UNL     1      10.558  -2.599   4.436  0.00  0.00    +0.087 C 
ATOM     22  C   UNL     1      11.220  -1.505   5.276  0.00  0.00    +0.118 C 
ATOM     23  C   UNL     1      10.211  -0.449   5.641  0.00  0.00    +0.219 C 
ATOM     24  O   UNL     1       9.766  -0.406   6.768  0.00  0.00    -0.275 OA
ATOM     25  N   UNL     1       9.796   0.450   4.721  0.00  0.00    -0.284 N 
ATOM     26  C   UNL     1      10.229   0.362   3.393  0.00  0.00    +0.055 A 
ATOM     27  C   UNL     1      10.725   1.472   2.730  0.00  0.00    +0.025 A 
ATOM     28  C   UNL     1      11.124   1.356   1.396  0.00  0.00    +0.002 A 
ATOM     29  C   UNL     1      11.022   0.143   0.740  0.00  0.00    +0.002 A 
ATOM     30  C   UNL     1      10.538  -0.970   1.403  0.00  0.00    +0.025 A 
ATOM     31  C   UNL     1      10.152  -0.869   2.730  0.00  0.00    +0.058 A 
ATOM     32  N   UNL     1       9.690  -1.993   3.427  0.00  0.00    -0.266 N 
ATOM     33  C   UNL     1       8.472  -2.509   3.168  0.00  0.00    +0.230 C 
ATOM     34  O   UNL     1       8.085  -3.486   3.775  0.00  0.00    -0.274 OA
ATOM     35  H   UNL     1       9.192   1.163   4.983  0.00  0.00    +0.155 HD
ENDBRANCH  19  33
ENDBRANCH   1  19
TORSDOF 5
