REMARK  Name = ZINC04984962
REMARK  6 active torsions:
REMARK  status: ('A' for Active; 'I' for Inactive)
REMARK    1  A    between atoms: C_1  and  C_2
REMARK    2  A    between atoms: C_7  and  N_12
REMARK    3  A    between atoms: C_9  and  C_11
REMARK    4  A    between atoms: C_13  and  C_15
REMARK    5  A    between atoms: C_15  and  S_16
REMARK    6  A    between atoms: S_16  and  C_17
REMARK                            x       y       z     vdW  Elec       q    Type
REMARK                         _______ _______ _______ _____ _____    ______ ____
ROOT
ATOM      1  N   UNL     1       1.397   3.520   0.008  0.00  0.00    -0.312 N 
ATOM      2  C   UNL     1       1.275   4.199  -1.150  0.00  0.00    +0.224 C 
ATOM      3  O   UNL     1       1.182   3.597  -2.199  0.00  0.00    -0.275 OA
ATOM      4  H   UNL     1       1.472   4.002   0.846  0.00  0.00    +0.149 HD
ENDROOT
BRANCH   1  10
ATOM      5  C   UNL     1       2.894  -0.475  -0.028  0.00  0.00    +0.008 C 
ATOM      6  C   UNL     1       2.178   0.019   1.231  0.00  0.00    -0.009 C 
ATOM      7  C   UNL     1       0.742  -0.511   1.242  0.00  0.00    +0.003 C 
ATOM      8  C   UNL     1       0.002  -0.004   0.002  0.00  0.00    +0.002 C 
ATOM      9  C   UNL     1      -0.019   1.526   0.010  0.00  0.00    +0.022 C 
ATOM     10  C   UNL     1       1.417   2.055  -0.000  0.00  0.00    +0.076 C 
ATOM     11  C   UNL     1       2.157   1.548   1.239  0.00  0.00    +0.009 C 
ATOM     12  C   UNL     1       3.592   2.078   1.228  0.00  0.00    +0.009 C 
ENDBRANCH   1  10
BRANCH   2  13
ATOM     13  C   UNL     1       1.254   5.706  -1.142  0.00  0.00    +0.174 C 
BRANCH  13  14
ATOM     14  S   UNL     1       1.081   6.316  -2.837  0.00  0.00    -0.058 S 
BRANCH  14  15
ATOM     15  C   UNL     1       1.086   8.053  -2.539  0.00  0.00    +0.258 A 
ATOM     16  N   UNL     1       1.187   8.611  -1.359  0.00  0.00    -0.203 NA
ATOM     17  C   UNL     1       1.159   9.963  -1.513  0.00  0.00    +0.112 A 
ATOM     18  C   UNL     1       1.230  11.036  -0.622  0.00  0.00    +0.051 A 
ATOM     19  C   UNL     1       1.165  12.327  -1.101  0.00  0.00    +0.043 A 
ATOM     20  C   UNL     1       1.029  12.565  -2.461  0.00  0.00    +0.024 A 
ATOM     21  C   UNL     1       0.958  11.513  -3.351  0.00  0.00    +0.050 A 
ATOM     22  C   UNL     1       1.022  10.209  -2.887  0.00  0.00    +0.156 A 
ATOM     23  O   UNL     1       0.980   8.998  -3.490  0.00  0.00    -0.431 OA
ATOM     24 CL   UNL     1       1.252  13.663   0.005  0.00  0.00    -0.083 Cl
ENDBRANCH  14  15
ENDBRANCH  13  14
ENDBRANCH   2  13
TORSDOF 4
