REMARK  Name = ZINC15945208
REMARK  9 active torsions:
REMARK  status: ('A' for Active; 'I' for Inactive)
REMARK    1  A    between atoms: C_1  and  C_2
REMARK    2  A    between atoms: C_2  and  O_3
REMARK    3  A    between atoms: O_3  and  C_4
REMARK    4  A    between atoms: C_6  and  C_12
REMARK    5  A    between atoms: C_9  and  O_10
REMARK    6  A    between atoms: C_21  and  C_25
REMARK    7  A    between atoms: C_25  and  C_26
REMARK    8  A    between atoms: C_25  and  C_27
REMARK    9  A    between atoms: C_25  and  C_28
REMARK                            x       y       z     vdW  Elec       q    Type
REMARK                         _______ _______ _______ _____ _____    ______ ____
ROOT
ATOM      1  C   UNL     1       3.548  -1.456  -7.636  0.00  0.00    +0.190 C 
ATOM      2  N   UNL     1       2.340  -0.644  -7.404  0.00  0.00    -0.316 N 
ATOM      3  C   UNL     1       1.922  -0.519  -6.104  0.00  0.00    +0.080 A 
ATOM      4  C   UNL     1       2.781  -0.685  -5.008  0.00  0.00    +0.068 A 
ATOM      5  C   UNL     1       2.177  -0.508  -3.697  0.00  0.00    -0.023 A 
ATOM      6  C   UNL     1       0.859  -0.211  -3.696  0.00  0.00    -0.004 A 
ATOM      7  S   UNL     1       0.401  -0.157  -5.409  0.00  0.00    -0.078 S 
ATOM      8  C   UNL     1      -0.018   0.016  -2.503  0.00  0.00    +0.046 C 
ATOM      9  C   UNL     1       0.718  -0.497  -1.257  0.00  0.00    -0.000 C 
ATOM     10  C   UNL     1       2.153   0.037  -1.274  0.00  0.00    +0.009 C 
ATOM     11  C   UNL     1       2.948  -0.644  -2.389  0.00  0.00    +0.037 C 
ATOM     12  C   UNL     1       4.199  -1.007  -5.291  0.00  0.00    +0.248 C 
ATOM     13  O   UNL     1       5.030  -1.044  -4.403  0.00  0.00    -0.270 OA
ATOM     14  N   UNL     1       4.530  -1.258  -6.575  0.00  0.00    -0.289 N 
ATOM     15  H   UNL     1       1.864  -0.218  -8.135  0.00  0.00    +0.149 HD
ATOM     16  H   UNL     1       5.471  -1.310  -6.805  0.00  0.00    +0.151 HD
ENDROOT
BRANCH   1  19
ATOM     17  C   UNL     1       3.710  -5.217  -7.321  0.00  0.00    +0.163 A 
ATOM     18  C   UNL     1       4.063  -3.878  -7.277  0.00  0.00    +0.056 A 
ATOM     19  C   UNL     1       3.163  -2.912  -7.685  0.00  0.00    -0.005 A 
ATOM     20  C   UNL     1       1.907  -3.278  -8.133  0.00  0.00    +0.026 A 
ATOM     21  C   UNL     1       1.550  -4.614  -8.185  0.00  0.00    +0.063 A 
ATOM     22  C   UNL     1       2.449  -5.587  -7.777  0.00  0.00    +0.173 A 
ATOM     23 BR   UNL     1      -0.166  -5.111  -8.805  0.00  0.00    -0.046 Br
BRANCH  22  24
ATOM     24  O   UNL     1       2.099  -6.900  -7.822  0.00  0.00    -0.503 OA
ATOM     25  H   UNL     1       1.683  -7.225  -7.012  0.00  0.00    +0.292 HD
ENDBRANCH  22  24
BRANCH  17  26
ATOM     26  O   UNL     1       4.596  -6.169  -6.920  0.00  0.00    -0.489 OA
BRANCH  26  28
ATOM     27  C   UNL     1       6.725  -6.920  -6.059  0.00  0.00    +0.048 C 
ATOM     28  C   UNL     1       5.872  -5.716  -6.465  0.00  0.00    +0.226 C 
ENDBRANCH  26  28
ENDBRANCH  17  26
ENDBRANCH   1  19
BRANCH   9  29
ATOM     29  C   UNL     1       0.002  -0.004   0.002  0.00  0.00    -0.035 C 
ATOM     30  C   UNL     1      -0.019   1.526   0.010  0.00  0.00    +0.011 C 
ATOM     31  C   UNL     1       0.742  -0.511   1.242  0.00  0.00    +0.011 C 
ATOM     32  C   UNL     1      -1.433  -0.534   0.013  0.00  0.00    +0.011 C 
ENDBRANCH   9  29
TORSDOF 5
