REMARK  Name = ZINC19553597
REMARK  10 active torsions:
REMARK  status: ('A' for Active; 'I' for Inactive)
REMARK    1  A    between atoms: C_1  and  O_2
REMARK    2  A    between atoms: O_2  and  C_3
REMARK    3  A    between atoms: C_6  and  C_9
REMARK    4  A    between atoms: C_9  and  O_31
REMARK    5  A    between atoms: N_18  and  C_20
REMARK    6  A    between atoms: C_20  and  C_21
REMARK    7  A    between atoms: C_23  and  O_29
REMARK    8  A    between atoms: C_26  and  O_27
REMARK    9  A    between atoms: O_27  and  C_28
REMARK   10  A    between atoms: O_29  and  C_30
REMARK                            x       y       z     vdW  Elec       q    Type
REMARK                         _______ _______ _______ _____ _____    ______ ____
ROOT
ATOM      1  C   UNL     1       3.671   2.186  -0.023  0.00  0.00    +0.093 C 
ATOM      2  C   UNL     1       4.059   2.555   1.413  0.00  0.00    +0.009 C 
ATOM      3  C   UNL     1       5.385   3.319   1.395  0.00  0.00    +0.005 C 
ATOM      4  C   UNL     1       5.227   4.598   0.569  0.00  0.00    +0.001 C 
ATOM      5  C   UNL     1       4.822   4.237  -0.862  0.00  0.00    +0.005 C 
ATOM      6  C   UNL     1       3.496   3.471  -0.838  0.00  0.00    +0.009 C 
ATOM      7  C   UNL     1       2.422   4.341  -0.179  0.00  0.00    -0.072 C 
ATOM      8  N   UNL     1       2.830   4.664   1.200  0.00  0.00    +0.383 N 
ATOM      9  C   UNL     1       2.971   3.449   2.013  0.00  0.00    -0.072 C 
ATOM     10  H   UNL     1       3.817   5.149   1.154  0.00  0.00    -0.081 HD
ENDROOT
BRANCH   1  14
ATOM     11  C   UNL     1       0.003  -0.005   0.003  0.00  0.00    +0.120 A 
ATOM     12  C   UNL     1       0.330   0.790  -1.086  0.00  0.00    +0.046 A 
ATOM     13  C   UNL     1       1.516   1.498  -1.092  0.00  0.00    +0.010 A 
ATOM     14  C   UNL     1       2.377   1.414  -0.013  0.00  0.00    -0.016 A 
ATOM     15  C   UNL     1       2.054   0.623   1.073  0.00  0.00    +0.010 A 
ATOM     16  C   UNL     1       0.869  -0.087   1.084  0.00  0.00    +0.046 A 
BRANCH  11  18
ATOM     17  C   UNL     1      -1.435  -1.500   1.165  0.00  0.00    +0.277 C 
ATOM     18  O   UNL     1      -1.164  -0.702   0.011  0.00  0.00    -0.495 OA
ENDBRANCH  11  18
ENDBRANCH   1  14
BRANCH   1  19
ATOM     19  O   UNL     1       4.702   1.387  -0.606  0.00  0.00    -0.384 OA
ATOM     20  H   UNL     1       5.723   1.786  -0.699  0.00  0.00    +0.211 HD
ENDBRANCH   1  19
BRANCH   8  21
ATOM     21  C   UNL     1       1.891   5.607   1.820  0.00  0.00    -0.039 C 
BRANCH  21  22
ATOM     22  C   UNL     1       1.956   6.929   1.099  0.00  0.00    -0.019 A 
ATOM     23  C   UNL     1       2.690   7.971   1.633  0.00  0.00    +0.051 A 
ATOM     24  C   UNL     1       2.750   9.188   0.969  0.00  0.00    +0.121 A 
ATOM     25  C   UNL     1       2.075   9.357  -0.230  0.00  0.00    +0.049 A 
ATOM     26  C   UNL     1       1.342   8.315  -0.764  0.00  0.00    +0.049 A 
ATOM     27  C   UNL     1       1.286   7.097  -0.102  0.00  0.00    +0.122 A 
BRANCH  27  28
ATOM     28  O   UNL     1       0.568   6.070  -0.630  0.00  0.00    -0.495 OA
ATOM     29  C   UNL     1      -0.098   6.313  -1.871  0.00  0.00    +0.277 C 
ENDBRANCH  27  28
BRANCH  24  30
ATOM     30  O   UNL     1       3.472  10.213   1.494  0.00  0.00    -0.495 OA
ATOM     31  C   UNL     1       3.491  11.438   0.757  0.00  0.00    +0.277 C 
ENDBRANCH  24  30
ENDBRANCH  21  22
ENDBRANCH   8  21
TORSDOF 7
