REMARK  Name = ZINC38671063
REMARK  7 active torsions:
REMARK  status: ('A' for Active; 'I' for Inactive)
REMARK    1  A    between atoms: C_1  and  N_2
REMARK    2  A    between atoms: C_10  and  C_12
REMARK    3  A    between atoms: C_12  and  C_14
REMARK    4  A    between atoms: C_12  and  N_32
REMARK    5  A    between atoms: C_14  and  N_15
REMARK    6  A    between atoms: C_16  and  C_18
REMARK    7  A    between atoms: N_23  and  C_25
REMARK                            x       y       z     vdW  Elec       q    Type
REMARK                         _______ _______ _______ _____ _____    ______ ____
ROOT
ATOM      1  C   UNL     1       5.117  -2.749  -0.377  0.00  0.00    -0.020 C 
ENDROOT
BRANCH   1  11
ATOM      2  C   UNL     1      -0.067   1.143   0.366  0.00  0.00    +0.129 C 
ATOM      3  N   UNL     1       0.032  -0.313   0.240  0.00  0.00    -0.333 N 
ATOM      4  C   UNL     1      -1.176  -1.149   0.265  0.00  0.00    +0.105 C 
ATOM      5  C   UNL     1      -0.897  -2.349   1.179  0.00  0.00    +0.024 C 
ATOM      6  C   UNL     1       0.235  -3.178   0.573  0.00  0.00    +0.038 C 
ATOM      7  C   UNL     1       1.416  -2.302   0.249  0.00  0.00    -0.026 A 
ATOM      8  C   UNL     1       1.279  -0.930   0.088  0.00  0.00    +0.033 A 
ATOM      9  C   UNL     1       2.388  -0.150  -0.221  0.00  0.00    +0.023 A 
ATOM     10  C   UNL     1       3.627  -0.739  -0.371  0.00  0.00    +0.004 A 
ATOM     11  C   UNL     1       3.764  -2.106  -0.214  0.00  0.00    -0.059 A 
ATOM     12  C   UNL     1       2.663  -2.885   0.104  0.00  0.00    +0.007 A 
ENDBRANCH   1  11
BRANCH   1  13
ATOM     13  N   UNL     1       5.824  -2.125  -1.503  0.00  0.00    +0.385 N 
ATOM     14  C   UNL     1       4.995  -2.217  -2.711  0.00  0.00    -0.078 C 
ATOM     15  C   UNL     1       5.691  -1.497  -3.868  0.00  0.00    -0.019 C 
ATOM     16  C   UNL     1       7.050  -2.154  -4.128  0.00  0.00    -0.004 C 
ATOM     17  C   UNL     1       7.878  -2.119  -2.840  0.00  0.00    -0.019 C 
ATOM     18  C   UNL     1       7.101  -2.816  -1.721  0.00  0.00    -0.078 C 
ATOM     19  H   UNL     1       6.000  -1.154  -1.292  0.00  0.00    -0.081 HD
ENDBRANCH   1  13
BRANCH   1  20
ATOM     20  C   UNL     1       5.930  -2.558   0.905  0.00  0.00    +0.093 C 
BRANCH  20  21
ATOM     21  N   UNL     1       5.278  -3.268   2.008  0.00  0.00    -0.316 N 
ATOM     22  C   UNL     1       5.869  -3.322   3.218  0.00  0.00    +0.218 C 
ATOM     23  O   UNL     1       6.941  -2.782   3.394  0.00  0.00    -0.275 OA
ATOM     24  H   UNL     1       4.421  -3.699   1.867  0.00  0.00    +0.149 HD
BRANCH  22  25
ATOM     25  C   UNL     1       5.198  -4.052   4.353  0.00  0.00    +0.101 C 
ATOM     26  C   UNL     1       3.867  -3.367   4.741  0.00  0.00    +0.110 C 
ATOM     27  C   UNL     1       3.807  -3.501   6.247  0.00  0.00    +0.221 C 
ATOM     28  O   UNL     1       2.808  -3.349   6.919  0.00  0.00    -0.275 OA
ATOM     29  N   UNL     1       5.021  -3.815   6.732  0.00  0.00    -0.271 N 
ATOM     30  C   UNL     1       6.015  -3.918   5.657  0.00  0.00    +0.127 C 
BRANCH  29  31
ATOM     31  C   UNL     1       5.301  -4.017   8.088  0.00  0.00    +0.036 A 
ATOM     32  C   UNL     1       4.271  -4.015   9.019  0.00  0.00    +0.025 A 
ATOM     33  C   UNL     1       4.550  -4.215  10.357  0.00  0.00    +0.022 A 
ATOM     34  C   UNL     1       5.855  -4.418  10.770  0.00  0.00    +0.041 A 
ATOM     35  C   UNL     1       6.883  -4.420   9.844  0.00  0.00    +0.022 A 
ATOM     36  C   UNL     1       6.609  -4.226   8.505  0.00  0.00    +0.025 A 
ATOM     37 CL   UNL     1       6.202  -4.668  12.452  0.00  0.00    -0.084 Cl
ENDBRANCH  29  31
ENDBRANCH  22  25
ENDBRANCH  20  21
ENDBRANCH   1  20
TORSDOF 6
