REMARK  Name = ZINC57350443
REMARK  6 active torsions:
REMARK  status: ('A' for Active; 'I' for Inactive)
REMARK    1  A    between atoms: C_1  and  C_2
REMARK    2  A    between atoms: C_7  and  N_8
REMARK    3  A    between atoms: C_9  and  C_11
REMARK    4  A    between atoms: C_11  and  C_13
REMARK    5  A    between atoms: C_11  and  O_20
REMARK    6  A    between atoms: O_20  and  C_21
REMARK                            x       y       z     vdW  Elec       q    Type
REMARK                         _______ _______ _______ _____ _____    ______ ____
ROOT
ATOM      1  N   UNL     1       0.024   0.030   2.389  0.00  0.00    -0.281 N 
ATOM      2  C   UNL     1      -0.356  -0.580   3.529  0.00  0.00    +0.251 C 
ATOM      3  O   UNL     1      -0.613  -1.766   3.526  0.00  0.00    -0.272 OA
ATOM      4  H   UNL     1       0.295   0.962   2.405  0.00  0.00    +0.155 HD
ENDROOT
BRANCH   1  11
ATOM      5  C   UNL     1       2.388  -1.266   1.641  0.00  0.00    +0.046 C 
ATOM      6  C   UNL     1       1.153  -1.324   0.779  0.00  0.00    -0.027 A 
ATOM      7  C   UNL     1       1.188  -2.043  -0.413  0.00  0.00    +0.007 A 
ATOM      8  C   UNL     1       0.105  -2.126  -1.223  0.00  0.00    +0.031 A 
ATOM      9  C   UNL     1      -1.107  -1.472  -0.868  0.00  0.00    +0.102 A 
ATOM     10  C   UNL     1      -1.149  -0.718   0.379  0.00  0.00    +0.121 A 
ATOM     11  C   UNL     1       0.027  -0.677   1.186  0.00  0.00    +0.065 A 
ATOM     12  N   UNL     1      -2.332  -0.149   0.608  0.00  0.00    -0.189 NA
ATOM     13  S   UNL     1      -3.258  -0.552  -0.644  0.00  0.00    +0.117 S 
ATOM     14  N   UNL     1      -2.261  -1.445  -1.536  0.00  0.00    -0.191 NA
ENDBRANCH   1  11
BRANCH   2  15
ATOM     15  C   UNL     1      -0.463   0.210   4.808  0.00  0.00    +0.234 C 
BRANCH  15  16
ATOM     16  C   UNL     1      -1.559   1.236   4.674  0.00  0.00    -0.010 A 
ATOM     17  C   UNL     1      -2.869   0.886   4.943  0.00  0.00    +0.008 A 
ATOM     18  C   UNL     1      -3.874   1.827   4.820  0.00  0.00    +0.020 A 
ATOM     19  C   UNL     1      -3.569   3.119   4.429  0.00  0.00    +0.041 A 
ATOM     20  C   UNL     1      -2.258   3.468   4.161  0.00  0.00    +0.020 A 
ATOM     21  C   UNL     1      -1.252   2.528   4.289  0.00  0.00    +0.008 A 
ATOM     22 CL   UNL     1      -4.831   4.301   4.275  0.00  0.00    -0.084 Cl
ENDBRANCH  15  16
BRANCH  15  23
ATOM     23  O   UNL     1      -0.767  -0.673   5.890  0.00  0.00    -0.366 OA
ATOM     24  C   UNL     1      -0.253  -0.244   7.152  0.00  0.00    +0.195 C 
ENDBRANCH  15  23
ENDBRANCH   2  15
TORSDOF 4
