REMARK  Name = ZINC17681173
REMARK  6 active torsions:
REMARK  status: ('A' for Active; 'I' for Inactive)
REMARK    1  A    between atoms: C_1  and  N_2
REMARK    2  A    between atoms: N_2  and  C_3
REMARK    3  A    between atoms: C_6  and  O_25
REMARK    4  A    between atoms: C_7  and  C_9
REMARK    5  A    between atoms: N_10  and  N_11
REMARK    6  A    between atoms: O_25  and  C_26
REMARK                            x       y       z     vdW  Elec       q    Type
REMARK                         _______ _______ _______ _____ _____    ______ ____
ROOT
ATOM      1  N   UNL     1      -3.348   2.996   0.035  0.00  0.00    -0.149 NA
ATOM      2  C   UNL     1      -4.580   2.521   0.040  0.00  0.00    +0.102 C 
ATOM      3  C   UNL     1      -4.971   1.099   0.028  0.00  0.00    +0.010 A 
ATOM      4  C   UNL     1      -4.226  -0.080   0.011  0.00  0.00    +0.011 A 
ATOM      5  C   UNL     1      -4.870  -1.300   0.003  0.00  0.00    +0.001 A 
ATOM      6  C   UNL     1      -6.255  -1.361   0.012  0.00  0.00    +0.001 A 
ATOM      7  C   UNL     1      -7.009  -0.206   0.036  0.00  0.00    +0.009 A 
ATOM      8  C   UNL     1      -6.378   1.038   0.040  0.00  0.00    -0.008 A 
ATOM      9  C   UNL     1      -6.908   2.416   0.051  0.00  0.00    -0.008 A 
ATOM     10  C   UNL     1      -5.824   3.314   0.050  0.00  0.00    +0.010 A 
ATOM     11  C   UNL     1      -6.062   4.688   0.059  0.00  0.00    +0.011 A 
ATOM     12  C   UNL     1      -7.358   5.161   0.069  0.00  0.00    +0.001 A 
ATOM     13  C   UNL     1      -8.426   4.278   0.069  0.00  0.00    +0.001 A 
ATOM     14  C   UNL     1      -8.210   2.915   0.060  0.00  0.00    +0.009 A 
ENDROOT
BRANCH   1  16
ATOM     15  C   UNL     1      -1.109   2.661   0.022  0.00  0.00    +0.155 C 
ATOM     16  N   UNL     1      -2.345   2.185   0.026  0.00  0.00    -0.156 NA
BRANCH  15  23
ATOM     17  C   UNL     1       3.912  -1.337  -0.043  0.00  0.00    +0.131 C 
ATOM     18  N   UNL     1       2.448  -1.381  -0.029  0.00  0.00    -0.316 N 
ATOM     19  C   UNL     1       1.754  -2.671  -0.030  0.00  0.00    +0.131 C 
ATOM     20  C   UNL     1       1.726  -0.211  -0.016  0.00  0.00    +0.165 A 
ATOM     21  N   UNL     1       2.173   1.037  -0.013  0.00  0.00    -0.190 NA
ATOM     22  C   UNL     1       1.358   2.060   0.000  0.00  0.00    +0.232 A 
ATOM     23  C   UNL     1      -0.022   1.783   0.012  0.00  0.00    +0.097 A 
ATOM     24  S   UNL     1       0.002  -0.004   0.002  0.00  0.00    -0.047 S 
BRANCH  22  25
ATOM     25  O   UNL     1       1.822   3.333   0.002  0.00  0.00    -0.479 OA
ATOM     26  C   UNL     1       3.241   3.506  -0.011  0.00  0.00    +0.279 C 
ENDBRANCH  22  25
ENDBRANCH  15  23
ENDBRANCH   1  16
TORSDOF 3
