REMARK  Name = ZINC20532226
REMARK  8 active torsions:
REMARK  status: ('A' for Active; 'I' for Inactive)
REMARK    1  A    between atoms: C_1  and  C_2
REMARK    2  A    between atoms: C_2  and  C_3
REMARK    3  A    between atoms: C_3  and  C_5
REMARK    4  A    between atoms: C_3  and  N_21
REMARK    5  A    between atoms: C_9  and  N_10
REMARK    6  A    between atoms: N_16  and  C_19
REMARK    7  A    between atoms: C_19  and  C_20
REMARK    8  A    between atoms: N_24  and  C_25
REMARK                            x       y       z     vdW  Elec       q    Type
REMARK                         _______ _______ _______ _____ _____    ______ ____
ROOT
ATOM      1  C   UNL     1      -3.087  -3.445  -0.390  0.00  0.00    +0.107 C 
ENDROOT
BRANCH   1   2
ATOM      2  C   UNL     1      -4.508  -3.885  -0.634  0.00  0.00    +0.007 A 
ATOM      3  C   UNL     1      -4.768  -4.985  -1.449  0.00  0.00    -0.034 A 
ATOM      4  C   UNL     1      -6.076  -5.321  -1.624  0.00  0.00    -0.021 A 
ATOM      5  S   UNL     1      -6.955  -4.122  -0.661  0.00  0.00    -0.077 S 
ATOM      6  C   UNL     1      -5.539  -3.214  -0.056  0.00  0.00    +0.090 A 
ATOM      7  C   UNL     1      -6.609  -6.447  -2.447  0.00  0.00    -0.035 C 
ATOM      8  N   UNL     1      -5.525  -6.931  -3.323  0.00  0.00    +0.383 N 
ATOM      9  C   UNL     1      -4.294  -7.151  -2.551  0.00  0.00    -0.074 C 
ATOM     10  C   UNL     1      -3.683  -5.811  -2.135  0.00  0.00    +0.018 C 
ATOM     11  H   UNL     1      -5.319  -6.159  -4.080  0.00  0.00    -0.081 HD
BRANCH   6  12
ATOM     12  N   UNL     1      -5.502  -2.101   0.791  0.00  0.00    -0.317 N 
ATOM     13  C   UNL     1      -4.375  -1.540   1.319  0.00  0.00    +0.092 A 
ATOM     14  C   UNL     1      -4.744  -0.487   2.079  0.00  0.00    +0.019 A 
ATOM     15  C   UNL     1      -6.150  -0.401   2.026  0.00  0.00    +0.019 A 
ATOM     16  C   UNL     1      -6.587  -1.399   1.232  0.00  0.00    +0.092 A 
ENDBRANCH   6  12
BRANCH   8  17
ATOM     17  C   UNL     1      -5.927  -8.153  -4.033  0.00  0.00    -0.082 C 
ATOM     18  C   UNL     1      -6.115  -9.289  -3.026  0.00  0.00    -0.017 C 
ENDBRANCH   8  17
ENDBRANCH   1   2
BRANCH   1  19
ATOM     19  N   UNL     1      -2.981  -1.999  -0.604  0.00  0.00    -0.292 N 
ATOM     20  C   UNL     1      -1.788  -1.449  -0.906  0.00  0.00    +0.301 C 
ATOM     21  O   UNL     1      -0.801  -2.152  -1.001  0.00  0.00    -0.253 OA
ATOM     22  N   UNL     1      -1.690  -0.119  -1.103  0.00  0.00    -0.294 N 
ATOM     23  H   UNL     1      -3.874  -1.363  -0.518  0.00  0.00    +0.151 HD
ATOM     24  H   UNL     1      -2.584   0.517  -1.017  0.00  0.00    +0.151 HD
BRANCH  22  25
ATOM     25  C   UNL     1      -0.394   0.479  -1.431  0.00  0.00    +0.037 C 
ATOM     26  C   UNL     1      -0.559   1.991  -1.602  0.00  0.00    +0.029 C 
ATOM     27  C   UNL     1       0.795   2.616  -1.945  0.00  0.00    -0.008 C 
ATOM     28  C   UNL     1       1.321   2.010  -3.247  0.00  0.00    +0.007 C 
ATOM     29  C   UNL     1       1.486   0.498  -3.077  0.00  0.00    -0.008 C 
ATOM     30  C   UNL     1       0.132  -0.127  -2.734  0.00  0.00    +0.029 C 
ATOM     31  C   UNL     1       2.478   0.218  -1.946  0.00  0.00    +0.007 C 
ATOM     32  C   UNL     1       1.952   0.824  -0.644  0.00  0.00    -0.008 C 
ATOM     33  C   UNL     1       1.787   2.335  -0.815  0.00  0.00    +0.007 C 
ATOM     34  C   UNL     1       0.598   0.199  -0.301  0.00  0.00    +0.029 C 
ENDBRANCH  22  25
ENDBRANCH   1  19
BRANCH   1  36
ATOM     35  C   UNL     1      -1.212  -3.445   1.261  0.00  0.00    +0.006 C 
ATOM     36  C   UNL     1      -2.690  -3.778   1.049  0.00  0.00    +0.024 C 
ENDBRANCH   1  36
TORSDOF 6
