REMARK  Name = ZINC29192264
REMARK  7 active torsions:
REMARK  status: ('A' for Active; 'I' for Inactive)
REMARK    1  A    between atoms: C_1  and  C_2
REMARK    2  A    between atoms: C_15  and  C_17
REMARK    3  A    between atoms: C_17  and  C_19
REMARK    4  A    between atoms: C_17  and  N_20
REMARK    5  A    between atoms: C_23  and  C_26
REMARK    6  A    between atoms: N_28  and  C_29
REMARK    7  A    between atoms: C_29  and  C_30
REMARK                            x       y       z     vdW  Elec       q    Type
REMARK                         _______ _______ _______ _____ _____    ______ ____
ROOT
ATOM      1  C   UNL     1      -4.152  -3.584   1.445  0.00  0.00    -0.004 C 
ATOM      2  C   UNL     1      -5.423  -3.599   0.594  0.00  0.00    -0.005 C 
ENDROOT
BRANCH   1  16
ATOM      3  C   UNL     1      -5.966  -2.130  11.127  0.00  0.00    +0.008 C 
ATOM      4  C   UNL     1      -5.529  -2.033   9.664  0.00  0.00    -0.009 C 
ATOM      5  C   UNL     1      -6.704  -1.563   8.803  0.00  0.00    +0.008 C 
ATOM      6  C   UNL     1      -6.215  -1.226   7.395  0.00  0.00    +0.037 C 
ATOM      7  C   UNL     1      -5.435  -2.417   6.844  0.00  0.00    -0.023 A 
ATOM      8  C   UNL     1      -4.949  -3.366   7.678  0.00  0.00    -0.004 A 
ATOM      9  S   UNL     1      -4.130  -4.535   6.624  0.00  0.00    -0.073 S 
ATOM     10  C   UNL     1      -4.439  -3.752   5.073  0.00  0.00    +0.116 A 
ATOM     11  C   UNL     1      -5.174  -2.600   5.428  0.00  0.00    +0.075 A 
ATOM     12  C   UNL     1      -5.583  -1.733   4.359  0.00  0.00    +0.260 A 
ATOM     13  O   UNL     1      -6.221  -0.714   4.558  0.00  0.00    -0.267 OA
ATOM     14  N   UNL     1      -5.215  -2.122   3.114  0.00  0.00    -0.312 N 
ATOM     15  H   UNL     1      -5.492  -1.510   2.243  0.00  0.00    +0.170 HD
ATOM     16  C   UNL     1      -4.507  -3.250   2.871  0.00  0.00    +0.097 A 
ATOM     17  N   UNL     1      -4.114  -4.068   3.823  0.00  0.00    -0.228 NA
ATOM     18  C   UNL     1      -5.078  -3.415   9.169  0.00  0.00    +0.046 C 
ENDBRANCH   1  16
BRANCH   1  19
ATOM     19  N   UNL     1      -3.514  -4.906   1.395  0.00  0.00    +0.386 N 
ATOM     20  C   UNL     1      -2.851  -5.122   0.103  0.00  0.00    -0.077 C 
ATOM     21  C   UNL     1      -2.077  -6.441   0.139  0.00  0.00    -0.006 C 
ATOM     22  C   UNL     1      -3.047  -7.589   0.435  0.00  0.00    +0.071 C 
ATOM     23  C   UNL     1      -3.759  -7.315   1.763  0.00  0.00    -0.006 C 
ATOM     24  C   UNL     1      -4.484  -5.970   1.679  0.00  0.00    -0.077 C 
ATOM     25  H   UNL     1      -2.741  -4.939   2.178  0.00  0.00    -0.081 HD
BRANCH  22  26
ATOM     26  C   UNL     1      -2.282  -8.883   0.531  0.00  0.00    +0.216 C 
ATOM     27  O   UNL     1      -2.303  -9.525   1.560  0.00  0.00    -0.276 OA
ATOM     28  N   UNL     1      -1.574  -9.328  -0.526  0.00  0.00    -0.311 N 
ATOM     29  H   UNL     1      -1.555  -8.746  -1.459  0.00  0.00    +0.149 HD
BRANCH  28  30
ATOM     30  C   UNL     1      -0.830 -10.586  -0.432  0.00  0.00    +0.139 C 
BRANCH  30  31
ATOM     31  C   UNL     1      -0.130 -10.855  -1.739  0.00  0.00    -0.030 A 
ATOM     32  C   UNL     1      -0.767 -11.580  -2.729  0.00  0.00    +0.005 A 
ATOM     33  C   UNL     1      -0.127 -11.821  -3.930  0.00  0.00    +0.000 A 
ATOM     34  C   UNL     1       1.155 -11.347  -4.137  0.00  0.00    +0.000 A 
ATOM     35  C   UNL     1       1.795 -10.627  -3.146  0.00  0.00    +0.000 A 
ATOM     36  C   UNL     1       1.152 -10.380  -1.947  0.00  0.00    +0.005 A 
ENDBRANCH  30  31
ENDBRANCH  28  30
ENDBRANCH  22  26
ENDBRANCH   1  19
TORSDOF 5
