REMARK  Name = ZINC02376412
REMARK  7 active torsions:
REMARK  status: ('A' for Active; 'I' for Inactive)
REMARK    1  A    between atoms: C_1  and  C_2
REMARK    2  A    between atoms: C_4  and  C_32
REMARK    3  A    between atoms: C_6  and  N_8
REMARK    4  A    between atoms: C_9  and  C_11
REMARK    5  A    between atoms: N_22  and  N_25
REMARK    6  A    between atoms: C_23  and  N_24
REMARK    7  A    between atoms: C_26  and  C_27
REMARK                            x       y       z     vdW  Elec       q    Type
REMARK                         _______ _______ _______ _____ _____    ______ ____
ROOT
ATOM      1  C   UNL     1       1.345   3.334  -0.005  0.00  0.00    +0.105 A 
ATOM      2  C   UNL     1       1.004   1.911   0.154  0.00  0.00    +0.124 A 
ATOM      3  C   UNL     1       2.276   1.191   0.044  0.00  0.00    +0.183 A 
ATOM      4  N   UNL     1       2.288  -0.121   0.148  0.00  0.00    -0.224 NA
ATOM      5  C   UNL     1       1.143  -0.784   0.351  0.00  0.00    +0.092 A 
ATOM      6  C   UNL     1       1.147  -2.187   0.463  0.00  0.00    +0.030 A 
ATOM      7  C   UNL     1      -0.021  -2.853   0.670  0.00  0.00    +0.002 A 
ATOM      8  C   UNL     1      -1.229  -2.167   0.774  0.00  0.00    +0.002 A 
ATOM      9  C   UNL     1      -1.273  -0.811   0.671  0.00  0.00    +0.030 A 
ATOM     10  C   UNL     1      -0.086  -0.086   0.457  0.00  0.00    +0.090 A 
ATOM     11  N   UNL     1      -0.117   1.248   0.355  0.00  0.00    -0.241 NA
ATOM     12  N   UNL     1       3.259   2.139  -0.161  0.00  0.00    -0.198 N 
ATOM     13  C   UNL     1       2.723   3.391  -0.191  0.00  0.00    +0.134 A 
ENDROOT
BRANCH   1  15
ATOM     14  N   UNL     1       0.171   5.045   1.192  0.00  0.00    -0.281 N 
ATOM     15  C   UNL     1       0.447   4.431   0.024  0.00  0.00    +0.254 C 
ATOM     16  O   UNL     1      -0.076   4.818  -1.006  0.00  0.00    -0.270 OA
ATOM     17  H   UNL     1       0.526   4.690   2.022  0.00  0.00    +0.155 HD
BRANCH  14  23
ATOM     18  C   UNL     1      -3.170   7.848   3.461  0.00  0.00    +0.044 C 
ATOM     19  C   UNL     1      -2.256   7.577   2.293  0.00  0.00    -0.048 A 
ATOM     20  C   UNL     1      -2.206   8.465   1.235  0.00  0.00    +0.006 A 
ATOM     21  C   UNL     1      -1.369   8.221   0.162  0.00  0.00    -0.048 A 
ATOM     22  C   UNL     1      -0.579   7.088   0.145  0.00  0.00    +0.026 A 
ATOM     23  C   UNL     1      -0.627   6.193   1.206  0.00  0.00    +0.034 A 
ATOM     24  C   UNL     1      -1.474   6.439   2.279  0.00  0.00    +0.026 A 
ATOM     25  C   UNL     1      -1.317   9.192  -0.989  0.00  0.00    +0.044 C 
ENDBRANCH  14  23
ENDBRANCH   1  15
BRANCH  13  26
ATOM     26  N   UNL     1       3.440   4.546  -0.377  0.00  0.00    -0.342 N 
ATOM     27  H   UNL     1       4.402   4.505  -0.500  0.00  0.00    +0.144 HD
ATOM     28  H   UNL     1       2.986   5.403  -0.386  0.00  0.00    +0.144 HD
ENDBRANCH  13  26
BRANCH  12  29
ATOM     29  N   UNL     1       4.622   1.853  -0.317  0.00  0.00    -0.171 NA
ATOM     30  C   UNL     1       5.108   1.631  -1.503  0.00  0.00    +0.148 C 
BRANCH  30  31
ATOM     31  C   UNL     1       6.534   1.331  -1.667  0.00  0.00    +0.032 A 
ATOM     32  C   UNL     1       7.243   1.067  -2.826  0.00  0.00    +0.017 A 
ATOM     33  C   UNL     1       8.590   0.811  -2.724  0.00  0.00    +0.008 A 
ATOM     34  C   UNL     1       9.179   0.825  -1.500  0.00  0.00    +0.046 A 
ATOM     35  S   UNL     1       7.810   1.217  -0.423  0.00  0.00    -0.096 S 
ENDBRANCH  30  31
ENDBRANCH  12  29
TORSDOF 5
