REMARK  Name = ZINC50182681
REMARK  7 active torsions:
REMARK  status: ('A' for Active; 'I' for Inactive)
REMARK    1  A    between atoms: C_1  and  C_2
REMARK    2  A    between atoms: C_3  and  C_8
REMARK    3  A    between atoms: C_8  and  C_9
REMARK    4  A    between atoms: C_9  and  C_10
REMARK    5  A    between atoms: C_10  and  N_11
REMARK    6  A    between atoms: N_11  and  C_12
REMARK    7  A    between atoms: C_14  and  C_16
REMARK                            x       y       z     vdW  Elec       q    Type
REMARK                         _______ _______ _______ _____ _____    ______ ____
ROOT
ATOM      1  N   UNL     1       2.785   0.735  -4.868  0.00  0.00    +0.381 N 
ATOM      2  H   UNL     1       3.179   1.456  -4.282  0.00  0.00    -0.086 HD
ATOM      3  H   UNL     1       3.343  -0.102  -4.794  0.00  0.00    -0.086 HD
ENDROOT
BRANCH   1   4
ATOM      4  C   UNL     1       2.771   1.193  -6.264  0.00  0.00    -0.071 C 
ATOM      5  C   UNL     1       2.844   0.048  -7.288  0.00  0.00    -0.008 C 
ATOM      6  C   UNL     1       3.790   0.944  -8.105  0.00  0.00    +0.016 C 
ATOM      7  C   UNL     1       4.150   1.637  -6.780  0.00  0.00    -0.008 C 
BRANCH   6   8
ATOM      8  C   UNL     1       4.941   0.196  -8.727  0.00  0.00    -0.044 A 
ATOM      9  C   UNL     1       5.834  -0.490  -7.926  0.00  0.00    +0.005 A 
ATOM     10  C   UNL     1       6.890  -1.176  -8.496  0.00  0.00    +0.015 A 
ATOM     11  C   UNL     1       7.053  -1.175  -9.870  0.00  0.00    +0.018 A 
ATOM     12  C   UNL     1       6.160  -0.488 -10.672  0.00  0.00    +0.015 A 
ATOM     13  C   UNL     1       5.101   0.193 -10.101  0.00  0.00    +0.005 A 
ATOM     14 BR   UNL     1       8.498  -2.113 -10.651  0.00  0.00    -0.050 Br
ENDBRANCH   6   8
ENDBRANCH   1   4
BRANCH   1  15
ATOM     15  C   UNL     1       1.411   0.449  -4.434  0.00  0.00    -0.082 C 
BRANCH  15  16
ATOM     16  C   UNL     1       1.425  -0.028  -2.980  0.00  0.00    -0.014 C 
BRANCH  16  17
ATOM     17  C   UNL     1      -0.006  -0.327  -2.527  0.00  0.00    +0.036 C 
BRANCH  17  20
ATOM     18  C   UNL     1      -0.018   1.503   0.010  0.00  0.00    +0.065 C 
ATOM     19  C   UNL     1       0.002  -0.004   0.002  0.00  0.00    +0.036 A 
ATOM     20  C   UNL     1       0.008  -0.796  -1.095  0.00  0.00    -0.007 A 
ATOM     21  C   UNL     1       0.028  -2.127  -0.666  0.00  0.00    +0.138 A 
ATOM     22  N   UNL     1       0.035  -2.134   0.643  0.00  0.00    -0.182 NA
ATOM     23  N   UNL     1       0.024  -0.805   1.088  0.00  0.00    -0.282 N 
ATOM     24  H   UNL     1       0.029  -0.513   2.013  0.00  0.00    +0.189 HD
ENDBRANCH  17  20
ENDBRANCH  16  17
ENDBRANCH  15  16
ENDBRANCH   1  15
TORSDOF 6
