REMARK  Name = ZINC39945318
REMARK  8 active torsions:
REMARK  status: ('A' for Active; 'I' for Inactive)
REMARK    1  A    between atoms: C_1  and  C_2
REMARK    2  A    between atoms: C_4  and  C_12
REMARK    3  A    between atoms: C_12  and  C_14
REMARK    4  A    between atoms: C_14  and  C_16
REMARK    5  A    between atoms: C_14  and  O_17
REMARK    6  A    between atoms: O_17  and  C_18
REMARK    7  A    between atoms: C_18  and  C_20
REMARK    8  A    between atoms: C_34  and  C_35
REMARK                            x       y       z     vdW  Elec       q    Type
REMARK                         _______ _______ _______ _____ _____    ______ ____
ROOT
ATOM      1  C   UNL     1      -6.653  -4.046  -3.659  0.00  0.00    +0.073 A 
ATOM      2  C   UNL     1      -5.938  -4.525  -4.843  0.00  0.00    +0.015 A 
ATOM      3  C   UNL     1      -4.826  -5.365  -4.736  0.00  0.00    +0.011 A 
ATOM      4  C   UNL     1      -4.190  -5.790  -5.866  0.00  0.00    +0.001 A 
ATOM      5  C   UNL     1      -4.636  -5.397  -7.125  0.00  0.00    +0.002 A 
ATOM      6  C   UNL     1      -5.715  -4.580  -7.265  0.00  0.00    +0.028 A 
ATOM      7  C   UNL     1      -6.396  -4.121  -6.122  0.00  0.00    +0.072 A 
ATOM      8  N   UNL     1      -7.455  -3.319  -6.227  0.00  0.00    -0.247 NA
ATOM      9  C   UNL     1      -8.118  -2.871  -5.172  0.00  0.00    +0.072 A 
ATOM     10  C   UNL     1      -7.752  -3.222  -3.859  0.00  0.00    -0.007 A 
ATOM     11  C   UNL     1      -8.518  -2.731  -2.662  0.00  0.00    +0.038 C 
ATOM     12  C   UNL     1      -9.302  -1.463  -2.989  0.00  0.00    +0.009 C 
ATOM     13  C   UNL     1     -10.194  -1.719  -4.211  0.00  0.00    +0.037 C 
ATOM     14  C   UNL     1      -9.277  -1.980  -5.389  0.00  0.00    -0.021 C 
ATOM     15  C   UNL     1      -9.518  -1.433  -6.599  0.00  0.00    +0.020 C 
ENDROOT
BRANCH  15  16
ATOM     16  C   UNL     1     -10.790  -0.754  -6.854  0.00  0.00    +0.013 A 
ATOM     17  C   UNL     1     -11.182  -0.020  -7.963  0.00  0.00    +0.015 A 
ATOM     18  C   UNL     1     -12.441   0.527  -7.971  0.00  0.00    +0.008 A 
ATOM     19  C   UNL     1     -13.258   0.335  -6.900  0.00  0.00    +0.046 A 
ATOM     20  S   UNL     1     -12.243  -0.661  -5.821  0.00  0.00    -0.097 S 
ENDBRANCH  15  16
BRANCH   1  21
ATOM     21  C   UNL     1      -6.222  -4.430  -2.298  0.00  0.00    +0.341 C 
ATOM     22  O   UNL     1      -6.671  -5.433  -1.780  0.00  0.00    -0.245 OA
BRANCH  21  23
ATOM     23  O   UNL     1      -5.333  -3.668  -1.633  0.00  0.00    -0.450 OA
BRANCH  23  24
ATOM     24  C   UNL     1      -4.962  -4.099  -0.322  0.00  0.00    +0.244 C 
ATOM     25  C   UNL     1      -5.910  -3.480   0.706  0.00  0.00    +0.061 C 
BRANCH  24  26
ATOM     26  C   UNL     1      -3.549  -3.661  -0.030  0.00  0.00    +0.202 C 
ATOM     27  O   UNL     1      -3.013  -2.831  -0.736  0.00  0.00    -0.288 OA
BRANCH  26  30
ATOM     28  C   UNL     1      -1.263  -2.446   1.819  0.00  0.00    +0.035 C 
ATOM     29  C   UNL     1      -1.424  -3.928   1.478  0.00  0.00    +0.111 C 
ATOM     30  C   UNL     1      -2.850  -4.215   1.063  0.00  0.00    +0.030 C 
ATOM     31  C   UNL     1      -3.326  -5.136   1.980  0.00  0.00    +0.007 A 
ATOM     32  C   UNL     1      -4.572  -5.787   2.132  0.00  0.00    +0.010 A 
ATOM     33  C   UNL     1      -4.766  -6.661   3.145  0.00  0.00    +0.001 A 
ATOM     34  C   UNL     1      -3.764  -6.963   4.082  0.00  0.00    +0.002 A 
ATOM     35  C   UNL     1      -2.540  -6.396   4.026  0.00  0.00    +0.026 A 
ATOM     36  C   UNL     1      -2.245  -5.433   2.953  0.00  0.00    +0.043 A 
ATOM     37  N   UNL     1      -1.172  -4.750   2.666  0.00  0.00    -0.377 N 
ATOM     38  H   UNL     1      -0.338  -4.780   3.161  0.00  0.00    +0.160 HD
ENDBRANCH  26  30
ENDBRANCH  24  26
ENDBRANCH  23  24
ENDBRANCH  21  23
ENDBRANCH   1  21
TORSDOF 6
