REMARK  Name = ZINC02305073
REMARK  8 active torsions:
REMARK  status: ('A' for Active; 'I' for Inactive)
REMARK    1  A    between atoms: C_1  and  O_2
REMARK    2  A    between atoms: O_2  and  C_3
REMARK    3  A    between atoms: C_3  and  C_4
REMARK    4  A    between atoms: C_4  and  N_5
REMARK    5  A    between atoms: N_5  and  C_6
REMARK    6  A    between atoms: C_7  and  C_17
REMARK    7  A    between atoms: N_21  and  C_25
REMARK    8  A    between atoms: C_25  and  C_26
REMARK                            x       y       z     vdW  Elec       q    Type
REMARK                         _______ _______ _______ _____ _____    ______ ____
ROOT
ATOM      1  C   UNL     1      -6.305  -1.716   5.691  0.00  0.00    +0.134 A 
ATOM      2  C   UNL     1      -5.428  -0.841   5.007  0.00  0.00    +0.081 A 
ATOM      3  C   UNL     1      -5.675  -0.579   3.638  0.00  0.00    +0.267 A 
ATOM      4  O   UNL     1      -4.948   0.172   3.010  0.00  0.00    -0.267 OA
ATOM      5  N   UNL     1      -6.727  -1.177   3.038  0.00  0.00    -0.268 N 
ATOM      6  C   UNL     1      -6.968  -0.934   1.719  0.00  0.00    +0.096 A 
ATOM      7  C   UNL     1      -8.015  -1.513   1.089  0.00  0.00    +0.018 A 
ATOM      8  C   UNL     1      -8.869  -2.375   1.791  0.00  0.00    +0.005 A 
ATOM      9  C   UNL     1      -8.635  -2.625   3.111  0.00  0.00    +0.047 A 
ATOM     10  C   UNL     1      -7.541  -2.014   3.749  0.00  0.00    +0.142 A 
ATOM     11  N   UNL     1      -7.321  -2.264   5.040  0.00  0.00    -0.214 NA
ENDROOT
BRANCH   2  12
ATOM     12  C   UNL     1      -4.336  -0.240   5.675  0.00  0.00    +0.037 C 
ATOM     13  C   UNL     1      -3.058  -0.570   5.327  0.00  0.00    +0.077 C 
ATOM     14  C   UNL     1      -2.595  -1.550   4.404  0.00  0.00    +0.258 C 
ATOM     15  O   UNL     1      -3.379  -2.248   3.785  0.00  0.00    -0.269 OA
ATOM     16  N   UNL     1      -1.290  -1.685   4.241  0.00  0.00    -0.253 N 
ATOM     17  C   UNL     1      -0.421  -0.907   4.924  0.00  0.00    +0.121 C 
ATOM     18  S   UNL     1       1.290  -0.903   4.866  0.00  0.00    -0.027 S 
ATOM     19  S   UNL     1      -1.511   0.116   5.902  0.00  0.00    -0.061 S 
BRANCH  16  20
ATOM     20  C   UNL     1      -0.780  -2.687   3.302  0.00  0.00    +0.146 C 
BRANCH  20  21
ATOM     21  C   UNL     1      -0.564  -4.011   4.037  0.00  0.00    +0.136 C 
ATOM     22  C   UNL     1      -0.025  -5.084   3.065  0.00  0.00    +0.035 C 
ATOM     23  C   UNL     1       0.980  -5.892   3.917  0.00  0.00    +0.031 C 
ATOM     24  C   UNL     1       0.928  -5.211   5.303  0.00  0.00    +0.160 C 
ATOM     25  O   UNL     1       0.469  -3.868   5.040  0.00  0.00    -0.375 OA
ENDBRANCH  20  21
ENDBRANCH  16  20
ENDBRANCH   2  12
BRANCH   1  26
ATOM     26  N   UNL     1      -6.104  -1.995   7.025  0.00  0.00    -0.326 N 
ATOM     27  H   UNL     1      -5.360  -1.592   7.499  0.00  0.00    +0.148 HD
BRANCH  26  28
ATOM     28  C   UNL     1      -7.015  -2.901   7.729  0.00  0.00    +0.131 C 
BRANCH  28  29
ATOM     29  C   UNL     1      -6.572  -3.039   9.187  0.00  0.00    +0.178 C 
BRANCH  29  31
ATOM     30  C   UNL     1      -6.317  -1.799  11.222  0.00  0.00    +0.194 C 
ATOM     31  O   UNL     1      -6.707  -1.780   9.847  0.00  0.00    -0.381 OA
ENDBRANCH  29  31
ENDBRANCH  28  29
ENDBRANCH  26  28
ENDBRANCH   1  26
TORSDOF 7
