REMARK  Name = ZINC02731399
REMARK  5 active torsions:
REMARK  status: ('A' for Active; 'I' for Inactive)
REMARK    1  A    between atoms: C_1  and  C_2
REMARK    2  A    between atoms: C_4  and  C_8
REMARK    3  A    between atoms: N_5  and  C_7
REMARK    4  A    between atoms: N_17  and  C_19
REMARK    5  A    between atoms: C_19  and  C_20
REMARK                            x       y       z     vdW  Elec       q    Type
REMARK                         _______ _______ _______ _____ _____    ______ ____
ROOT
ATOM      1  C   UNL     1       5.894  -2.480  -0.066  0.00  0.00    +0.153 A 
ATOM      2  N   UNL     1       4.576  -2.647  -0.054  0.00  0.00    -0.138 NA
ATOM      3  N   UNL     1       3.781  -1.669  -0.036  0.00  0.00    -0.125 NA
ATOM      4  C   UNL     1       4.213  -0.413  -0.040  0.00  0.00    +0.187 A 
ATOM      5  S   UNL     1       5.982  -0.692  -0.057  0.00  0.00    -0.029 S 
ATOM      6  N   UNL     1       3.499   0.775  -0.027  0.00  0.00    -0.276 N 
ATOM      7  C   UNL     1       2.099   0.750  -0.014  0.00  0.00    +0.146 A 
ATOM      8  C   UNL     1       1.295  -0.402  -0.013  0.00  0.00    +0.065 A 
ATOM      9  C   UNL     1       0.002  -0.004   0.002  0.00  0.00    +0.110 A 
ATOM     10  N   UNL     1      -0.016   1.345   0.009  0.00  0.00    -0.265 N 
ATOM     11  N   UNL     1       1.310   1.798  -0.001  0.00  0.00    -0.156 NA
ATOM     12  H   UNL     1       3.969   1.623  -0.027  0.00  0.00    +0.156 HD
ENDROOT
BRANCH   1  16
ATOM     13  C   UNL     1      10.489  -4.640  -0.120  0.00  0.00    +0.069 C 
ATOM     14  C   UNL     1       8.994  -4.450  -0.105  0.00  0.00    +0.079 A 
ATOM     15  C   UNL     1       8.331  -3.223  -0.092  0.00  0.00    +0.091 A 
ATOM     16  C   UNL     1       6.975  -3.480  -0.081  0.00  0.00    +0.114 A 
ATOM     17  N   UNL     1       6.825  -4.838  -0.081  0.00  0.00    -0.263 N 
ATOM     18  N   UNL     1       8.103  -5.409  -0.102  0.00  0.00    -0.175 NA
ATOM     19  C   UNL     1       5.554  -5.566  -0.066  0.00  0.00    +0.173 C 
ATOM     20 CL   UNL     1       9.076  -1.655  -0.092  0.00  0.00    -0.079 Cl
ENDBRANCH   1  16
BRANCH  10  21
ATOM     21  C   UNL     1      -1.213   2.190   0.020  0.00  0.00    +0.180 C 
BRANCH  21  22
ATOM     22  C   UNL     1      -1.149   3.139   1.189  0.00  0.00    -0.008 A 
ATOM     23  C   UNL     1      -0.749   4.448   0.995  0.00  0.00    +0.007 A 
ATOM     24  C   UNL     1      -0.689   5.319   2.067  0.00  0.00    +0.000 A 
ATOM     25  C   UNL     1      -1.029   4.881   3.333  0.00  0.00    +0.001 A 
ATOM     26  C   UNL     1      -1.429   3.573   3.528  0.00  0.00    +0.020 A 
ATOM     27  C   UNL     1      -1.494   2.702   2.455  0.00  0.00    +0.046 A 
ATOM     28 CL   UNL     1      -2.004   1.060   2.698  0.00  0.00    -0.083 Cl
ENDBRANCH  21  22
ENDBRANCH  10  21
TORSDOF 3
