REMARK  Name = ZINC17130659
REMARK  7 active torsions:
REMARK  status: ('A' for Active; 'I' for Inactive)
REMARK    1  A    between atoms: C_10  and  N_11
REMARK    2  A    between atoms: N_13  and  C_34
REMARK    3  A    between atoms: C_14  and  C_17
REMARK    4  A    between atoms: C_21  and  N_23
REMARK    5  A    between atoms: C_34  and  C_35
REMARK    6  A    between atoms: C_35  and  C_36
REMARK    7  A    between atoms: C_36  and  O_37
REMARK                            x       y       z     vdW  Elec       q    Type
REMARK                         _______ _______ _______ _____ _____    ______ ____
ROOT
ATOM      1  N   UNL     1       9.828   4.793   0.458  0.00  0.00    -0.335 N 
ATOM      2  C   UNL     1       8.554   4.573   0.184  0.00  0.00    +0.152 A 
ATOM      3  N   UNL     1       7.941   3.413  -0.226  0.00  0.00    -0.321 N 
ATOM      4  C   UNL     1       6.592   3.427  -0.451  0.00  0.00    +0.058 A 
ATOM      5  C   UNL     1       5.898   4.570  -0.273  0.00  0.00    +0.075 A 
ATOM      6  S   UNL     1       7.174   5.705   0.249  0.00  0.00    -0.059 S 
ATOM      7  H   UNL     1      10.178   5.815   0.663  0.00  0.00    +0.168 HD
ENDROOT
BRANCH   1  17
ATOM      8  C   UNL     1      11.364   1.495   4.005  0.00  0.00    +0.001 A 
ATOM      9  C   UNL     1      10.456   2.551   4.016  0.00  0.00    +0.001 A 
ATOM     10  C   UNL     1      10.229   3.291   2.893  0.00  0.00    +0.010 A 
ATOM     11  C   UNL     1      10.918   2.987   1.713  0.00  0.00    +0.005 A 
ATOM     12  C   UNL     1      11.839   1.911   1.697  0.00  0.00    -0.016 A 
ATOM     13  C   UNL     1      12.044   1.166   2.872  0.00  0.00    +0.008 A 
ATOM     14  C   UNL     1      12.532   1.612   0.512  0.00  0.00    +0.008 A 
ATOM     15  C   UNL     1      12.324   2.343  -0.618  0.00  0.00    +0.003 A 
ATOM     16  C   UNL     1      11.428   3.402  -0.650  0.00  0.00    +0.026 A 
ATOM     17  C   UNL     1      10.707   3.753   0.486  0.00  0.00    +0.049 A 
ENDBRANCH   1  17
BRANCH   4  18
ATOM     18  C   UNL     1       5.899   2.197  -0.893  0.00  0.00    +0.001 A 
ATOM     19  C   UNL     1       6.053   1.010  -0.174  0.00  0.00    +0.010 A 
ATOM     20  C   UNL     1       5.405  -0.136  -0.589  0.00  0.00    +0.002 A 
ATOM     21  C   UNL     1       4.604  -0.113  -1.716  0.00  0.00    +0.024 A 
ATOM     22  C   UNL     1       4.445   1.063  -2.437  0.00  0.00    +0.045 A 
ATOM     23  C   UNL     1       5.096   2.218  -2.032  0.00  0.00    +0.034 A 
BRANCH  22  24
ATOM     24  N   UNL     1       3.632   1.081  -3.579  0.00  0.00    -0.202 N 
ATOM     25  C   UNL     1       3.415   2.167  -4.342  0.00  0.00    +0.258 C 
ATOM     26  O   UNL     1       3.886   3.271  -4.155  0.00  0.00    -0.269 OA
ATOM     27  C   UNL     1       2.507   1.792  -5.447  0.00  0.00    +0.050 A 
ATOM     28  C   UNL     1       1.945   2.477  -6.512  0.00  0.00    +0.014 A 
ATOM     29  C   UNL     1       1.112   1.809  -7.396  0.00  0.00    +0.001 A 
ATOM     30  C   UNL     1       0.832   0.468  -7.217  0.00  0.00    +0.001 A 
ATOM     31  C   UNL     1       1.383  -0.230  -6.153  0.00  0.00    +0.014 A 
ATOM     32  C   UNL     1       2.221   0.424  -5.264  0.00  0.00    +0.050 A 
ATOM     33  C   UNL     1       2.965   0.014  -4.054  0.00  0.00    +0.258 C 
ATOM     34  O   UNL     1       2.972  -1.100  -3.571  0.00  0.00    -0.269 OA
ENDBRANCH  22  24
ENDBRANCH   4  18
BRANCH   3  35
ATOM     35  C   UNL     1       8.718   2.186  -0.419  0.00  0.00    +0.126 C 
BRANCH  35  36
ATOM     36  C   UNL     1       9.091   2.046  -1.896  0.00  0.00    +0.049 C 
BRANCH  36  37
ATOM     37  C   UNL     1       9.803   0.709  -2.117  0.00  0.00    +0.157 C 
BRANCH  37  38
ATOM     38  O   UNL     1      10.060   0.532  -3.511  0.00  0.00    -0.395 OA
ATOM     39  H   UNL     1      10.569  -0.377  -3.866  0.00  0.00    +0.209 HD
ENDBRANCH  37  38
ENDBRANCH  36  37
ENDBRANCH  35  36
ENDBRANCH   3  35
TORSDOF 7
