REMARK  Name = ZINC06166457
REMARK  12 active torsions:
REMARK  status: ('A' for Active; 'I' for Inactive)
REMARK    1  A    between atoms: C_1  and  C_2
REMARK    2  A    between atoms: N_13  and  C_16
REMARK    3  A    between atoms: C_16  and  C_18
REMARK    4  A    between atoms: C_16  and  C_19
REMARK    5  A    between atoms: N_21  and  N_22
REMARK    6  A    between atoms: C_23  and  C_24
REMARK    7  A    between atoms: C_27  and  O_32
REMARK    8  A    between atoms: C_28  and  O_30
REMARK    9  A    between atoms: O_30  and  C_31
REMARK   10  A    between atoms: O_32  and  C_33
REMARK   11  A    between atoms: C_33  and  C_34
REMARK   12  A    between atoms: C_33  and  C_35
REMARK                            x       y       z     vdW  Elec       q    Type
REMARK                         _______ _______ _______ _____ _____    ______ ____
ROOT
ATOM      1  C   UNL     1       3.440  -6.339  -1.857  0.00  0.00    +0.255 C 
ATOM      2  O   UNL     1       4.365  -5.558  -1.939  0.00  0.00    -0.272 OA
ATOM      3  N   UNL     1       2.210  -5.895  -1.530  0.00  0.00    -0.205 N 
ATOM      4  H   UNL     1       1.470  -6.519  -1.464  0.00  0.00    +0.177 HD
ENDROOT
BRANCH   1   5
ATOM      5  C   UNL     1       3.666  -7.805  -2.121  0.00  0.00    +0.176 C 
ATOM      6  C   UNL     1       3.302  -8.610  -0.872  0.00  0.00    +0.041 C 
BRANCH   5  18
ATOM      7  C   UNL     1       9.331 -11.016  -8.643  0.00  0.00    +0.008 C 
ATOM      8  C   UNL     1       8.595 -10.728  -7.333  0.00  0.00    -0.009 C 
ATOM      9  C   UNL     1       7.361  -9.866  -7.616  0.00  0.00    +0.008 C 
ATOM     10  C   UNL     1       6.486  -9.783  -6.365  0.00  0.00    +0.037 C 
ATOM     11  C   UNL     1       7.349  -9.332  -5.190  0.00  0.00    -0.023 A 
ATOM     12  C   UNL     1       8.694  -9.433  -5.243  0.00  0.00    -0.004 A 
ATOM     13  S   UNL     1       9.264  -8.802  -3.688  0.00  0.00    -0.073 S 
ATOM     14  C   UNL     1       7.691  -8.403  -2.970  0.00  0.00    +0.116 A 
ATOM     15  C   UNL     1       6.774  -8.776  -3.966  0.00  0.00    +0.076 A 
ATOM     16  C   UNL     1       5.393  -8.565  -3.647  0.00  0.00    +0.263 A 
ATOM     17  O   UNL     1       4.520  -8.861  -4.446  0.00  0.00    -0.267 OA
ATOM     18  N   UNL     1       5.074  -8.030  -2.454  0.00  0.00    -0.287 N 
ATOM     19  C   UNL     1       6.033  -7.699  -1.550  0.00  0.00    +0.204 A 
ATOM     20  N   UNL     1       7.299  -7.884  -1.810  0.00  0.00    -0.230 NA
ATOM     21  C   UNL     1       9.520  -9.965  -6.374  0.00  0.00    +0.046 C 
ENDBRANCH   5  18
ENDBRANCH   1   5
BRANCH   3  22
ATOM     22  N   UNL     1       2.000  -4.531  -1.284  0.00  0.00    -0.188 NA
ATOM     23  C   UNL     1       0.816  -4.104  -0.969  0.00  0.00    +0.138 C 
BRANCH  23  24
ATOM     24  C   UNL     1       0.595  -2.669  -0.711  0.00  0.00    -0.002 A 
ATOM     25  C   UNL     1       1.659  -1.768  -0.806  0.00  0.00    +0.013 A 
ATOM     26  C   UNL     1       1.448  -0.426  -0.570  0.00  0.00    +0.050 A 
ATOM     27  C   UNL     1       0.184   0.032  -0.227  0.00  0.00    +0.162 A 
ATOM     28  C   UNL     1      -0.881  -0.861  -0.131  0.00  0.00    +0.162 A 
ATOM     29  C   UNL     1      -0.679  -2.207  -0.372  0.00  0.00    +0.059 A 
BRANCH  28  30
ATOM     30  O   UNL     1      -2.120  -0.407   0.200  0.00  0.00    -0.491 OA
ATOM     31  C   UNL     1      -3.166  -1.378   0.280  0.00  0.00    +0.277 C 
ENDBRANCH  28  30
BRANCH  27  32
ATOM     32  O   UNL     1      -0.016   1.355   0.009  0.00  0.00    -0.486 OA
BRANCH  32  33
ATOM     33  C   UNL     1       1.138   2.197   0.005  0.00  0.00    +0.167 C 
ATOM     34  C   UNL     1       1.455   2.620  -1.431  0.00  0.00    +0.051 C 
ATOM     35  C   UNL     1       0.866   3.440   0.855  0.00  0.00    +0.051 C 
ENDBRANCH  32  33
ENDBRANCH  27  32
ENDBRANCH  23  24
ENDBRANCH   3  22
TORSDOF 7
