REMARK  Name = ZINC32646825
REMARK  5 active torsions:
REMARK  status: ('A' for Active; 'I' for Inactive)
REMARK    1  A    between atoms: C_1  and  C_2
REMARK    2  A    between atoms: C_7  and  C_13
REMARK    3  A    between atoms: C_8  and  C_12
REMARK    4  A    between atoms: N_15  and  N_16
REMARK    5  A    between atoms: N_16  and  C_17
REMARK                            x       y       z     vdW  Elec       q    Type
REMARK                         _______ _______ _______ _____ _____    ______ ____
ROOT
ATOM      1  C   UNL     1       2.316   1.016  -0.172  0.00  0.00    +0.262 C 
ATOM      2  O   UNL     1       2.373  -0.198  -0.185  0.00  0.00    -0.269 OA
ATOM      3  N   UNL     1       1.121   1.635  -0.092  0.00  0.00    -0.232 N 
ATOM      4  H   UNL     1       1.070   2.733  -0.081  0.00  0.00    +0.173 HD
ENDROOT
BRANCH   1  11
ATOM      5  C   UNL     1       8.418   6.024  -0.625  0.00  0.00    +0.044 C 
ATOM      6  C   UNL     1       7.117   5.267  -0.554  0.00  0.00    -0.048 A 
ATOM      7  C   UNL     1       5.913   5.966  -0.609  0.00  0.00    +0.004 A 
ATOM      8  C   UNL     1       4.722   5.310  -0.547  0.00  0.00    +0.010 A 
ATOM      9  C   UNL     1       4.705   3.910  -0.429  0.00  0.00    +0.001 A 
ATOM     10  C   UNL     1       3.495   3.198  -0.363  0.00  0.00    +0.025 A 
ATOM     11  C   UNL     1       3.558   1.815  -0.246  0.00  0.00    +0.060 A 
ATOM     12  C   UNL     1       4.812   1.181  -0.192  0.00  0.00    +0.051 A 
ATOM     13  N   UNL     1       5.926   1.863  -0.260  0.00  0.00    -0.251 NA
ATOM     14  C   UNL     1       5.929   3.196  -0.373  0.00  0.00    +0.072 A 
ATOM     15  C   UNL     1       7.138   3.910  -0.440  0.00  0.00    +0.031 A 
ATOM     16  C   UNL     1       4.873  -0.319  -0.058  0.00  0.00    +0.066 C 
ENDBRANCH   1  11
BRANCH   3  17
ATOM     17  N   UNL     1      -0.056   0.878  -0.022  0.00  0.00    -0.261 N 
ATOM     18  H   UNL     1      -0.010  -0.219  -0.097  0.00  0.00    +0.170 HD
BRANCH  17  19
ATOM     19  C   UNL     1      -1.289   1.517   0.141  0.00  0.00    +0.081 A 
ATOM     20  C   UNL     1      -1.385   2.653   0.936  0.00  0.00    +0.066 A 
ATOM     21  C   UNL     1      -2.605   3.284   1.092  0.00  0.00    +0.042 A 
ATOM     22  C   UNL     1      -3.731   2.781   0.466  0.00  0.00    +0.044 A 
ATOM     23  C   UNL     1      -3.640   1.647  -0.321  0.00  0.00    +0.042 A 
ATOM     24  C   UNL     1      -2.423   1.013  -0.485  0.00  0.00    +0.066 A 
ATOM     25 CL   UNL     1      -2.309  -0.409  -1.474  0.00  0.00    -0.081 Cl
ATOM     26 CL   UNL     1      -5.263   3.573   0.670  0.00  0.00    -0.083 Cl
ATOM     27 CL   UNL     1       0.027   3.282   1.726  0.00  0.00    -0.081 Cl
ENDBRANCH  17  19
ENDBRANCH   3  17
TORSDOF 3
