REMARK  Name = ZINC38591855
REMARK  12 active torsions:
REMARK  status: ('A' for Active; 'I' for Inactive)
REMARK    1  A    between atoms: C_1  and  C_2
REMARK    2  A    between atoms: C_2  and  O_3
REMARK    3  A    between atoms: O_3  and  C_4
REMARK    4  A    between atoms: C_6  and  C_11
REMARK    5  A    between atoms: C_9  and  O_10
REMARK    6  A    between atoms: C_17  and  C_38
REMARK    7  A    between atoms: C_19  and  C_37
REMARK    8  A    between atoms: N_26  and  C_27
REMARK    9  A    between atoms: C_27  and  C_28
REMARK   10  A    between atoms: C_28  and  C_29
REMARK   11  A    between atoms: C_32  and  O_35
REMARK   12  A    between atoms: O_35  and  C_36
REMARK                            x       y       z     vdW  Elec       q    Type
REMARK                         _______ _______ _______ _____ _____    ______ ____
ROOT
ATOM      1  C   UNL     1      -0.217  -4.963  -0.535  0.00  0.00    +0.145 C 
ATOM      2  C   UNL     1       0.860  -5.496  -1.422  0.00  0.00    +0.072 A 
ATOM      3  C   UNL     1       1.796  -4.814  -2.323  0.00  0.00    +0.199 A 
ATOM      4  O   UNL     1       1.937  -3.604  -2.347  0.00  0.00    -0.287 OA
ATOM      5  C   UNL     1       2.555  -5.739  -3.201  0.00  0.00    +0.067 A 
ATOM      6  C   UNL     1       3.335  -5.241  -4.245  0.00  0.00    -0.036 A 
ATOM      7  C   UNL     1       4.024  -6.106  -5.048  0.00  0.00    +0.007 A 
ATOM      8  C   UNL     1       3.950  -7.474  -4.828  0.00  0.00    -0.047 A 
ATOM      9  C   UNL     1       3.188  -7.983  -3.801  0.00  0.00    +0.050 A 
ATOM     10  C   UNL     1       2.476  -7.121  -2.966  0.00  0.00    +0.140 A 
ATOM     11  O   UNL     1       1.741  -7.642  -1.957  0.00  0.00    -0.450 OA
ATOM     12  C   UNL     1       0.874  -6.855  -1.289  0.00  0.00    +0.199 A 
ATOM     13  C   UNL     1      -0.180  -7.237  -0.333  0.00  0.00    +0.283 C 
ATOM     14  O   UNL     1      -0.433  -8.377   0.005  0.00  0.00    -0.267 OA
ATOM     15  N   UNL     1      -0.823  -6.137   0.114  0.00  0.00    -0.283 N 
ATOM     16  C   UNL     1       4.714  -8.415  -5.724  0.00  0.00    +0.044 C 
ATOM     17  C   UNL     1       3.417  -3.756  -4.487  0.00  0.00    +0.044 C 
ENDROOT
BRANCH   1  20
ATOM     18  C   UNL     1       0.802  -1.825   1.306  0.00  0.00    +0.162 A 
ATOM     19  C   UNL     1       0.261  -2.673   0.353  0.00  0.00    +0.055 A 
ATOM     20  C   UNL     1       0.372  -4.043   0.502  0.00  0.00    -0.019 A 
ATOM     21  C   UNL     1       1.024  -4.570   1.602  0.00  0.00    +0.009 A 
ATOM     22  C   UNL     1       1.566  -3.730   2.557  0.00  0.00    +0.049 A 
ATOM     23  C   UNL     1       1.462  -2.356   2.410  0.00  0.00    +0.158 A 
BRANCH  23  24
ATOM     24  O   UNL     1       2.000  -1.528   3.345  0.00  0.00    -0.503 OA
ATOM     25  H   UNL     1       1.395  -1.301   4.064  0.00  0.00    +0.292 HD
ENDBRANCH  23  24
BRANCH  18  26
ATOM     26  O   UNL     1       0.693  -0.477   1.160  0.00  0.00    -0.489 OA
BRANCH  26  28
ATOM     27  C   UNL     1      -0.019   1.526   0.010  0.00  0.00    +0.048 C 
ATOM     28  C   UNL     1       0.002  -0.004   0.002  0.00  0.00    +0.226 C 
ENDBRANCH  26  28
ENDBRANCH  18  26
ENDBRANCH   1  20
BRANCH  15  29
ATOM     29  C   UNL     1      -1.929  -6.115   1.074  0.00  0.00    +0.114 C 
BRANCH  29  30
ATOM     30  C   UNL     1      -3.258  -6.219   0.324  0.00  0.00    +0.054 C 
BRANCH  30  31
ATOM     31  C   UNL     1      -4.396  -6.196   1.313  0.00  0.00    -0.046 A 
ATOM     32  C   UNL     1      -4.866  -7.379   1.851  0.00  0.00    +0.007 A 
ATOM     33  C   UNL     1      -5.909  -7.361   2.757  0.00  0.00    +0.046 A 
ATOM     34  C   UNL     1      -6.484  -6.154   3.127  0.00  0.00    +0.120 A 
ATOM     35  C   UNL     1      -6.010  -4.968   2.585  0.00  0.00    +0.046 A 
ATOM     36  C   UNL     1      -4.963  -4.991   1.684  0.00  0.00    +0.007 A 
BRANCH  34  37
ATOM     37  O   UNL     1      -7.510  -6.134   4.017  0.00  0.00    -0.495 OA
ATOM     38  C   UNL     1      -8.054  -4.855   4.351  0.00  0.00    +0.277 C 
ENDBRANCH  34  37
ENDBRANCH  30  31
ENDBRANCH  29  30
ENDBRANCH  15  29
TORSDOF 8
