REMARK  Name = ZINC07343046
REMARK  7 active torsions:
REMARK  status: ('A' for Active; 'I' for Inactive)
REMARK    1  A    between atoms: C_1  and  C_2
REMARK    2  A    between atoms: C_2  and  C_3
REMARK    3  A    between atoms: C_2  and  C_4
REMARK    4  A    between atoms: C_10  and  S_12
REMARK    5  A    between atoms: S_12  and  C_13
REMARK    6  A    between atoms: C_13  and  C_14
REMARK    7  A    between atoms: N_16  and  C_17
REMARK                            x       y       z     vdW  Elec       q    Type
REMARK                         _______ _______ _______ _____ _____    ______ ____
ROOT
ATOM      1  C   UNL     1      -1.256   7.405  -0.164  0.00  0.00    +0.173 C 
ENDROOT
BRANCH   1   2
ATOM      2  C   UNL     1      -1.242   5.902  -0.058  0.00  0.00    +0.227 C 
ATOM      3  O   UNL     1      -2.286   5.284  -0.050  0.00  0.00    -0.275 OA
ATOM      4  N   UNL     1      -0.069   5.243   0.029  0.00  0.00    -0.285 N 
ATOM      5  H   UNL     1       0.761   5.739   0.101  0.00  0.00    +0.155 HD
BRANCH   4   6
ATOM      6  C   UNL     1      -0.050   3.844   0.017  0.00  0.00    +0.036 A 
ATOM      7  C   UNL     1      -0.989   3.142  -0.727  0.00  0.00    +0.043 A 
ATOM      8  C   UNL     1      -0.968   1.760  -0.738  0.00  0.00    +0.044 A 
ATOM      9  C   UNL     1      -0.012   1.076  -0.007  0.00  0.00    +0.040 A 
ATOM     10  C   UNL     1       0.921   1.773   0.740  0.00  0.00    +0.044 A 
ATOM     11  C   UNL     1       0.908   3.155   0.749  0.00  0.00    +0.043 A 
ATOM     12 CL   UNL     1       2.114   0.911   1.661  0.00  0.00    -0.083 Cl
ATOM     13 CL   UNL     1      -2.141   0.882  -1.668  0.00  0.00    -0.083 Cl
ENDBRANCH   4   6
ENDBRANCH   1   2
BRANCH   1  14
ATOM     14  S   UNL     1      -2.967   7.987  -0.264  0.00  0.00    -0.078 S 
BRANCH  14  21
ATOM     15  C   UNL     1      -1.208  11.492  -0.450  0.00  0.00    +0.052 A 
ATOM     16  C   UNL     1      -2.239  12.382  -0.549  0.00  0.00    +0.093 A 
ATOM     17  C   UNL     1      -3.558  11.896  -0.561  0.00  0.00    +0.252 A 
ATOM     18  O   UNL     1      -4.502  12.664  -0.648  0.00  0.00    -0.268 OA
ATOM     19  N   UNL     1      -3.760  10.564  -0.479  0.00  0.00    -0.302 N 
ATOM     20  H   UNL     1      -4.690  10.196  -0.493  0.00  0.00    +0.171 HD
ATOM     21  C   UNL     1      -2.693   9.723  -0.377  0.00  0.00    +0.170 A 
ATOM     22  N   UNL     1      -1.459  10.188  -0.367  0.00  0.00    -0.228 NA
BRANCH  15  24
ATOM     23  C   UNL     1       0.889  11.563   0.870  0.00  0.00    +0.014 C 
ATOM     24  C   UNL     1       0.215  11.987  -0.436  0.00  0.00    +0.032 C 
ATOM     25  C   UNL     1       0.975  11.387  -1.621  0.00  0.00    +0.014 C 
ENDBRANCH  15  24
ENDBRANCH  14  21
ENDBRANCH   1  14
TORSDOF 5
