REMARK  Name = ZINC37381587
REMARK  12 active torsions:
REMARK  status: ('A' for Active; 'I' for Inactive)
REMARK    1  A    between atoms: C_1  and  C_2
REMARK    2  A    between atoms: C_2  and  C_3
REMARK    3  A    between atoms: C_2  and  C_4
REMARK    4  A    between atoms: C_2  and  C_5
REMARK    5  A    between atoms: C_8  and  C_11
REMARK    6  A    between atoms: C_11  and  C_13
REMARK    7  A    between atoms: C_11  and  C_24
REMARK    8  A    between atoms: C_13  and  C_14
REMARK    9  A    between atoms: N_16  and  C_17
REMARK   10  A    between atoms: C_17  and  C_18
REMARK   11  A    between atoms: C_18  and  N_19
REMARK   12  A    between atoms: C_31  and  N_34
REMARK                            x       y       z     vdW  Elec       q    Type
REMARK                         _______ _______ _______ _____ _____    ______ ____
ROOT
ATOM      1  C   UNL     1       2.707  -1.868  -4.752  0.00  0.00    +0.060 C 
ENDROOT
BRANCH   1   2
ATOM      2  C   UNL     1       3.903  -2.696  -4.357  0.00  0.00    -0.014 A 
ATOM      3  C   UNL     1       4.949  -2.288  -3.621  0.00  0.00    +0.087 A 
ATOM      4  N   UNL     1       5.840  -3.314  -3.468  0.00  0.00    -0.360 N 
ATOM      5  H   UNL     1       6.673  -3.260  -2.974  0.00  0.00    +0.165 HD
ATOM      6  C   UNL     1       5.378  -4.437  -4.117  0.00  0.00    +0.047 A 
ATOM      7  C   UNL     1       4.141  -4.101  -4.698  0.00  0.00    +0.006 A 
ATOM      8  C   UNL     1       3.429  -5.057  -5.423  0.00  0.00    +0.043 A 
ATOM      9  C   UNL     1       3.936  -6.318  -5.564  0.00  0.00    +0.127 A 
ATOM     10  C   UNL     1       5.154  -6.656  -4.990  0.00  0.00    +0.035 A 
ATOM     11  C   UNL     1       5.878  -5.725  -4.277  0.00  0.00    +0.028 A 
BRANCH   9  12
ATOM     12  N   UNL     1       3.181  -7.332  -6.333  0.00  0.00    +0.056 N 
ATOM     13  O   UNL     1       2.120  -7.043  -6.835  0.00  0.00    -0.126 OA
ATOM     14  O   UNL     1       3.625  -8.450  -6.460  0.00  0.00    -0.126 OA
ENDBRANCH   9  12
ENDBRANCH   1   2
BRANCH   1  18
ATOM     15  C   UNL     1       0.707  -0.490  -1.238  0.00  0.00    -0.042 A 
ATOM     16  C   UNL     1       0.036  -1.284  -2.148  0.00  0.00    +0.004 A 
ATOM     17  C   UNL     1       0.683  -1.730  -3.286  0.00  0.00    +0.004 A 
ATOM     18  C   UNL     1       2.001  -1.381  -3.513  0.00  0.00    -0.039 A 
ATOM     19  C   UNL     1       2.672  -0.586  -2.603  0.00  0.00    +0.004 A 
ATOM     20  C   UNL     1       2.024  -0.137  -1.467  0.00  0.00    +0.004 A 
BRANCH  15  22
ATOM     21  C   UNL     1      -0.019   1.526   0.010  0.00  0.00    +0.015 C 
ATOM     22  C   UNL     1       0.002  -0.004   0.002  0.00  0.00    -0.013 C 
ATOM     23  C   UNL     1       0.742  -0.511   1.242  0.00  0.00    +0.015 C 
ATOM     24  C   UNL     1      -1.433  -0.534   0.013  0.00  0.00    +0.015 C 
ENDBRANCH  15  22
ENDBRANCH   1  18
BRANCH   1  25
ATOM     25  C   UNL     1       3.169  -0.668  -5.581  0.00  0.00    +0.108 C 
BRANCH  25  26
ATOM     26  C   UNL     1       3.765  -1.152  -6.877  0.00  0.00    +0.214 C 
ATOM     27  O   UNL     1       3.815  -2.340  -7.115  0.00  0.00    -0.276 OA
ATOM     28  N   UNL     1       4.242  -0.265  -7.772  0.00  0.00    -0.317 N 
ATOM     29  H   UNL     1       4.202   0.686  -7.582  0.00  0.00    +0.149 HD
BRANCH  28  30
ATOM     30  C   UNL     1       4.822  -0.735  -9.033  0.00  0.00    +0.085 C 
BRANCH  30  31
ATOM     31  C   UNL     1       5.284   0.465  -9.862  0.00  0.00    -0.060 C 
BRANCH  31  32
ATOM     32  N   UNL     1       5.864  -0.007 -11.126  0.00  0.00    +0.381 N 
ATOM     33  C   UNL     1       4.806  -0.589 -11.990  0.00  0.00    -0.079 C 
ATOM     34  C   UNL     1       5.421  -0.504 -13.409  0.00  0.00    -0.020 C 
ATOM     35  C   UNL     1       6.178   0.843 -13.378  0.00  0.00    -0.020 C 
ATOM     36  C   UNL     1       6.425   1.131 -11.886  0.00  0.00    -0.079 C 
ATOM     37  H   UNL     1       6.583  -0.692 -10.945  0.00  0.00    -0.082 HD
ENDBRANCH  31  32
ENDBRANCH  30  31
ENDBRANCH  28  30
ENDBRANCH  25  26
ENDBRANCH   1  25
TORSDOF 9
