REMARK  Name = ZINC11969845
REMARK  10 active torsions:
REMARK  status: ('A' for Active; 'I' for Inactive)
REMARK    1  A    between atoms: C_1  and  C_2
REMARK    2  A    between atoms: C_2  and  C_4
REMARK    3  A    between atoms: C_2  and  N_9
REMARK    4  A    between atoms: C_10  and  C_12
REMARK    5  A    between atoms: C_13  and  O_36
REMARK    6  A    between atoms: C_24  and  C_26
REMARK    7  A    between atoms: C_29  and  C_32
REMARK    8  A    between atoms: C_32  and  O_34
REMARK    9  A    between atoms: O_34  and  C_35
REMARK   10  A    between atoms: O_36  and  C_37
REMARK                            x       y       z     vdW  Elec       q    Type
REMARK                         _______ _______ _______ _____ _____    ______ ____
ROOT
ATOM      1  C   UNL     1      -6.147   9.523  -1.163  0.00  0.00    +0.098 A 
ATOM      2  C   UNL     1      -5.388  10.771  -1.104  0.00  0.00    +0.139 A 
ATOM      3  C   UNL     1      -4.265  10.801  -0.301  0.00  0.00    +0.116 A 
ATOM      4  C   UNL     1      -3.928   9.660   0.425  0.00  0.00    +0.255 A 
ATOM      5  O   UNL     1      -2.925   9.682   1.121  0.00  0.00    -0.268 OA
ATOM      6  N   UNL     1      -4.670   8.526   0.386  0.00  0.00    -0.310 N 
ATOM      7  C   UNL     1      -5.736   8.424  -0.416  0.00  0.00    +0.039 A 
ATOM      8  C   UNL     1      -6.546   7.168  -0.617  0.00  0.00    +0.073 C 
ATOM      9  C   UNL     1      -6.568   6.283   0.621  0.00  0.00    +0.114 C 
ATOM     10  N   UNL     1      -5.357   5.445   0.599  0.00  0.00    -0.295 N 
ATOM     11  C   UNL     1      -4.062   6.129   0.533  0.00  0.00    +0.129 C 
ATOM     12  C   UNL     1      -4.230   7.453   1.278  0.00  0.00    +0.144 C 
ATOM     13  C   UNL     1      -5.436   4.100   0.631  0.00  0.00    +0.247 C 
ATOM     14  O   UNL     1      -6.522   3.554   0.611  0.00  0.00    -0.270 OA
ENDROOT
BRANCH  13  15
ATOM     15  C   UNL     1      -4.201   3.286   0.690  0.00  0.00    +0.037 A 
ATOM     16  C   UNL     1      -3.081   3.663  -0.053  0.00  0.00    +0.014 A 
ATOM     17  C   UNL     1      -1.931   2.906   0.003  0.00  0.00    +0.016 A 
ATOM     18  C   UNL     1      -1.885   1.763   0.803  0.00  0.00    +0.059 A 
ATOM     19  C   UNL     1      -3.007   1.384   1.542  0.00  0.00    +0.016 A 
ATOM     20  C   UNL     1      -4.155   2.144   1.490  0.00  0.00    +0.014 A 
BRANCH  18  21
ATOM     21  C   UNL     1      -0.650   0.951   0.863  0.00  0.00    +0.339 C 
ATOM     22  O   UNL     1       0.324   1.278   0.216  0.00  0.00    -0.245 OA
BRANCH  21  23
ATOM     23  O   UNL     1      -0.605  -0.149   1.639  0.00  0.00    -0.464 OA
ATOM     24  C   UNL     1       0.641  -0.894   1.654  0.00  0.00    +0.280 C 
ENDBRANCH  21  23
ENDBRANCH  18  21
ENDBRANCH  13  15
BRANCH   1  26
ATOM     25  N   UNL     1      -7.283   8.794  -3.201  0.00  0.00    -0.302 N 
ATOM     26  C   UNL     1      -7.347   9.430  -2.014  0.00  0.00    +0.250 C 
ATOM     27  O   UNL     1      -8.394   9.926  -1.645  0.00  0.00    -0.270 OA
ATOM     28  H   UNL     1      -6.433   8.462  -3.528  0.00  0.00    +0.150 HD
BRANCH  25  30
ATOM     29  C   UNL     1      -9.226   7.344  -3.526  0.00  0.00    +0.036 C 
ATOM     30  C   UNL     1      -8.499   8.606  -3.997  0.00  0.00    +0.136 C 
BRANCH  30  31
ATOM     31  C   UNL     1      -8.130   8.460  -5.450  0.00  0.00    +0.125 A 
ATOM     32  C   UNL     1      -8.798   8.993  -6.489  0.00  0.00    +0.046 A 
ATOM     33  C   UNL     1      -8.108   8.608  -7.661  0.00  0.00    +0.041 A 
ATOM     34  C   UNL     1      -7.059   7.863  -7.269  0.00  0.00    +0.195 A 
ATOM     35  O   UNL     1      -7.074   7.782  -5.929  0.00  0.00    -0.466 OA
ENDBRANCH  30  31
ENDBRANCH  25  30
ENDBRANCH   1  26
BRANCH   2  36
ATOM     36  O   UNL     1      -5.773  11.858  -1.811  0.00  0.00    -0.494 OA
ATOM     37  C   UNL     1      -4.966  13.031  -1.687  0.00  0.00    +0.277 C 
ENDBRANCH   2  36
TORSDOF 7
