REMARK  Name = ZINC36586720
REMARK  18 active torsions:
REMARK  status: ('A' for Active; 'I' for Inactive)
REMARK    1  A    between atoms: C_1  and  C_2
REMARK    2  A    between atoms: C_2  and  C_3
REMARK    3  A    between atoms: C_2  and  C_4
REMARK    4  A    between atoms: C_2  and  C_5
REMARK    5  A    between atoms: C_5  and  C_6
REMARK    6  A    between atoms: C_6  and  C_7
REMARK    7  A    between atoms: C_6  and  C_8
REMARK    8  A    between atoms: C_6  and  N_9
REMARK    9  A    between atoms: C_10  and  C_12
REMARK   10  A    between atoms: C_12  and  C_14
REMARK   11  A    between atoms: C_12  and  N_20
REMARK   12  A    between atoms: N_20  and  C_31
REMARK   13  A    between atoms: C_21  and  C_23
REMARK   14  A    between atoms: C_24  and  O_30
REMARK   15  A    between atoms: C_28  and  O_29
REMARK   16  A    between atoms: C_31  and  C_32
REMARK   17  A    between atoms: C_31  and  C_33
REMARK   18  A    between atoms: C_31  and  C_34
REMARK                            x       y       z     vdW  Elec       q    Type
REMARK                         _______ _______ _______ _____ _____    ______ ____
ROOT
ATOM      1  C   UNL     1       4.953   0.500  -4.452  0.00  0.00    +0.193 C 
ENDROOT
BRANCH   1   2
ATOM      2  C   UNL     1       4.996  -0.714  -5.343  0.00  0.00    -0.018 A 
ATOM      3  C   UNL     1       5.918  -1.715  -5.103  0.00  0.00    +0.006 A 
ATOM      4  C   UNL     1       5.957  -2.829  -5.921  0.00  0.00    +0.000 A 
ATOM      5  C   UNL     1       5.074  -2.942  -6.978  0.00  0.00    +0.000 A 
ATOM      6  C   UNL     1       4.151  -1.941  -7.218  0.00  0.00    +0.000 A 
ATOM      7  C   UNL     1       4.109  -0.829  -6.397  0.00  0.00    +0.006 A 
ENDBRANCH   1   2
BRANCH   1   9
ATOM      8  N   UNL     1       2.898  -0.283  -3.319  0.00  0.00    -0.308 N 
ATOM      9  C   UNL     1       4.157   0.185  -3.211  0.00  0.00    +0.239 C 
ATOM     10  O   UNL     1       4.650   0.353  -2.116  0.00  0.00    -0.273 OA
ATOM     11  H   UNL     1       2.504  -0.417  -4.196  0.00  0.00    +0.149 HD
BRANCH   8  12
ATOM     12  C   UNL     1       2.124  -0.589  -2.114  0.00  0.00    +0.030 C 
ATOM     13  C   UNL     1       2.218   0.583  -1.135  0.00  0.00    +0.031 C 
ATOM     14  C   UNL     1       2.686  -1.850  -1.454  0.00  0.00    +0.031 C 
BRANCH  12  15
ATOM     15  C   UNL     1       0.660  -0.821  -2.492  0.00  0.00    +0.031 C 
BRANCH  15  17
ATOM     16  C   UNL     1       0.690  -0.141  -4.896  0.00  0.00    +0.010 C 
ATOM     17  C   UNL     1       0.217   0.247  -3.494  0.00  0.00    -0.036 C 
ATOM     18  C   UNL     1       0.826   1.595  -3.104  0.00  0.00    +0.010 C 
ATOM     19  C   UNL     1      -1.309   0.355  -3.482  0.00  0.00    +0.010 C 
ENDBRANCH  15  17
ENDBRANCH  12  15
ENDBRANCH   8  12
ENDBRANCH   1   9
BRANCH   1  20
ATOM     20  N   UNL     1       6.317   0.877  -4.074  0.00  0.00    -0.277 N 
ATOM     21  C   UNL     1       7.013   0.111  -3.211  0.00  0.00    +0.255 C 
ATOM     22  O   UNL     1       6.502  -0.881  -2.729  0.00  0.00    -0.270 OA
BRANCH  21  23
ATOM     23  C   UNL     1       8.394   0.476  -2.851  0.00  0.00    +0.119 A 
ATOM     24  C   UNL     1       8.642   1.285  -1.733  0.00  0.00    +0.133 A 
ATOM     25  C   UNL     1       9.945   1.622  -1.403  0.00  0.00    +0.046 A 
ATOM     26  C   UNL     1      10.998   1.163  -2.172  0.00  0.00    +0.007 A 
ATOM     27  C   UNL     1      10.765   0.364  -3.276  0.00  0.00    +0.046 A 
ATOM     28  C   UNL     1       9.470   0.011  -3.621  0.00  0.00    +0.133 A 
BRANCH  28  29
ATOM     29  O   UNL     1       9.245  -0.777  -4.701  0.00  0.00    -0.506 OA
ATOM     30  H   UNL     1       9.123  -0.288  -5.526  0.00  0.00    +0.292 HD
ENDBRANCH  28  29
BRANCH  24  31
ATOM     31  O   UNL     1       7.610   1.738  -0.978  0.00  0.00    -0.506 OA
ATOM     32  H   UNL     1       7.368   1.149  -0.250  0.00  0.00    +0.292 HD
ENDBRANCH  24  31
ENDBRANCH  21  23
BRANCH  20  33
ATOM     33  C   UNL     1       6.925   2.087  -4.634  0.00  0.00    +0.030 C 
ATOM     34  C   UNL     1       5.986   2.692  -5.679  0.00  0.00    +0.031 C 
ATOM     35  C   UNL     1       7.164   3.103  -3.515  0.00  0.00    +0.031 C 
ATOM     36  C   UNL     1       8.259   1.730  -5.292  0.00  0.00    +0.031 C 
ENDBRANCH  20  33
ENDBRANCH   1  20
TORSDOF 10
