REMARK  Name = ZINC35096486
REMARK  12 active torsions:
REMARK  status: ('A' for Active; 'I' for Inactive)
REMARK    1  A    between atoms: C_1  and  C_2
REMARK    2  A    between atoms: C_2  and  C_39
REMARK    3  A    between atoms: C_7  and  C_11
REMARK    4  A    between atoms: C_11  and  N_12
REMARK    5  A    between atoms: N_12  and  C_13
REMARK    6  A    between atoms: N_12  and  C_22
REMARK    7  A    between atoms: C_13  and  C_14
REMARK    8  A    between atoms: C_14  and  C_15
REMARK    9  A    between atoms: C_15  and  C_16
REMARK   10  A    between atoms: C_22  and  C_23
REMARK   11  A    between atoms: C_23  and  N_24
REMARK   12  A    between atoms: N_32  and  C_33
REMARK                            x       y       z     vdW  Elec       q    Type
REMARK                         _______ _______ _______ _____ _____    ______ ____
ROOT
ATOM      1  N   UNL     1       2.643  -3.187   0.449  0.00  0.00    +0.383 N 
ATOM      2  H   UNL     1       1.997  -3.557  -0.233  0.00  0.00    -0.081 HD
ENDROOT
BRANCH   1   3
ATOM      3  C   UNL     1       2.164  -3.505   1.800  0.00  0.00    -0.047 C 
BRANCH   3   9
ATOM      4  C   UNL     1       6.895  -3.195   3.530  0.00  0.00    +0.012 C 
ATOM      5  C   UNL     1       5.521  -2.550   3.337  0.00  0.00    -0.025 C 
ATOM      6  C   UNL     1       4.876  -2.051   4.646  0.00  0.00    -0.000 C 
ATOM      7  C   UNL     1       3.727  -1.078   4.351  0.00  0.00    +0.031 C 
ATOM      8  C   UNL     1       2.788  -1.691   3.341  0.00  0.00    -0.029 C 
ATOM      9  C   UNL     1       3.071  -2.862   2.818  0.00  0.00    -0.086 C 
ATOM     10  C   UNL     1       4.359  -3.559   3.292  0.00  0.00    +0.019 C 
ATOM     11  C   UNL     1       4.418  -3.507   4.839  0.00  0.00    +0.012 C 
ATOM     12  C   UNL     1       5.496  -1.526   2.200  0.00  0.00    +0.012 C 
ENDBRANCH   3   9
ENDBRANCH   1   3
BRANCH   1  13
ATOM     13  C   UNL     1       2.736  -1.729   0.292  0.00  0.00    -0.078 C 
BRANCH  13  14
ATOM     14  C   UNL     1       1.333  -1.120   0.341  0.00  0.00    -0.014 C 
BRANCH  14  15
ATOM     15  C   UNL     1       1.417   0.379   0.050  0.00  0.00    +0.033 C 
BRANCH  15  16
ATOM     16  C   UNL     1       0.055   1.001   0.216  0.00  0.00    -0.047 A 
ATOM     17  C   UNL     1      -0.847   0.980  -0.831  0.00  0.00    +0.003 A 
ATOM     18  C   UNL     1      -2.097   1.550  -0.678  0.00  0.00    +0.000 A 
ATOM     19  C   UNL     1      -2.445   2.141   0.522  0.00  0.00    +0.000 A 
ATOM     20  C   UNL     1      -1.544   2.161   1.569  0.00  0.00    +0.000 A 
ATOM     21  C   UNL     1      -0.295   1.587   1.418  0.00  0.00    +0.003 A 
ENDBRANCH  15  16
ENDBRANCH  14  15
ENDBRANCH  13  14
ENDBRANCH   1  13
BRANCH   1  22
ATOM     22  C   UNL     1       3.968  -3.787   0.244  0.00  0.00    -0.063 C 
BRANCH  22  23
ATOM     23  C   UNL     1       3.847  -5.312   0.272  0.00  0.00    +0.066 C 
BRANCH  23  24
ATOM     24  N   UNL     1       5.172  -5.912   0.068  0.00  0.00    -0.301 NA
ATOM     25  C   UNL     1       5.681  -5.619  -1.279  0.00  0.00    +0.103 C 
ATOM     26  C   UNL     1       7.131  -6.103  -1.390  0.00  0.00    +0.124 C 
ATOM     27  N   UNL     1       7.181  -7.520  -1.001  0.00  0.00    -0.283 N 
ATOM     28  C   UNL     1       6.568  -7.913   0.276  0.00  0.00    +0.124 C 
ATOM     29  C   UNL     1       5.140  -7.358   0.322  0.00  0.00    +0.103 C 
ATOM     30  C   UNL     1       7.775  -8.434  -1.794  0.00  0.00    +0.302 C 
ATOM     31  O   UNL     1       8.361  -8.079  -2.798  0.00  0.00    -0.253 OA
ATOM     32  N   UNL     1       7.718  -9.742  -1.474  0.00  0.00    -0.296 N 
ATOM     33  H   UNL     1       7.187 -10.033  -0.716  0.00  0.00    +0.151 HD
BRANCH  32  34
ATOM     34  C   UNL     1       8.458 -10.724  -2.270  0.00  0.00    +0.074 C 
ATOM     35  C   UNL     1       7.619 -11.135  -3.482  0.00  0.00    +0.022 C 
ATOM     36  C   UNL     1       8.392 -12.160  -4.314  0.00  0.00    +0.002 C 
ATOM     37  C   UNL     1       8.688 -13.393  -3.457  0.00  0.00    +0.000 C 
ATOM     38  C   UNL     1       9.527 -12.982  -2.246  0.00  0.00    +0.002 C 
ATOM     39  C   UNL     1       8.755 -11.957  -1.414  0.00  0.00    +0.022 C 
ENDBRANCH  32  34
ENDBRANCH  23  24
ENDBRANCH  22  23
ENDBRANCH   1  22
TORSDOF 10
