REMARK  Name = ZINC14274601
REMARK  9 active torsions:
REMARK  status: ('A' for Active; 'I' for Inactive)
REMARK    1  A    between atoms: C_1  and  C_2
REMARK    2  A    between atoms: C_2  and  C_3
REMARK    3  A    between atoms: C_9  and  C_11
REMARK    4  A    between atoms: C_14  and  C_17
REMARK    5  A    between atoms: C_17  and  N_18
REMARK    6  A    between atoms: N_18  and  C_19
REMARK    7  A    between atoms: C_19  and  N_21
REMARK    8  A    between atoms: C_22  and  C_24
REMARK    9  A    between atoms: C_24  and  C_25
REMARK                            x       y       z     vdW  Elec       q    Type
REMARK                         _______ _______ _______ _____ _____    ______ ____
ROOT
ATOM      1  N   UNL     1      -0.721   1.571  -1.179  0.00  0.00    -0.322 N 
ATOM      2  H   UNL     1      -1.516   2.118  -1.079  0.00  0.00    +0.148 HD
ENDROOT
BRANCH   1   3
ATOM      3  C   UNL     1      -0.268   1.258  -2.409  0.00  0.00    +0.137 C 
ATOM      4  S   UNL     1       1.135   0.294  -2.585  0.00  0.00    -0.018 S 
BRANCH   3   5
ATOM      5  N   UNL     1      -0.920   1.705  -3.501  0.00  0.00    -0.268 N 
ATOM      6  C   UNL     1      -0.467   1.392  -4.731  0.00  0.00    +0.219 C 
ATOM      7  O   UNL     1       0.527   0.709  -4.856  0.00  0.00    -0.275 OA
ATOM      8  H   UNL     1      -1.715   2.251  -3.401  0.00  0.00    +0.156 HD
BRANCH   6   9
ATOM      9  C   UNL     1      -1.196   1.891  -5.952  0.00  0.00    +0.103 C 
BRANCH   9  10
ATOM     10  C   UNL     1      -0.480   1.398  -7.211  0.00  0.00    -0.020 C 
ATOM     11  C   UNL     1       0.956   1.927  -7.222  0.00  0.00    +0.011 C 
ATOM     12  C   UNL     1       1.672   1.434  -8.480  0.00  0.00    -0.010 C 
ATOM     13  C   UNL     1       0.932   1.941  -9.720  0.00  0.00    +0.007 C 
ATOM     14  C   UNL     1      -0.503   1.411  -9.709  0.00  0.00    -0.010 C 
ATOM     15  C   UNL     1      -1.220   1.905  -8.450  0.00  0.00    +0.011 C 
ATOM     16  C   UNL     1      -0.483  -0.118  -9.718  0.00  0.00    +0.007 C 
ATOM     17  C   UNL     1       0.257  -0.625  -8.478  0.00  0.00    -0.010 C 
ATOM     18  C   UNL     1       1.693  -0.096  -8.489  0.00  0.00    +0.007 C 
ATOM     19  C   UNL     1      -0.459  -0.132  -7.219  0.00  0.00    +0.011 C 
ENDBRANCH   9  10
ENDBRANCH   6   9
ENDBRANCH   3   5
ENDBRANCH   1   3
BRANCH   1  20
ATOM     20  C   UNL     1      -0.013   1.086   0.008  0.00  0.00    +0.138 C 
BRANCH  20  24
ATOM     21  C   UNL     1      -2.014   2.464   3.526  0.00  0.00    +0.009 A 
ATOM     22  C   UNL     1      -2.369   1.244   2.951  0.00  0.00    +0.011 A 
ATOM     23  C   UNL     1      -1.720   0.805   1.816  0.00  0.00    +0.006 A 
ATOM     24  C   UNL     1      -0.718   1.572   1.248  0.00  0.00    -0.030 A 
ATOM     25  C   UNL     1      -0.357   2.780   1.817  0.00  0.00    +0.006 A 
ATOM     26  C   UNL     1      -1.003   3.233   2.949  0.00  0.00    +0.011 A 
BRANCH  21  33
ATOM     27  C   UNL     1      -3.388   5.320   7.511  0.00  0.00    +0.155 A 
ATOM     28  N   UNL     1      -4.327   4.961   8.339  0.00  0.00    -0.132 NA
ATOM     29  N   UNL     1      -4.814   3.822   7.988  0.00  0.00    -0.120 NA
ATOM     30  C   UNL     1      -4.206   3.405   6.919  0.00  0.00    +0.218 A 
ATOM     31  N   UNL     1      -3.263   4.334   6.553  0.00  0.00    -0.190 N 
ATOM     32  N   UNL     1      -2.514   4.045   5.420  0.00  0.00    -0.156 NA
ATOM     33  C   UNL     1      -2.706   2.941   4.745  0.00  0.00    +0.132 A 
ATOM     34  S   UNL     1      -4.022   2.161   5.665  0.00  0.00    -0.026 S 
BRANCH  27  36
ATOM     35  C   UNL     1      -3.285   7.691   6.791  0.00  0.00    +0.012 C 
ATOM     36  C   UNL     1      -2.579   6.590   7.585  0.00  0.00    +0.075 C 
ENDBRANCH  27  36
ENDBRANCH  21  33
ENDBRANCH  20  24
ENDBRANCH   1  20
TORSDOF 8
