REMARK  Name = ZINC66123448
REMARK  8 active torsions:
REMARK  status: ('A' for Active; 'I' for Inactive)
REMARK    1  A    between atoms: C_1  and  C_2
REMARK    2  A    between atoms: C_2  and  C_3
REMARK    3  A    between atoms: C_2  and  C_4
REMARK    4  A    between atoms: C_9  and  N_10
REMARK    5  A    between atoms: N_10  and  C_11
REMARK    6  A    between atoms: C_11  and  N_13
REMARK    7  A    between atoms: N_13  and  N_14
REMARK    8  A    between atoms: C_15  and  C_17
REMARK                            x       y       z     vdW  Elec       q    Type
REMARK                         _______ _______ _______ _____ _____    ______ ____
ROOT
ATOM      1  N   UNL     1      -0.591  -2.343  -4.239  0.00  0.00    -0.245 N 
ATOM      2  H   UNL     1      -0.918  -2.777  -5.043  0.00  0.00    +0.172 HD
ENDROOT
BRANCH   1   3
ATOM      3  N   UNL     1       0.769  -2.029  -4.116  0.00  0.00    -0.231 N 
ATOM      4  C   UNL     1       1.623  -2.330  -5.115  0.00  0.00    +0.264 C 
ATOM      5  O   UNL     1       1.213  -2.874  -6.122  0.00  0.00    -0.269 OA
ATOM      6  H   UNL     1       1.095  -1.595  -3.313  0.00  0.00    +0.173 HD
BRANCH   4   7
ATOM      7  C   UNL     1       3.051  -2.000  -4.986  0.00  0.00    +0.081 A 
ATOM      8  C   UNL     1       3.946  -2.296  -6.006  0.00  0.00    +0.018 A 
ATOM      9  C   UNL     1       5.296  -1.968  -5.849  0.00  0.00    +0.019 A 
ATOM     10  C   UNL     1       5.743  -1.369  -4.723  0.00  0.00    +0.093 A 
ATOM     11  N   UNL     1       4.905  -1.058  -3.697  0.00  0.00    -0.306 N 
ATOM     12  C   UNL     1       3.566  -1.344  -3.780  0.00  0.00    +0.150 A 
ATOM     13  N   UNL     1       2.987  -0.937  -2.666  0.00  0.00    -0.235 NA
ATOM     14  C   UNL     1       3.909  -0.392  -1.865  0.00  0.00    +0.131 A 
ATOM     15  C   UNL     1       5.109  -0.464  -2.479  0.00  0.00    +0.112 A 
ENDBRANCH   4   7
ENDBRANCH   1   3
BRANCH   1  16
ATOM     16  C   UNL     1      -1.445  -2.043  -3.241  0.00  0.00    +0.151 C 
ATOM     17  S   UNL     1      -3.107  -2.427  -3.391  0.00  0.00    -0.017 S 
BRANCH  16  18
ATOM     18  N   UNL     1      -0.991  -1.440  -2.124  0.00  0.00    -0.296 N 
ATOM     19  H   UNL     1      -0.063  -1.165  -2.065  0.00  0.00    +0.154 HD
BRANCH  18  25
ATOM     20  C   UNL     1      -1.473  -1.545   0.240  0.00  0.00    -0.024 A 
ATOM     21  C   UNL     1      -2.330  -1.311   1.298  0.00  0.00    +0.006 A 
ATOM     22  C   UNL     1      -3.572  -0.748   1.072  0.00  0.00    +0.000 A 
ATOM     23  C   UNL     1      -3.962  -0.418  -0.214  0.00  0.00    +0.002 A 
ATOM     24  C   UNL     1      -3.110  -0.649  -1.276  0.00  0.00    +0.023 A 
ATOM     25  C   UNL     1      -1.859  -1.209  -1.051  0.00  0.00    +0.036 A 
BRANCH  20  27
ATOM     26  C   UNL     1       0.700  -1.238   1.394  0.00  0.00    +0.012 C 
ATOM     27  C   UNL     1      -0.119  -2.159   0.487  0.00  0.00    +0.015 C 
ATOM     28  C   UNL     1      -0.292  -3.520   1.164  0.00  0.00    +0.012 C 
ENDBRANCH  20  27
ENDBRANCH  18  25
ENDBRANCH  16  18
ENDBRANCH   1  16
TORSDOF 6
