REMARK  Name = ZINC01210695
REMARK  8 active torsions:
REMARK  status: ('A' for Active; 'I' for Inactive)
REMARK    1  A    between atoms: C_1  and  C_2
REMARK    2  A    between atoms: C_5  and  S_9
REMARK    3  A    between atoms: C_6  and  C_8
REMARK    4  A    between atoms: S_9  and  N_12
REMARK    5  A    between atoms: N_12  and  C_13
REMARK    6  A    between atoms: C_19  and  C_23
REMARK    7  A    between atoms: C_20  and  C_22
REMARK    8  A    between atoms: C_23  and  C_25
REMARK                            x       y       z     vdW  Elec       q    Type
REMARK                         _______ _______ _______ _____ _____    ______ ____
ROOT
ATOM      1  N   UNL     1       3.421   0.615  -1.187  0.00  0.00    -0.216 N 
ATOM      2  H   UNL     1       3.230  -0.137  -1.769  0.00  0.00    +0.174 HD
ENDROOT
BRANCH   1   3
ATOM      3  C   UNL     1       4.150   1.706  -1.669  0.00  0.00    +0.049 A 
ATOM      4  C   UNL     1       5.191   2.238  -0.912  0.00  0.00    +0.028 A 
ATOM      5  C   UNL     1       5.918   3.312  -1.376  0.00  0.00    +0.049 A 
ATOM      6  C   UNL     1       5.616   3.876  -2.610  0.00  0.00    +0.136 A 
ATOM      7  C   UNL     1       4.569   3.342  -3.373  0.00  0.00    +0.033 A 
ATOM      8  C   UNL     1       3.841   2.255  -2.903  0.00  0.00    +0.036 A 
ATOM      9  C   UNL     1       4.518   4.162  -4.601  0.00  0.00    +0.065 A 
ATOM     10  C   UNL     1       5.513   5.088  -4.467  0.00  0.00    +0.114 A 
ATOM     11  O   UNL     1       6.143   4.909  -3.303  0.00  0.00    -0.459 OA
ATOM     12  C   UNL     1       5.849   6.152  -5.480  0.00  0.00    +0.087 C 
BRANCH   9  13
ATOM     13  C   UNL     1       3.595   4.013  -5.726  0.00  0.00    +0.164 C 
ATOM     14  O   UNL     1       3.891   3.302  -6.664  0.00  0.00    -0.292 OA
ATOM     15  C   UNL     1       2.276   4.742  -5.719  0.00  0.00    +0.092 C 
ENDBRANCH   9  13
ENDBRANCH   1   3
BRANCH   1  16
ATOM     16  S   UNL     1       2.881   0.607   0.379  0.00  0.00    +0.073 S 
ATOM     17  O   UNL     1       4.011   0.872   1.199  0.00  0.00    -0.150 OA
ATOM     18  O   UNL     1       2.089  -0.563   0.530  0.00  0.00    -0.150 OA
BRANCH  16  23
ATOM     19  C   UNL     1      -0.847   5.309   1.009  0.00  0.00    +0.044 C 
ATOM     20  C   UNL     1       0.084   4.134   0.851  0.00  0.00    -0.050 A 
ATOM     21  C   UNL     1       1.263   4.085   1.572  0.00  0.00    +0.005 A 
ATOM     22  C   UNL     1       2.120   3.011   1.424  0.00  0.00    +0.029 A 
ATOM     23  C   UNL     1       1.793   1.980   0.563  0.00  0.00    +0.111 A 
ATOM     24  C   UNL     1       0.612   2.026  -0.154  0.00  0.00    -0.024 A 
ATOM     25  C   UNL     1      -0.242   3.104  -0.010  0.00  0.00    +0.008 A 
ATOM     26  C   UNL     1       0.256   0.902  -1.093  0.00  0.00    +0.046 C 
ENDBRANCH  16  23
ENDBRANCH   1  16
TORSDOF 4
