REMARK  Name = ZINC67631014
REMARK  9 active torsions:
REMARK  status: ('A' for Active; 'I' for Inactive)
REMARK    1  A    between atoms: C_1  and  C_2
REMARK    2  A    between atoms: N_5  and  C_8
REMARK    3  A    between atoms: C_8  and  C_9
REMARK    4  A    between atoms: C_9  and  C_11
REMARK    5  A    between atoms: C_9  and  O_31
REMARK    6  A    between atoms: C_11  and  N_12
REMARK    7  A    between atoms: N_15  and  C_16
REMARK    8  A    between atoms: C_16  and  C_18
REMARK    9  A    between atoms: C_16  and  C_25
REMARK                            x       y       z     vdW  Elec       q    Type
REMARK                         _______ _______ _______ _____ _____    ______ ____
ROOT
ATOM      1  N   UNL     1       3.188  -6.424   2.295  0.00  0.00    -0.297 N 
ATOM      2  C   UNL     1       3.593  -7.692   2.503  0.00  0.00    +0.300 C 
ATOM      3  O   UNL     1       3.366  -8.548   1.669  0.00  0.00    -0.253 OA
ATOM      4  N   UNL     1       4.248  -8.013   3.636  0.00  0.00    -0.290 N 
ATOM      5  H   UNL     1       3.368  -5.742   2.960  0.00  0.00    +0.150 HD
ATOM      6  H   UNL     1       4.489  -7.319   4.270  0.00  0.00    +0.151 HD
ENDROOT
BRANCH   1   7
ATOM      7  C   UNL     1       2.475  -6.076   1.063  0.00  0.00    +0.135 C 
BRANCH   7   8
ATOM      8  C   UNL     1       2.132  -4.585   1.077  0.00  0.00    +0.115 C 
BRANCH   8   9
ATOM      9  O   UNL     1       3.337  -3.818   1.046  0.00  0.00    -0.392 OA
ATOM     10  H   UNL     1       3.885  -3.978   0.265  0.00  0.00    +0.210 HD
ENDBRANCH   8   9
BRANCH   8  11
ATOM     11  C   UNL     1       1.280  -4.246  -0.148  0.00  0.00    -0.046 C 
BRANCH  11  16
ATOM     12  C   UNL     1      -1.107   0.933  -0.166  0.00  0.00    +0.007 C 
ATOM     13  C   UNL     1      -0.895  -0.582  -0.187  0.00  0.00    -0.018 C 
ATOM     14  C   UNL     1      -0.038  -0.962  -1.399  0.00  0.00    -0.016 C 
ATOM     15  C   UNL     1       0.236  -2.467  -1.370  0.00  0.00    -0.078 C 
ATOM     16  N   UNL     1       0.950  -2.815  -0.135  0.00  0.00    +0.381 N 
ATOM     17  C   UNL     1       0.106  -2.519   1.028  0.00  0.00    -0.078 C 
ATOM     18  C   UNL     1      -0.173  -1.016   1.092  0.00  0.00    -0.016 C 
ATOM     19  H   UNL     1       1.802  -2.276  -0.077  0.00  0.00    -0.082 HD
ENDBRANCH  11  16
ENDBRANCH   8  11
ENDBRANCH   7   8
ENDBRANCH   1   7
BRANCH   4  20
ATOM     20  C   UNL     1       4.598  -9.409   3.911  0.00  0.00    +0.133 C 
BRANCH  20  21
ATOM     21  C   UNL     1       5.928  -9.727   3.279  0.00  0.00    -0.025 A 
ATOM     22  C   UNL     1       6.953  -8.800   3.323  0.00  0.00    +0.008 A 
ATOM     23  C   UNL     1       8.174  -9.091   2.744  0.00  0.00    +0.038 A 
ATOM     24  C   UNL     1       8.371 -10.312   2.122  0.00  0.00    +0.123 A 
ATOM     25  C   UNL     1       7.344 -11.240   2.079  0.00  0.00    +0.038 A 
ATOM     26  C   UNL     1       6.125 -10.949   2.662  0.00  0.00    +0.008 A 
ATOM     27  F   UNL     1       9.564 -10.598   1.555  0.00  0.00    -0.205 F 
ENDBRANCH  20  21
BRANCH  20  28
ATOM     28  C   UNL     1       4.686  -9.625   5.423  0.00  0.00    +0.143 C 
ATOM     29  C   UNL     1       3.343  -9.249   6.085  0.00  0.00    +0.036 C 
ATOM     30  C   UNL     1       3.804  -8.548   7.392  0.00  0.00    +0.031 C 
ATOM     31  C   UNL     1       5.103  -7.855   6.911  0.00  0.00    +0.160 C 
ATOM     32  O   UNL     1       5.696  -8.774   5.977  0.00  0.00    -0.374 OA
ENDBRANCH  20  28
ENDBRANCH   4  20
TORSDOF 8
