REMARK  Name = ZINC08254752
REMARK  8 active torsions:
REMARK  status: ('A' for Active; 'I' for Inactive)
REMARK    1  A    between atoms: C_1  and  C_2
REMARK    2  A    between atoms: C_2  and  C_3
REMARK    3  A    between atoms: C_2  and  C_4
REMARK    4  A    between atoms: C_7  and  N_10
REMARK    5  A    between atoms: C_13  and  C_27
REMARK    6  A    between atoms: C_16  and  O_26
REMARK    7  A    between atoms: C_18  and  O_25
REMARK    8  A    between atoms: N_29  and  C_30
REMARK                            x       y       z     vdW  Elec       q    Type
REMARK                         _______ _______ _______ _____ _____    ______ ____
ROOT
ATOM      1  N   UNL     1       1.823   0.639  -1.405  0.00  0.00    -0.277 N 
ATOM      2  C   UNL     1       2.662   1.377  -0.462  0.00  0.00    +0.115 C 
ATOM      3  C   UNL     1       3.064   0.611   0.748  0.00  0.00    +0.100 C 
ATOM      4  C   UNL     1       2.218   0.838   1.978  0.00  0.00    +0.048 C 
ATOM      5  C   UNL     1       1.939   2.309   2.209  0.00  0.00    +0.146 C 
ATOM      6  C   UNL     1       1.300   2.968   1.013  0.00  0.00    +0.165 C 
ATOM      7  C   UNL     1       2.001   2.727  -0.303  0.00  0.00    +0.124 C 
ATOM      8  N   UNL     1       0.975   2.723  -1.374  0.00  0.00    -0.319 N 
ATOM      9  C   UNL     1       0.914   1.494  -1.907  0.00  0.00    +0.138 C 
ATOM     10  S   UNL     1      -0.216   1.053  -3.115  0.00  0.00    -0.018 S 
ATOM     11  H   UNL     1       0.439   3.484  -1.646  0.00  0.00    +0.148 HD
ENDROOT
BRANCH   1  15
ATOM     12  C   UNL     1       2.185  -3.397  -2.369  0.00  0.00    -0.045 A 
ATOM     13  C   UNL     1       0.934  -2.851  -2.146  0.00  0.00    +0.006 A 
ATOM     14  C   UNL     1       0.811  -1.513  -1.826  0.00  0.00    +0.024 A 
ATOM     15  C   UNL     1       1.944  -0.716  -1.729  0.00  0.00    +0.036 A 
ATOM     16  C   UNL     1       3.198  -1.267  -1.959  0.00  0.00    +0.024 A 
ATOM     17  C   UNL     1       3.315  -2.607  -2.273  0.00  0.00    +0.006 A 
BRANCH  12  19
ATOM     18  C   UNL     1       3.258  -5.013  -3.915  0.00  0.00    +0.012 C 
ATOM     19  C   UNL     1       2.316  -4.857  -2.719  0.00  0.00    +0.013 C 
ATOM     20  C   UNL     1       2.883  -5.620  -1.520  0.00  0.00    +0.012 C 
ENDBRANCH  12  19
ENDBRANCH   1  15
BRANCH   3  21
ATOM     21  C   UNL     1       3.022  -0.858   0.412  0.00  0.00    +0.222 C 
ATOM     22  O   UNL     1       1.957  -1.434   0.343  0.00  0.00    -0.275 OA
ATOM     23  N   UNL     1       4.168  -1.531   0.187  0.00  0.00    -0.285 N 
ATOM     24  H   UNL     1       4.971  -1.050  -0.070  0.00  0.00    +0.155 HD
BRANCH  23  25
ATOM     25  C   UNL     1       4.200  -2.923   0.325  0.00  0.00    +0.033 A 
ATOM     26  C   UNL     1       3.078  -3.603   0.779  0.00  0.00    +0.023 A 
ATOM     27  C   UNL     1       3.111  -4.978   0.909  0.00  0.00    +0.002 A 
ATOM     28  C   UNL     1       4.264  -5.676   0.598  0.00  0.00    +0.000 A 
ATOM     29  C   UNL     1       5.385  -5.000   0.152  0.00  0.00    +0.002 A 
ATOM     30  C   UNL     1       5.357  -3.626   0.014  0.00  0.00    +0.023 A 
ENDBRANCH  23  25
ENDBRANCH   3  21
BRANCH   6  31
ATOM     31  O   UNL     1      -0.041   2.489   0.899  0.00  0.00    -0.387 OA
ATOM     32  H   UNL     1      -0.593   2.677   1.670  0.00  0.00    +0.210 HD
ENDBRANCH   6  31
BRANCH   5  33
ATOM     33  O   UNL     1       3.171   2.973   2.497  0.00  0.00    -0.389 OA
ATOM     34  H   UNL     1       3.625   2.637   3.282  0.00  0.00    +0.210 HD
ENDBRANCH   5  33
TORSDOF 6
