REMARK  Name = ZINC39465702
REMARK  5 active torsions:
REMARK  status: ('A' for Active; 'I' for Inactive)
REMARK    1  A    between atoms: C_1  and  C_2
REMARK    2  A    between atoms: C_2  and  O_3
REMARK    3  A    between atoms: O_3  and  P_4
REMARK    4  A    between atoms: C_13  and  C_20
REMARK    5  A    between atoms: C_25  and  O_26
REMARK                            x       y       z     vdW  Elec       q    Type
REMARK                         _______ _______ _______ _____ _____    ______ ____
ROOT
ATOM      1  P   UNL     1      -1.694  -2.069   0.007  0.00  0.00    +0.421 P 
ATOM      2  O   UNL     1      -0.893  -2.777   1.031  0.00  0.00    -0.239 OA
ATOM      3  N   UNL     1      -1.412  -2.714  -1.489  0.00  0.00    -0.156 NA
ATOM      4  N   UNL     1      -2.377  -2.492  -2.447  0.00  0.00    -0.224 NA
ATOM      5  C   UNL     1      -1.988  -3.142  -3.707  0.00  0.00    +0.108 C 
ATOM      6  C   UNL     1      -2.881  -2.614  -4.829  0.00  0.00    +0.052 C 
ATOM      7  C   UNL     1      -4.329  -2.747  -4.430  0.00  0.00    -0.040 A 
ATOM      8  C   UNL     1      -5.295  -2.701  -5.425  0.00  0.00    +0.020 A 
ATOM      9  C   UNL     1      -6.632  -2.818  -5.107  0.00  0.00    +0.026 A 
ATOM     10  C   UNL     1      -7.013  -2.983  -3.776  0.00  0.00    -0.000 A 
ATOM     11  C   UNL     1      -6.040  -3.027  -2.783  0.00  0.00    +0.015 A 
ATOM     12  C   UNL     1      -4.699  -2.909  -3.111  0.00  0.00    -0.023 A 
ATOM     13  C   UNL     1      -3.686  -2.965  -1.997  0.00  0.00    +0.130 C 
ATOM     14  C   UNL     1      -4.196  -2.132  -0.817  0.00  0.00    +0.196 C 
ATOM     15  O   UNL     1      -3.281  -2.287   0.286  0.00  0.00    -0.294 OA
ATOM     16 BR   UNL     1      -7.942  -2.756  -6.470  0.00  0.00    -0.050 Br
ATOM     17  H   UNL     1      -0.609  -3.221  -1.683  0.00  0.00    +0.153 HD
ENDROOT
BRANCH  10  18
ATOM     18  C   UNL     1      -8.447  -3.110  -3.421  0.00  0.00    +0.025 A 
ATOM     19  C   UNL     1      -9.067  -2.127  -2.652  0.00  0.00    +0.012 A 
ATOM     20  C   UNL     1     -10.402  -2.250  -2.324  0.00  0.00    +0.001 A 
ATOM     21  C   UNL     1     -11.128  -3.346  -2.756  0.00  0.00    +0.004 A 
ATOM     22  C   UNL     1     -10.523  -4.327  -3.519  0.00  0.00    +0.046 A 
ATOM     23  C   UNL     1      -9.185  -4.213  -3.861  0.00  0.00    +0.125 A 
BRANCH  23  24
ATOM     24  O   UNL     1      -8.590  -5.173  -4.616  0.00  0.00    -0.506 OA
ATOM     25  H   UNL     1      -8.197  -5.891  -4.101  0.00  0.00    +0.292 HD
ENDBRANCH  23  24
ENDBRANCH  10  18
BRANCH   1  26
ATOM     26  O   UNL     1      -1.339  -0.499   0.012  0.00  0.00    -0.296 OA
BRANCH  26  28
ATOM     27  C   UNL     1      -0.019   1.526   0.010  0.00  0.00    +0.035 C 
ATOM     28  C   UNL     1       0.002  -0.004   0.002  0.00  0.00    +0.168 C 
ENDBRANCH  26  28
ENDBRANCH   1  26
TORSDOF 4
