REMARK  Name = ZINC22627648
REMARK  5 active torsions:
REMARK  status: ('A' for Active; 'I' for Inactive)
REMARK    1  A    between atoms: C_1  and  C_2
REMARK    2  A    between atoms: C_8  and  C_10
REMARK    3  A    between atoms: C_10  and  C_12
REMARK    4  A    between atoms: C_10  and  N_19
REMARK    5  A    between atoms: C_22  and  O_25
REMARK                            x       y       z     vdW  Elec       q    Type
REMARK                         _______ _______ _______ _____ _____    ______ ____
ROOT
ATOM      1  C   UNL     1      -2.514   0.979   0.020  0.00  0.00    +0.007 C 
ENDROOT
BRANCH   1   9
ATOM      2  C   UNL     1      -6.028   1.381  -6.547  0.00  0.00    +0.090 C 
ATOM      3  C   UNL     1      -5.229   1.181  -5.285  0.00  0.00    +0.150 A 
ATOM      4  N   UNL     1      -4.255   0.286  -5.123  0.00  0.00    -0.205 NA
ATOM      5  C   UNL     1      -3.778   0.383  -3.912  0.00  0.00    +0.199 A 
ATOM      6  N   UNL     1      -4.440   1.363  -3.237  0.00  0.00    -0.170 N 
ATOM      7  N   UNL     1      -5.381   1.856  -4.178  0.00  0.00    -0.147 NA
ATOM      8  C   UNL     1      -4.064   1.595  -1.936  0.00  0.00    +0.282 A 
ATOM      9  C   UNL     1      -3.079   0.885  -1.374  0.00  0.00    +0.050 A 
ATOM     10  S   UNL     1      -2.614  -0.209  -2.708  0.00  0.00    -0.050 S 
ATOM     11  O   UNL     1      -4.697   2.558  -1.214  0.00  0.00    -0.265 OA
ENDBRANCH   1   9
BRANCH   1  12
ATOM     12  C   UNL     1      -1.117   1.540  -0.042  0.00  0.00    -0.038 A 
ATOM     13  C   UNL     1      -0.031   0.687  -0.113  0.00  0.00    +0.004 A 
ATOM     14  C   UNL     1       1.250   1.201  -0.174  0.00  0.00    +0.000 A 
ATOM     15  C   UNL     1       1.448   2.570  -0.160  0.00  0.00    +0.001 A 
ATOM     16  C   UNL     1       0.364   3.424  -0.084  0.00  0.00    +0.020 A 
ATOM     17  C   UNL     1      -0.919   2.909  -0.022  0.00  0.00    +0.043 A 
ATOM     18 CL   UNL     1      -2.281   3.982   0.074  0.00  0.00    -0.083 Cl
ENDBRANCH   1  12
BRANCH   1  19
ATOM     19  N   UNL     1      -2.478  -0.359   0.625  0.00  0.00    +0.388 N 
ATOM     20  C   UNL     1      -3.780  -1.026   0.503  0.00  0.00    -0.075 C 
ATOM     21  C   UNL     1      -3.667  -2.465   1.011  0.00  0.00    +0.013 C 
ATOM     22  C   UNL     1      -3.215  -2.451   2.474  0.00  0.00    +0.111 C 
ATOM     23  C   UNL     1      -1.880  -1.708   2.580  0.00  0.00    +0.013 C 
ATOM     24  C   UNL     1      -2.046  -0.291   2.027  0.00  0.00    -0.075 C 
ATOM     25  H   UNL     1      -1.740  -0.961   0.075  0.00  0.00    -0.080 HD
BRANCH  22  26
ATOM     26  O   UNL     1      -3.052  -3.793   2.937  0.00  0.00    -0.392 OA
ATOM     27  H   UNL     1      -2.730  -3.983   3.972  0.00  0.00    +0.210 HD
ENDBRANCH  22  26
ENDBRANCH   1  19
TORSDOF 4
