REMARK  Name = ZINC33700725
REMARK  7 active torsions:
REMARK  status: ('A' for Active; 'I' for Inactive)
REMARK    1  A    between atoms: C_4  and  C_7
REMARK    2  A    between atoms: C_7  and  N_8
REMARK    3  A    between atoms: C_9  and  C_18
REMARK    4  A    between atoms: C_12  and  S_13
REMARK    5  A    between atoms: S_13  and  C_14
REMARK    6  A    between atoms: C_14  and  C_15
REMARK    7  A    between atoms: C_20  and  C_24
REMARK                            x       y       z     vdW  Elec       q    Type
REMARK                         _______ _______ _______ _____ _____    ______ ____
ROOT
ATOM      1  N   UNL     1       6.605   6.003  -0.134  0.00  0.00    -0.298 N 
ATOM      2  C   UNL     1       5.404   5.333  -0.141  0.00  0.00    +0.167 A 
ATOM      3  N   UNL     1       4.460   6.236   0.004  0.00  0.00    -0.128 NA
ATOM      4  N   UNL     1       4.982   7.405   0.108  0.00  0.00    -0.122 NA
ATOM      5  C   UNL     1       6.289   7.325   0.028  0.00  0.00    +0.193 A 
ENDROOT
BRANCH   2   6
ATOM      6  C   UNL     1       5.211   3.877  -0.289  0.00  0.00    +0.048 C 
ATOM      7  C   UNL     1       5.947   2.976   0.471  0.00  0.00    +0.006 C 
ATOM      8  C   UNL     1       5.744   1.640   0.292  0.00  0.00    +0.106 C 
ATOM      9  S   UNL     1       4.477   1.605  -0.965  0.00  0.00    -0.094 S 
ATOM     10  C   UNL     1       4.287   3.365  -1.194  0.00  0.00    +0.099 C 
ATOM     11  N   UNL     1       3.438   4.047  -2.054  0.00  0.00    -0.292 NA
ATOM     12  H   UNL     1       3.443   5.147  -2.075  0.00  0.00    +0.187 HD
BRANCH   8  13
ATOM     13  C   UNL     1       6.402   0.506   0.972  0.00  0.00    -0.030 A 
ATOM     14  C   UNL     1       7.381   0.740   1.939  0.00  0.00    +0.005 A 
ATOM     15  C   UNL     1       7.991  -0.324   2.571  0.00  0.00    +0.000 A 
ATOM     16  C   UNL     1       7.635  -1.621   2.247  0.00  0.00    +0.000 A 
ATOM     17  C   UNL     1       6.666  -1.861   1.289  0.00  0.00    +0.000 A 
ATOM     18  C   UNL     1       6.047  -0.806   0.650  0.00  0.00    +0.005 A 
ENDBRANCH   8  13
ENDBRANCH   2   6
BRANCH   1  19
ATOM     19  C   UNL     1       7.944   5.423  -0.271  0.00  0.00    +0.161 C 
BRANCH  19  23
ATOM     20  C   UNL     1       8.976   5.183  -4.409  0.00  0.00    +0.000 A 
ATOM     21  C   UNL     1       9.257   6.331  -3.692  0.00  0.00    +0.000 A 
ATOM     22  C   UNL     1       8.923   6.409  -2.353  0.00  0.00    +0.005 A 
ATOM     23  C   UNL     1       8.308   5.338  -1.731  0.00  0.00    -0.028 A 
ATOM     24  C   UNL     1       8.031   4.189  -2.447  0.00  0.00    +0.005 A 
ATOM     25  C   UNL     1       8.360   4.113  -3.787  0.00  0.00    +0.000 A 
ENDBRANCH  19  23
ENDBRANCH   1  19
BRANCH   5  26
ATOM     26  S   UNL     1       7.425   8.669   0.111  0.00  0.00    -0.077 S 
BRANCH  26  27
ATOM     27  C   UNL     1       6.269  10.046   0.326  0.00  0.00    +0.172 C 
BRANCH  27  28
ATOM     28  C   UNL     1       7.038  11.338   0.424  0.00  0.00    +0.221 C 
ATOM     29  O   UNL     1       8.249  11.329   0.356  0.00  0.00    -0.275 OA
ATOM     30  N   UNL     1       6.380  12.503   0.588  0.00  0.00    -0.329 N 
ATOM     31  H   UNL     1       6.942  13.446   0.659  0.00  0.00    +0.145 HD
ATOM     32  H   UNL     1       5.282  12.510   0.650  0.00  0.00    +0.145 HD
ENDBRANCH  27  28
ENDBRANCH  26  27
ENDBRANCH   5  26
TORSDOF 7
