REMARK  Name = ZINC66699931
REMARK  4 active torsions:
REMARK  status: ('A' for Active; 'I' for Inactive)
REMARK    1  A    between atoms: C_11  and  N_13
REMARK    2  A    between atoms: N_16  and  C_17
REMARK    3  A    between atoms: C_17  and  C_18
REMARK    4  A    between atoms: C_22  and  C_24
REMARK                            x       y       z     vdW  Elec       q    Type
REMARK                         _______ _______ _______ _____ _____    ______ ____
ROOT
ATOM      1  N   UNL     1       3.357   3.505   0.748  0.00  0.00    -0.293 N 
ATOM      2  C   UNL     1       2.740   4.559   0.178  0.00  0.00    +0.300 C 
ATOM      3  O   UNL     1       2.402   4.509  -0.988  0.00  0.00    -0.253 OA
ATOM      4  N   UNL     1       2.499   5.670   0.902  0.00  0.00    -0.292 N 
ATOM      5  H   UNL     1       3.627   3.545   1.679  0.00  0.00    +0.151 HD
ATOM      6  H   UNL     1       2.769   5.711   1.833  0.00  0.00    +0.151 HD
ENDROOT
BRANCH   1  17
ATOM      7  C   UNL     1      -0.017   1.379   0.010  0.00  0.00    +0.003 A 
ATOM      8  C   UNL     1       1.166   2.086   0.002  0.00  0.00    +0.007 A 
ATOM      9  C   UNL     1       2.395   1.430  -0.008  0.00  0.00    -0.011 A 
ATOM     10  C   UNL     1       2.412   0.048  -0.001  0.00  0.00    +0.048 A 
ATOM     11  C   UNL     1       1.212  -0.667  -0.004  0.00  0.00    +0.137 A 
ATOM     12  C   UNL     1       0.002  -0.004   0.002  0.00  0.00    +0.039 A 
ATOM     13  F   UNL     1       1.237  -2.018  -0.015  0.00  0.00    -0.204 F 
ATOM     14  S   UNL     1       3.920  -0.868   0.033  0.00  0.00    -0.122 S 
ATOM     15  C   UNL     1       5.181   0.385  -0.344  0.00  0.00    +0.076 C 
ATOM     16  C   UNL     1       4.862   1.620   0.511  0.00  0.00    +0.038 C 
ATOM     17  C   UNL     1       3.619   2.297  -0.039  0.00  0.00    +0.107 C 
ENDBRANCH   1  17
BRANCH   4  18
ATOM     18  C   UNL     1       1.829   6.817   0.283  0.00  0.00    +0.181 C 
BRANCH  18  19
ATOM     19  C   UNL     1       1.681   7.920   1.299  0.00  0.00    +0.143 A 
ATOM     20  N   UNL     1       2.522   8.957   1.463  0.00  0.00    -0.261 N 
ATOM     21  H   UNL     1       3.330   9.135   0.957  0.00  0.00    +0.190 HD
ATOM     22  N   UNL     1       2.002   9.733   2.512  0.00  0.00    -0.152 NA
ATOM     23  C   UNL     1       0.899   9.134   2.913  0.00  0.00    +0.188 A 
ATOM     24  N   UNL     1       0.711   8.037   2.166  0.00  0.00    -0.209 NA
BRANCH  23  25
ATOM     25  C   UNL     1       0.014   9.599   4.003  0.00  0.00    +0.058 A 
ATOM     26  C   UNL     1       0.132  10.707   4.798  0.00  0.00    +0.019 A 
ATOM     27  C   UNL     1      -0.827  10.938   5.759  0.00  0.00    +0.008 A 
ATOM     28  C   UNL     1      -1.857  10.063   5.889  0.00  0.00    +0.046 A 
ATOM     29  S   UNL     1      -1.492   8.864   4.618  0.00  0.00    -0.093 S 
ENDBRANCH  23  25
ENDBRANCH  18  19
ENDBRANCH   4  18
TORSDOF 4
