REMARK  Name = ZINC35611512
REMARK  6 active torsions:
REMARK  status: ('A' for Active; 'I' for Inactive)
REMARK    1  A    between atoms: C_4  and  C_7
REMARK    2  A    between atoms: C_7  and  C_9
REMARK    3  A    between atoms: C_7  and  O_21
REMARK    4  A    between atoms: C_9  and  N_10
REMARK    5  A    between atoms: N_10  and  S_11
REMARK    6  A    between atoms: S_11  and  C_14
REMARK                            x       y       z     vdW  Elec       q    Type
REMARK                         _______ _______ _______ _____ _____    ______ ____
ROOT
ATOM      1  N   UNL     1       5.358  -1.774  -1.497  0.00  0.00    -0.187 NA
ATOM      2  H   UNL     1       5.930  -1.764  -0.714  0.00  0.00    +0.148 HD
ENDROOT
BRANCH   1   3
ATOM      3  S   UNL     1       5.827  -2.599  -2.854  0.00  0.00    +0.060 S 
ATOM      4  O   UNL     1       7.104  -3.155  -2.570  0.00  0.00    -0.153 OA
ATOM      5  O   UNL     1       4.719  -3.397  -3.247  0.00  0.00    -0.153 OA
BRANCH   3   6
ATOM      6  C   UNL     1       6.069  -1.409  -4.131  0.00  0.00    +0.127 A 
ATOM      7  C   UNL     1       7.326  -1.202  -4.668  0.00  0.00    +0.052 A 
ATOM      8  C   UNL     1       7.476  -0.278  -5.650  0.00  0.00    +0.058 A 
ATOM      9  S   UNL     1       5.810   0.334  -5.841  0.00  0.00    -0.073 S 
ATOM     10  C   UNL     1       5.024  -0.687  -4.605  0.00  0.00    +0.082 A 
ATOM     11 BR   UNL     1       3.205  -0.743  -4.089  0.00  0.00    -0.041 Br
ATOM     12 BR   UNL     1       9.045   0.231  -6.575  0.00  0.00    -0.042 Br
ENDBRANCH   3   6
ENDBRANCH   1   3
BRANCH   1  13
ATOM     13  C   UNL     1       4.080  -1.059  -1.480  0.00  0.00    +0.142 C 
BRANCH  13  14
ATOM     14  C   UNL     1       3.711  -0.707  -0.038  0.00  0.00    +0.160 C 
BRANCH  14  18
ATOM     15  C   UNL     1      -0.017   1.378   0.010  0.00  0.00    +0.000 A 
ATOM     16  C   UNL     1       1.171   2.086   0.002  0.00  0.00    +0.000 A 
ATOM     17  C   UNL     1       2.377   1.411  -0.013  0.00  0.00    +0.006 A 
ATOM     18  C   UNL     1       2.396   0.029  -0.020  0.00  0.00    -0.018 A 
ATOM     19  C   UNL     1       1.208  -0.679  -0.012  0.00  0.00    +0.006 A 
ATOM     20  C   UNL     1       0.002  -0.004   0.002  0.00  0.00    +0.000 A 
ENDBRANCH  14  18
BRANCH  14  21
ATOM     21  O   UNL     1       3.596  -1.907   0.731  0.00  0.00    -0.386 OA
ATOM     22  H   UNL     1       2.922  -2.519   0.405  0.00  0.00    +0.210 HD
ENDBRANCH  14  21
ENDBRANCH  13  14
ENDBRANCH   1  13
TORSDOF 6
