REMARK  Name = ZINC07098063
REMARK  5 active torsions:
REMARK  status: ('A' for Active; 'I' for Inactive)
REMARK    1  A    between atoms: C_12  and  C_14
REMARK    2  A    between atoms: C_14  and  C_16
REMARK    3  A    between atoms: C_16  and  S_17
REMARK    4  A    between atoms: S_17  and  C_18
REMARK    5  A    between atoms: C_22  and  N_24
REMARK                            x       y       z     vdW  Elec       q    Type
REMARK                         _______ _______ _______ _____ _____    ______ ____
ROOT
ATOM      1  C   UNL     1       6.210  -4.226  -0.079  0.00  0.00    +0.173 C 
ATOM      2  O   UNL     1       5.774  -5.358  -0.081  0.00  0.00    -0.291 OA
ENDROOT
BRANCH   1  14
ATOM      3  C   UNL     1      -0.017   1.379   0.010  0.00  0.00    +0.000 A 
ATOM      4  C   UNL     1       1.171   2.090   0.002  0.00  0.00    +0.001 A 
ATOM      5  C   UNL     1       2.378   1.425  -0.013  0.00  0.00    +0.009 A 
ATOM      6  C   UNL     1       2.405   0.028  -0.021  0.00  0.00    -0.014 A 
ATOM      7  C   UNL     1       1.205  -0.678  -0.013  0.00  0.00    -0.035 A 
ATOM      8  C   UNL     1       0.002  -0.004   0.002  0.00  0.00    +0.004 A 
ATOM      9  C   UNL     1       1.541  -2.149  -0.024  0.00  0.00    +0.071 C 
ATOM     10  C   UNL     1       3.049  -2.232  -0.039  0.00  0.00    -0.035 A 
ATOM     11  C   UNL     1       3.540  -0.926  -0.037  0.00  0.00    -0.014 A 
ATOM     12  C   UNL     1       4.922  -0.708  -0.048  0.00  0.00    +0.009 A 
ATOM     13  C   UNL     1       5.789  -1.775  -0.062  0.00  0.00    +0.012 A 
ATOM     14  C   UNL     1       5.288  -3.082  -0.064  0.00  0.00    +0.019 A 
ATOM     15  C   UNL     1       3.904  -3.295  -0.053  0.00  0.00    +0.016 A 
ENDBRANCH   1  14
BRANCH   1  16
ATOM     16  C   UNL     1       7.699  -3.994  -0.091  0.00  0.00    +0.157 C 
BRANCH  16  17
ATOM     17  S   UNL     1       8.561  -5.590  -0.108  0.00  0.00    -0.078 S 
BRANCH  17  18
ATOM     18  C   UNL     1      10.268  -5.153  -0.122  0.00  0.00    +0.192 A 
ATOM     19  N   UNL     1      10.606  -3.872  -0.113  0.00  0.00    -0.207 NA
ATOM     20  C   UNL     1      11.885  -3.504  -0.122  0.00  0.00    +0.122 A 
ATOM     21  C   UNL     1      12.872  -4.486  -0.142  0.00  0.00    +0.086 A 
ATOM     22  C   UNL     1      12.478  -5.821  -0.151  0.00  0.00    +0.122 A 
ATOM     23  N   UNL     1      11.180  -6.114  -0.135  0.00  0.00    -0.207 NA
ATOM     24  N   UNL     1      12.230  -2.162  -0.113  0.00  0.00    -0.343 N 
ATOM     25  H   UNL     1      11.538  -1.483  -0.099  0.00  0.00    +0.144 HD
ATOM     26  H   UNL     1      13.165  -1.901  -0.120  0.00  0.00    +0.144 HD
BRANCH  22  27
ATOM     27  N   UNL     1      13.426  -6.832  -0.171  0.00  0.00    -0.343 N 
ATOM     28  H   UNL     1      14.370  -6.612  -0.178  0.00  0.00    +0.144 HD
ATOM     29  H   UNL     1      13.144  -7.761  -0.177  0.00  0.00    +0.144 HD
ENDBRANCH  22  27
ENDBRANCH  17  18
ENDBRANCH  16  17
ENDBRANCH   1  16
TORSDOF 5
