REMARK  Name = ZINC06607038
REMARK  9 active torsions:
REMARK  status: ('A' for Active; 'I' for Inactive)
REMARK    1  A    between atoms: C_1  and  O_2
REMARK    2  A    between atoms: O_2  and  C_3
REMARK    3  A    between atoms: C_8  and  C_9
REMARK    4  A    between atoms: C_9  and  C_11
REMARK    5  A    between atoms: C_9  and  N_59
REMARK    6  A    between atoms: C_11  and  N_12
REMARK    7  A    between atoms: C_13  and  C_15
REMARK    8  A    between atoms: C_15  and  C_16
REMARK    9  A    between atoms: C_16  and  C_17
REMARK                            x       y       z     vdW  Elec       q    Type
REMARK                         _______ _______ _______ _____ _____    ______ ____
ROOT
ATOM      1  N   UNL     1       0.031   1.492   0.066  0.00  0.00    -0.317 N 
ATOM      2  C   UNL     1      -1.123   2.187   0.046  0.00  0.00    +0.213 C 
ATOM      3  O   UNL     1      -2.179   1.605  -0.080  0.00  0.00    -0.276 OA
ATOM      4  H   UNL     1       0.876   1.958   0.163  0.00  0.00    +0.149 HD
ENDROOT
BRANCH   1   5
ATOM      5  C   UNL     1       0.010   0.033  -0.064  0.00  0.00    +0.093 C 
BRANCH   5   6
ATOM      6  C   UNL     1       1.445  -0.494  -0.140  0.00  0.00    -0.017 C 
BRANCH   6  12
ATOM      7  C   UNL     1       1.341  -2.862   0.677  0.00  0.00    +0.122 A 
ATOM      8  C   UNL     1       1.320  -4.229   0.444  0.00  0.00    +0.046 A 
ATOM      9  C   UNL     1       1.379  -4.709  -0.850  0.00  0.00    +0.004 A 
ATOM     10  C   UNL     1       1.460  -3.828  -1.912  0.00  0.00    +0.000 A 
ATOM     11  C   UNL     1       1.476  -2.465  -1.683  0.00  0.00    +0.005 A 
ATOM     12  C   UNL     1       1.422  -1.980  -0.390  0.00  0.00    -0.018 A 
BRANCH   7  14
ATOM     13  C   UNL     1       1.201  -3.354   2.999  0.00  0.00    +0.277 C 
ATOM     14  O   UNL     1       1.283  -2.388   1.950  0.00  0.00    -0.495 OA
ENDBRANCH   7  14
ENDBRANCH   6  12
BRANCH   6  19
ATOM     15  C   UNL     1       3.384  -0.569  -1.610  0.00  0.00    -0.078 C 
ATOM     16  C   UNL     1       3.686  -0.061  -3.043  0.00  0.00    -0.020 C 
ATOM     17  C   UNL     1       2.277   0.087  -3.661  0.00  0.00    -0.020 C 
ATOM     18  C   UNL     1       1.322   0.218  -2.460  0.00  0.00    -0.078 C 
ATOM     19  N   UNL     1       2.164   0.178  -1.264  0.00  0.00    +0.385 N 
ATOM     20  H   UNL     1       2.412   1.134  -0.982  0.00  0.00    -0.081 HD
ENDBRANCH   6  19
ENDBRANCH   5   6
ENDBRANCH   1   5
BRANCH   2  21
ATOM     21  C   UNL     1      -1.101   3.688   0.180  0.00  0.00    +0.103 C 
BRANCH  21  22
ATOM     22  C   UNL     1      -2.533   4.226   0.126  0.00  0.00    +0.083 C 
BRANCH  22  23
ATOM     23  C   UNL     1      -2.511   5.726   0.260  0.00  0.00    +0.111 A 
ATOM     24  N   UNL     1      -3.694   6.393   0.235  0.00  0.00    -0.310 N 
ATOM     25  H   UNL     1      -4.548   5.883   0.130  0.00  0.00    +0.170 HD
ATOM     26  C   UNL     1      -3.728   7.741   0.352  0.00  0.00    +0.259 A 
ATOM     27  O   UNL     1      -4.782   8.351   0.332  0.00  0.00    -0.267 OA
ATOM     28  C   UNL     1      -2.444   8.440   0.505  0.00  0.00    +0.065 A 
ATOM     29  C   UNL     1      -2.369   9.825   0.633  0.00  0.00    +0.015 A 
ATOM     30  C   UNL     1      -1.139  10.428   0.774  0.00  0.00    +0.001 A 
ATOM     31  C   UNL     1       0.024   9.668   0.789  0.00  0.00    +0.002 A 
ATOM     32  C   UNL     1      -0.029   8.298   0.664  0.00  0.00    +0.028 A 
ATOM     33  C   UNL     1      -1.264   7.663   0.520  0.00  0.00    +0.078 A 
ATOM     34  N   UNL     1      -1.362   6.316   0.398  0.00  0.00    -0.234 NA
ENDBRANCH  22  23
ENDBRANCH  21  22
ENDBRANCH   2  21
TORSDOF 8
