REMARK  Name = ZINC12455202
REMARK  6 active torsions:
REMARK  status: ('A' for Active; 'I' for Inactive)
REMARK    1  A    between atoms: C_3  and  C_21
REMARK    2  A    between atoms: C_5  and  C_6
REMARK    3  A    between atoms: C_6  and  N_61
REMARK    4  A    between atoms: C_9  and  C_12
REMARK    5  A    between atoms: C_12  and  C_13
REMARK    6  A    between atoms: C_13  and  C_14
REMARK                            x       y       z     vdW  Elec       q    Type
REMARK                         _______ _______ _______ _____ _____    ______ ____
ROOT
ATOM      1  C   UNL     1      -2.207   1.109  -1.184  0.00  0.00    -0.078 C 
ATOM      2  C   UNL     1      -0.756   1.594  -1.230  0.00  0.00    -0.015 C 
ATOM      3  C   UNL     1      -0.013   1.086   0.008  0.00  0.00    -0.014 C 
ATOM      4  C   UNL     1      -0.732   1.581   1.266  0.00  0.00    -0.015 C 
ATOM      5  C   UNL     1      -2.185   1.096   1.239  0.00  0.00    -0.078 C 
ATOM      6  N   UNL     1      -2.851   1.640   0.036  0.00  0.00    +0.383 N 
ATOM      7  H   UNL     1      -2.764   2.663   0.041  0.00  0.00    -0.081 HD
ENDROOT
BRANCH   6   8
ATOM      8  C   UNL     1      -4.284   1.280   0.048  0.00  0.00    -0.036 C 
BRANCH   8  13
ATOM      9  C   UNL     1      -5.534   3.239   1.179  0.00  0.00    +0.009 A 
ATOM     10  C   UNL     1      -6.100   3.714   2.347  0.00  0.00    +0.014 A 
ATOM     11  C   UNL     1      -6.065   2.938   3.458  0.00  0.00    +0.019 A 
ATOM     12  S   UNL     1      -5.216   1.483   2.865  0.00  0.00    -0.097 S 
ATOM     13  C   UNL     1      -4.959   2.012   1.179  0.00  0.00    -0.026 A 
BRANCH  11  14
ATOM     14  C   UNL     1      -6.605   3.226   4.834  0.00  0.00    +0.155 C 
ATOM     15  C   UNL     1      -7.951   2.518   5.013  0.00  0.00    +0.037 C 
ATOM     16  C   UNL     1      -8.465   2.766   6.434  0.00  0.00    +0.005 C 
ATOM     17  C   UNL     1      -7.414   2.280   7.438  0.00  0.00    +0.028 C 
ATOM     18  C   UNL     1      -6.090   2.997   7.165  0.00  0.00    +0.160 C 
ATOM     19  O   UNL     1      -5.684   2.750   5.817  0.00  0.00    -0.371 OA
ENDBRANCH  11  14
ENDBRANCH   8  13
ENDBRANCH   6   8
BRANCH   3  20
ATOM     20  C   UNL     1       1.422   1.617  -0.003  0.00  0.00    +0.012 C 
BRANCH  20  21
ATOM     21  C   UNL     1       2.199   1.011   1.168  0.00  0.00    +0.096 C 
BRANCH  21  22
ATOM     22  C   UNL     1       3.612   1.534   1.157  0.00  0.00    +0.216 C 
ATOM     23  O   UNL     1       3.964   2.314   0.298  0.00  0.00    -0.276 OA
ATOM     24  N   UNL     1       4.486   1.135   2.103  0.00  0.00    -0.301 N 
ATOM     25  C   UNL     1       4.192   0.203   3.202  0.00  0.00    +0.108 C 
ATOM     26  C   UNL     1       5.480   0.065   4.041  0.00  0.00    +0.020 C 
ATOM     27  C   UNL     1       6.254   1.366   3.704  0.00  0.00    +0.020 C 
ATOM     28  C   UNL     1       5.891   1.565   2.211  0.00  0.00    +0.108 C 
ENDBRANCH  21  22
ENDBRANCH  20  21
ENDBRANCH   3  20
TORSDOF 6
