REMARK  Name = ZINC16662871
REMARK  7 active torsions:
REMARK  status: ('A' for Active; 'I' for Inactive)
REMARK    1  A    between atoms: C_1  and  C_2
REMARK    2  A    between atoms: C_2  and  N_3
REMARK    3  A    between atoms: N_3  and  C_4
REMARK    4  A    between atoms: N_3  and  C_11
REMARK    5  A    between atoms: C_4  and  C_5
REMARK    6  A    between atoms: C_11  and  C_12
REMARK    7  A    between atoms: C_17  and  O_18
REMARK                            x       y       z     vdW  Elec       q    Type
REMARK                         _______ _______ _______ _____ _____    ______ ____
ROOT
ATOM      1  N   UNL     1       0.578  -0.459  -1.267  0.00  0.00    +0.385 N 
ATOM      2  H   UNL     1       0.122   0.069  -1.996  0.00  0.00    -0.081 HD
ENDROOT
BRANCH   1   4
ATOM      3  C   UNL     1       0.118   1.441   0.208  0.00  0.00    -0.017 C 
ATOM      4  C   UNL     1       0.020  -0.076   0.037  0.00  0.00    -0.081 C 
ENDBRANCH   1   4
BRANCH   1   5
ATOM      5  C   UNL     1       2.019  -0.176  -1.285  0.00  0.00    -0.043 C 
BRANCH   5   6
ATOM      6  C   UNL     1       2.565  -0.436  -2.666  0.00  0.00    -0.064 A 
ATOM      7  C   UNL     1       3.147  -1.654  -2.961  0.00  0.00    +0.002 A 
ATOM      8  C   UNL     1       3.648  -1.892  -4.227  0.00  0.00    +0.000 A 
ATOM      9  C   UNL     1       3.565  -0.912  -5.198  0.00  0.00    +0.000 A 
ATOM     10  C   UNL     1       2.982   0.306  -4.904  0.00  0.00    +0.000 A 
ATOM     11  C   UNL     1       2.478   0.542  -3.639  0.00  0.00    +0.002 A 
ENDBRANCH   5   6
ENDBRANCH   1   5
BRANCH   1  12
ATOM     12  C   UNL     1       0.358  -1.894  -1.491  0.00  0.00    -0.039 C 
BRANCH  12  13
ATOM     13  C   UNL     1      -1.121  -2.166  -1.595  0.00  0.00    -0.020 A 
ATOM     14  C   UNL     1      -1.811  -2.661  -0.505  0.00  0.00    +0.019 A 
ATOM     15  C   UNL     1      -3.168  -2.910  -0.599  0.00  0.00    +0.015 A 
ATOM     16  C   UNL     1      -3.838  -2.665  -1.784  0.00  0.00    +0.032 A 
ATOM     17  C   UNL     1      -3.152  -2.170  -2.877  0.00  0.00    +0.056 A 
ATOM     18  C   UNL     1      -1.791  -1.913  -2.782  0.00  0.00    +0.131 A 
ATOM     19  I   UNL     1      -4.167  -1.799  -4.672  0.00  0.00    -0.040 I 
ATOM     20  I   UNL     1      -4.211  -3.662   1.055  0.00  0.00    -0.044 I 
BRANCH  18  21
ATOM     21  O   UNL     1      -1.115  -1.421  -3.854  0.00  0.00    -0.506 OA
ATOM     22  H   UNL     1      -0.749  -2.101  -4.435  0.00  0.00    +0.292 HD
ENDBRANCH  18  21
ENDBRANCH  12  13
ENDBRANCH   1  12
TORSDOF 6
