REMARK  Name = ZINC15841499
REMARK  8 active torsions:
REMARK  status: ('A' for Active; 'I' for Inactive)
REMARK    1  A    between atoms: C_4  and  C_7
REMARK    2  A    between atoms: C_9  and  C_13
REMARK    3  A    between atoms: N_15  and  N_16
REMARK    4  A    between atoms: C_17  and  C_19
REMARK    5  A    between atoms: C_20  and  C_21
REMARK    6  A    between atoms: C_24  and  O_27
REMARK    7  A    between atoms: O_27  and  C_28
REMARK    8  A    between atoms: C_28  and  C_29
REMARK                            x       y       z     vdW  Elec       q    Type
REMARK                         _______ _______ _______ _____ _____    ______ ____
ROOT
ATOM      1  C   UNL     1       2.495   1.546  -0.014  0.00  0.00    +0.278 C 
ATOM      2  O   UNL     1       2.808   0.370  -0.024  0.00  0.00    -0.267 OA
ATOM      3  N   UNL     1       3.450   2.497  -0.018  0.00  0.00    -0.229 N 
ATOM      4  H   UNL     1       3.201   3.434  -0.010  0.00  0.00    +0.173 HD
ENDROOT
BRANCH   1   7
ATOM      5  C   UNL     1      -1.142   1.914   0.017  0.00  0.00    +0.093 A 
ATOM      6  C   UNL     1      -0.013   1.076   0.008  0.00  0.00    +0.062 A 
ATOM      7  C   UNL     1       1.074   1.929   0.002  0.00  0.00    +0.122 A 
ATOM      8  N   UNL     1       0.570   3.199   0.014  0.00  0.00    -0.272 N 
ATOM      9  H   UNL     1       1.118   4.035   0.013  0.00  0.00    +0.189 HD
ATOM     10  N   UNL     1      -0.714   3.159   0.026  0.00  0.00    -0.173 NA
BRANCH   5  14
ATOM     11  C   UNL     1      -5.205   0.655   0.025  0.00  0.00    +0.000 A 
ATOM     12  C   UNL     1      -4.901   2.005   0.032  0.00  0.00    +0.001 A 
ATOM     13  C   UNL     1      -3.585   2.419   0.029  0.00  0.00    +0.010 A 
ATOM     14  C   UNL     1      -2.560   1.475   0.020  0.00  0.00    +0.002 A 
ATOM     15  C   UNL     1      -2.872   0.117   0.007  0.00  0.00    +0.010 A 
ATOM     16  C   UNL     1      -4.191  -0.286   0.016  0.00  0.00    +0.001 A 
ENDBRANCH   5  14
ENDBRANCH   1   7
BRANCH   3  17
ATOM     17  N   UNL     1       4.803   2.132  -0.033  0.00  0.00    -0.231 N 
ATOM     18  C   UNL     1       5.757   3.083  -0.037  0.00  0.00    +0.253 C 
ATOM     19  O   UNL     1       5.444   4.260  -0.027  0.00  0.00    -0.269 OA
ATOM     20  H   UNL     1       5.052   1.195  -0.041  0.00  0.00    +0.173 HD
BRANCH  18  21
ATOM     21  C   UNL     1       7.169   2.703  -0.053  0.00  0.00    +0.069 C 
ATOM     22  C   UNL     1       8.125   3.655  -0.057  0.00  0.00    +0.013 C 
BRANCH  22  23
ATOM     23  C   UNL     1       9.544   3.272  -0.073  0.00  0.00    -0.025 A 
ATOM     24  C   UNL     1       9.907   1.920  -0.079  0.00  0.00    +0.011 A 
ATOM     25  C   UNL     1      11.238   1.567  -0.099  0.00  0.00    +0.046 A 
ATOM     26  C   UNL     1      12.220   2.550  -0.103  0.00  0.00    +0.122 A 
ATOM     27  C   UNL     1      11.866   3.895  -0.092  0.00  0.00    +0.046 A 
ATOM     28  C   UNL     1      10.538   4.258  -0.077  0.00  0.00    +0.011 A 
BRANCH  26  29
ATOM     29  O   UNL     1      13.531   2.197  -0.118  0.00  0.00    -0.477 OA
BRANCH  29  30
ATOM     30  C   UNL     1      13.825   0.799  -0.129  0.00  0.00    +0.346 C 
BRANCH  30  31
ATOM     31  C   UNL     1      15.284   0.605  -0.144  0.00  0.00    +0.104 C 
ATOM     32  N   UNL     1      16.410   0.455  -0.155  0.00  0.00    -0.193 NA
ENDBRANCH  30  31
ENDBRANCH  29  30
ENDBRANCH  26  29
ENDBRANCH  22  23
ENDBRANCH  18  21
ENDBRANCH   3  17
TORSDOF 8
