REMARK  Name = ZINC19863099
REMARK  7 active torsions:
REMARK  status: ('A' for Active; 'I' for Inactive)
REMARK    1  A    between atoms: C_1  and  C_2
REMARK    2  A    between atoms: C_11  and  C_14
REMARK    3  A    between atoms: N_15  and  N_16
REMARK    4  A    between atoms: C_17  and  C_19
REMARK    5  A    between atoms: C_19  and  O_20
REMARK    6  A    between atoms: O_20  and  C_21
REMARK    7  A    between atoms: C_26  and  C_27
REMARK                            x       y       z     vdW  Elec       q    Type
REMARK                         _______ _______ _______ _____ _____    ______ ____
ROOT
ATOM      1  N   UNL     1       0.500  -4.254  -0.027  0.00  0.00    -0.204 N 
ATOM      2  C   UNL     1      -0.608  -5.022  -0.021  0.00  0.00    +0.270 C 
ATOM      3  O   UNL     1      -1.705  -4.505  -0.008  0.00  0.00    -0.270 OA
ATOM      4  H   UNL     1       1.494  -4.723  -0.039  0.00  0.00    +0.177 HD
ENDROOT
BRANCH   1   6
ATOM      5  C   UNL     1       1.450  -2.117  -0.024  0.00  0.00    +0.145 C 
ATOM      6  N   UNL     1       0.384  -2.857  -0.018  0.00  0.00    -0.187 NA
BRANCH   5  17
ATOM      7  C   UNL     1       0.022   5.743   0.033  0.00  0.00    +0.045 C 
ATOM      8  C   UNL     1       0.013   4.236   0.025  0.00  0.00    -0.029 A 
ATOM      9  C   UNL     1       1.207   3.548   0.010  0.00  0.00    +0.051 A 
ATOM     10  C   UNL     1       1.208   2.157   0.002  0.00  0.00    +0.139 A 
ATOM     11  C   UNL     1      -0.018   1.472   0.010  0.00  0.00    +0.066 A 
ATOM     12  C   UNL     1      -1.220   2.178   0.031  0.00  0.00    +0.035 A 
ATOM     13  C   UNL     1      -1.198   3.557   0.033  0.00  0.00    +0.045 A 
ATOM     14 CL   UNL     1      -2.689   4.446   0.052  0.00  0.00    -0.083 Cl
ATOM     15  C   UNL     1       0.002  -0.004   0.002  0.00  0.00    +0.201 A 
ATOM     16  O   UNL     1      -1.026  -0.657   0.009  0.00  0.00    -0.286 OA
ATOM     17  C   UNL     1       1.328  -0.649  -0.014  0.00  0.00    +0.077 A 
ATOM     18  C   UNL     1       2.438   0.142  -0.020  0.00  0.00    +0.209 A 
ATOM     19  O   UNL     1       2.370   1.474  -0.013  0.00  0.00    -0.462 OA
ENDBRANCH   5  17
ENDBRANCH   1   6
BRANCH   2  20
ATOM     20  C   UNL     1      -0.483  -6.524  -0.031  0.00  0.00    +0.326 C 
BRANCH  20  21
ATOM     21  O   UNL     1      -1.786  -7.110  -0.022  0.00  0.00    -0.482 OA
BRANCH  21  22
ATOM     22  C   UNL     1      -1.852  -8.467  -0.029  0.00  0.00    +0.132 A 
ATOM     23  C   UNL     1      -0.688  -9.219  -0.050  0.00  0.00    +0.048 A 
ATOM     24  C   UNL     1      -0.756 -10.599  -0.051  0.00  0.00    +0.023 A 
ATOM     25  C   UNL     1      -1.984 -11.240  -0.043  0.00  0.00    +0.042 A 
ATOM     26  C   UNL     1      -3.152 -10.505  -0.028  0.00  0.00    +0.035 A 
ATOM     27  C   UNL     1      -3.095  -9.110  -0.021  0.00  0.00    +0.063 A 
ATOM     28 CL   UNL     1      -2.055 -12.975  -0.052  0.00  0.00    -0.084 Cl
BRANCH  27  29
ATOM     29  C   UNL     1      -4.341  -8.317  -0.005  0.00  0.00    +0.171 A 
ATOM     30  C   UNL     1      -5.419  -8.460  -0.838  0.00  0.00    +0.072 A 
ATOM     31  C   UNL     1      -6.321  -7.471  -0.398  0.00  0.00    +0.157 A 
ATOM     32  N   UNL     1      -5.741  -6.852   0.592  0.00  0.00    -0.086 NA
ATOM     33  O   UNL     1      -4.644  -7.304   0.826  0.00  0.00    -0.355 OA
ENDBRANCH  27  29
ENDBRANCH  21  22
ENDBRANCH  20  21
ENDBRANCH   2  20
TORSDOF 6
