REMARK  Name = ZINC49864536
REMARK  8 active torsions:
REMARK  status: ('A' for Active; 'I' for Inactive)
REMARK    1  A    between atoms: C_1  and  C_2
REMARK    2  A    between atoms: C_2  and  C_3
REMARK    3  A    between atoms: C_3  and  C_5
REMARK    4  A    between atoms: C_3  and  N_6
REMARK    5  A    between atoms: C_9  and  C_10
REMARK    6  A    between atoms: C_10  and  N_11
REMARK    7  A    between atoms: N_11  and  C_12
REMARK    8  A    between atoms: C_13  and  C_14
REMARK                            x       y       z     vdW  Elec       q    Type
REMARK                         _______ _______ _______ _____ _____    ______ ____
ROOT
ATOM      1  N   UNL     1      -0.224  -0.051  -2.286  0.00  0.00    -0.285 N 
ATOM      2  C   UNL     1       0.182   0.815  -3.235  0.00  0.00    +0.263 A 
ATOM      3  O   UNL     1       1.329   1.228  -3.239  0.00  0.00    -0.267 OA
ATOM      4  C   UNL     1      -0.726   1.240  -4.221  0.00  0.00    +0.097 A 
ATOM      5  C   UNL     1      -2.003   0.764  -4.194  0.00  0.00    +0.260 A 
ATOM      6  O   UNL     1      -2.895   1.155  -5.129  0.00  0.00    -0.267 OA
ATOM      7  N   UNL     1      -2.375  -0.117  -3.211  0.00  0.00    -0.302 N 
ATOM      8  C   UNL     1      -1.488  -0.514  -2.280  0.00  0.00    +0.164 A 
ATOM      9  S   UNL     1      -1.975  -1.619  -1.067  0.00  0.00    -0.013 S 
ATOM     10  H   UNL     1      -3.283  -0.459  -3.187  0.00  0.00    +0.171 HD
ENDROOT
BRANCH   1  11
ATOM     11  C   UNL     1       0.718  -0.497  -1.257  0.00  0.00    +0.089 C 
ATOM     12  C   UNL     1       1.241   0.715  -0.484  0.00  0.00    +0.031 C 
BRANCH  11  14
ATOM     13  C   UNL     1       1.379  -2.485  -2.619  0.00  0.00    +0.006 C 
ATOM     14  C   UNL     1       1.891  -1.224  -1.919  0.00  0.00    +0.021 C 
ENDBRANCH  11  14
ENDBRANCH   1  11
BRANCH   4  15
ATOM     15  C   UNL     1      -0.294   2.208  -5.292  0.00  0.00    +0.129 C 
BRANCH  15  16
ATOM     16  N   UNL     1      -0.420   3.583  -4.789  0.00  0.00    -0.407 NA
ATOM     17  H   UNL     1      -1.381   3.763  -4.540  0.00  0.00    +0.123 HD
ATOM     18  H   UNL     1       0.165   3.698  -3.975  0.00  0.00    +0.123 HD
BRANCH  16  19
ATOM     19  C   UNL     1      -0.019   4.481  -5.783  0.00  0.00    +0.050 C 
ATOM     20  C   UNL     1      -0.840   5.450  -6.173  0.00  0.00    +0.016 C 
BRANCH  20  21
ATOM     21  C   UNL     1      -0.418   6.395  -7.218  0.00  0.00    -0.050 C 
ATOM     22  C   UNL     1      -1.257   7.342  -7.572  0.00  0.00    -0.023 C 
ATOM     23  C   UNL     1      -0.964   8.367  -8.629  0.00  0.00    +0.027 C 
ATOM     24  C   UNL     1       0.540   8.420  -8.907  0.00  0.00    +0.004 C 
ATOM     25  C   UNL     1       1.043   6.990  -9.139  0.00  0.00    +0.005 C 
ATOM     26  C   UNL     1       0.949   6.225  -7.815  0.00  0.00    +0.035 C 
ENDBRANCH  20  21
ENDBRANCH  16  19
ENDBRANCH  15  16
ENDBRANCH   4  15
TORSDOF 6
