REMARK  Name = ZINC43410478
REMARK  1 active torsions:
REMARK  status: ('A' for Active; 'I' for Inactive)
REMARK    1  A    between atoms: C_6  and  C_7
REMARK                            x       y       z     vdW  Elec       q    Type
REMARK                         _______ _______ _______ _____ _____    ______ ____
ROOT
ATOM      1  C   UNL     1      -0.017   1.390  -0.062  0.00  0.00    +0.020 A 
ATOM      2  C   UNL     1       1.190   2.073  -0.139  0.00  0.00    -0.025 A 
ATOM      3  C   UNL     1       2.373   1.368  -0.075  0.00  0.00    +0.047 A 
ATOM      4  N   UNL     1       2.361   0.047   0.052  0.00  0.00    -0.232 NA
ATOM      5  C   UNL     1       1.244  -0.649   0.128  0.00  0.00    +0.165 A 
ATOM      6  C   UNL     1       0.002   0.001   0.076  0.00  0.00    +0.056 A 
ATOM      7  N   UNL     1       1.297  -2.035   0.262  0.00  0.00    -0.220 N 
ATOM      8  C   UNL     1       2.307  -2.843  -0.160  0.00  0.00    +0.131 A 
ATOM      9  C   UNL     1       1.972  -4.115   0.158  0.00  0.00    +0.056 A 
ATOM     10  C   UNL     1       0.724  -4.088   0.791  0.00  0.00    +0.150 A 
ATOM     11  N   UNL     1       0.322  -2.845   0.859  0.00  0.00    -0.172 NA
ATOM     12 BR   UNL     1       3.009  -5.657  -0.192  0.00  0.00    -0.047 Br
ATOM     13  C   UNL     1       3.718   2.046  -0.134  0.00  0.00    +0.056 C 
ATOM     14  C   UNL     1       3.585   3.455  -0.707  0.00  0.00    +0.006 C 
ATOM     15  C   UNL     1       2.487   4.192   0.069  0.00  0.00    +0.005 C 
ATOM     16  C   UNL     1       1.141   3.570  -0.294  0.00  0.00    +0.037 C 
ENDROOT
BRANCH   6  17
ATOM     17  C   UNL     1      -1.257  -0.767   0.164  0.00  0.00    +0.098 C 
ATOM     18  N   UNL     1      -2.144  -0.484   1.117  0.00  0.00    -0.387 N 
ATOM     19  N   UNL     1      -1.506  -1.742  -0.709  0.00  0.00    -0.344 N 
ATOM     20  H   UNL     1      -2.937  -1.034   1.221  0.00  0.00    +0.157 HD
ATOM     21  H   UNL     1      -0.860  -1.948  -1.403  0.00  0.00    +0.144 HD
ATOM     22  H   UNL     1      -2.333  -2.246  -0.651  0.00  0.00    +0.144 HD
ATOM     23  H   UNL     1      -1.998   0.271   1.707  0.00  0.00    +0.157 HD
ENDBRANCH   6  17
TORSDOF 1
