REMARK  Name = ZINC06894561
REMARK  6 active torsions:
REMARK  status: ('A' for Active; 'I' for Inactive)
REMARK    1  A    between atoms: C_1  and  C_2
REMARK    2  A    between atoms: C_2  and  O_3
REMARK    3  A    between atoms: O_3  and  C_4
REMARK    4  A    between atoms: C_4  and  C_6
REMARK    5  A    between atoms: C_10  and  N_12
REMARK    6  A    between atoms: C_13  and  C_15
REMARK                            x       y       z     vdW  Elec       q    Type
REMARK                         _______ _______ _______ _____ _____    ______ ____
ROOT
ATOM      1  C   UNL     1       1.260  -0.464   0.022  0.00  0.00    +0.076 C 
ATOM      2  C   UNL     1       1.728   0.840   0.723  0.00  0.00    -0.003 C 
ATOM      3  C   UNL     1       0.880   1.911  -0.004  0.00  0.00    -0.066 C 
ATOM      4  C   UNL     1       0.642   3.098   0.944  0.00  0.00    -0.017 C 
ATOM      5  C   UNL     1      -0.881   3.106   1.208  0.00  0.00    -0.020 C 
ATOM      6  C   UNL     1      -1.290   1.642   0.914  0.00  0.00    -0.077 C 
ATOM      7  C   UNL     1      -0.229  -0.193  -0.243  0.00  0.00    +0.052 C 
ATOM      8  C   UNL     1      -0.662  -0.804  -1.548  0.00  0.00    -0.027 A 
ATOM      9  C   UNL     1      -0.268  -0.621  -2.854  0.00  0.00    +0.004 A 
ATOM     10  C   UNL     1      -0.869  -1.348  -3.867  0.00  0.00    +0.000 A 
ATOM     11  C   UNL     1      -1.865  -2.257  -3.563  0.00  0.00    +0.002 A 
ATOM     12  C   UNL     1      -2.263  -2.445  -2.256  0.00  0.00    +0.023 A 
ATOM     13  C   UNL     1      -1.663  -1.717  -1.230  0.00  0.00    +0.036 A 
ATOM     14  N   UNL     1      -1.886  -1.729   0.148  0.00  0.00    -0.286 N 
ATOM     15  C   UNL     1      -1.086  -0.865   0.800  0.00  0.00    +0.212 C 
ATOM     16  O   UNL     1      -1.059  -0.666   1.996  0.00  0.00    -0.277 OA
ATOM     17  H   UNL     1      -2.541  -2.295   0.585  0.00  0.00    +0.155 HD
ATOM     18  N   UNL     1      -0.414   1.271  -0.212  0.00  0.00    +0.394 N 
ATOM     19  H   UNL     1      -0.827   1.588  -1.097  0.00  0.00    -0.079 HD
ENDROOT
BRANCH   1  21
ATOM     20  N   UNL     1       1.415  -2.900   0.425  0.00  0.00    -0.285 N 
ATOM     21  C   UNL     1       1.433  -1.652   0.933  0.00  0.00    +0.220 C 
ATOM     22  O   UNL     1       1.587  -1.484   2.125  0.00  0.00    -0.275 OA
ATOM     23  H   UNL     1       1.358  -3.031  -0.535  0.00  0.00    +0.155 HD
BRANCH  20  28
ATOM     24  C   UNL     1       2.313  -5.052   3.280  0.00  0.00    +0.061 A 
ATOM     25  C   UNL     1       1.597  -6.209   2.966  0.00  0.00    +0.015 A 
ATOM     26  C   UNL     1       0.831  -6.256   1.819  0.00  0.00    +0.003 A 
ATOM     27  C   UNL     1       0.771  -5.161   0.977  0.00  0.00    +0.023 A 
ATOM     28  C   UNL     1       1.480  -4.005   1.280  0.00  0.00    +0.034 A 
ATOM     29  C   UNL     1       2.256  -3.949   2.428  0.00  0.00    +0.038 A 
BRANCH  24  30
ATOM     30  C   UNL     1       3.133  -4.998   4.508  0.00  0.00    +0.339 C 
ATOM     31  O   UNL     1       3.756  -3.991   4.779  0.00  0.00    -0.245 OA
BRANCH  30  32
ATOM     32  O   UNL     1       3.191  -6.066   5.327  0.00  0.00    -0.461 OA
BRANCH  32  34
ATOM     33  C   UNL     1       3.958  -7.246   7.314  0.00  0.00    +0.048 C 
ATOM     34  C   UNL     1       4.017  -5.943   6.514  0.00  0.00    +0.229 C 
ENDBRANCH  32  34
ENDBRANCH  30  32
ENDBRANCH  24  30
ENDBRANCH  20  28
ENDBRANCH   1  21
TORSDOF 5
