REMARK  Name = ZINC39484224
REMARK  9 active torsions:
REMARK  status: ('A' for Active; 'I' for Inactive)
REMARK    1  A    between atoms: C_1  and  C_2
REMARK    2  A    between atoms: C_2  and  C_3
REMARK    3  A    between atoms: C_3  and  C_4
REMARK    4  A    between atoms: C_4  and  C_6
REMARK    5  A    between atoms: C_8  and  C_25
REMARK    6  A    between atoms: C_18  and  O_20
REMARK    7  A    between atoms: O_20  and  C_21
REMARK    8  A    between atoms: C_29  and  C_31
REMARK    9  A    between atoms: C_36  and  O_37
REMARK                            x       y       z     vdW  Elec       q    Type
REMARK                         _______ _______ _______ _____ _____    ______ ____
ROOT
ATOM      1  C   UNL     1      -2.708  -2.812   0.013  0.00  0.00    +0.103 C 
ATOM      2  C   UNL     1      -2.483  -4.190  -0.604  0.00  0.00    +0.063 C 
ATOM      3  C   UNL     1      -3.718  -5.043  -0.496  0.00  0.00    -0.025 A 
ATOM      4  C   UNL     1      -3.883  -6.097  -1.373  0.00  0.00    +0.054 A 
ATOM      5  C   UNL     1      -5.008  -6.906  -1.298  0.00  0.00    +0.167 A 
ATOM      6  C   UNL     1      -5.987  -6.659  -0.333  0.00  0.00    +0.167 A 
ATOM      7  C   UNL     1      -5.834  -5.608   0.547  0.00  0.00    +0.061 A 
ATOM      8  C   UNL     1      -4.698  -4.793   0.469  0.00  0.00    +0.028 A 
ATOM      9  C   UNL     1      -4.544  -3.666   1.404  0.00  0.00    +0.193 C 
ATOM     10  O   UNL     1      -5.463  -3.304   2.108  0.00  0.00    -0.289 OA
ATOM     11  C   UNL     1      -3.197  -2.974   1.458  0.00  0.00    +0.200 C 
ATOM     12  O   UNL     1      -6.979  -7.587  -0.471  0.00  0.00    -0.453 OA
ATOM     13  C   UNL     1      -6.799  -8.148  -1.785  0.00  0.00    +0.466 C 
ATOM     14  O   UNL     1      -5.391  -7.987  -2.037  0.00  0.00    -0.453 OA
ENDROOT
BRANCH   2  15
ATOM     15  C   UNL     1      -2.122  -4.027  -2.058  0.00  0.00    -0.039 A 
ATOM     16  C   UNL     1      -3.003  -3.402  -2.922  0.00  0.00    +0.004 A 
ATOM     17  C   UNL     1      -2.677  -3.249  -4.258  0.00  0.00    +0.001 A 
ATOM     18  C   UNL     1      -1.471  -3.720  -4.736  0.00  0.00    +0.008 A 
ATOM     19  C   UNL     1      -0.581  -4.351  -3.869  0.00  0.00    -0.014 A 
ATOM     20  C   UNL     1      -0.911  -4.498  -2.523  0.00  0.00    +0.013 A 
BRANCH  19  21
ATOM     21  C   UNL     1       0.717  -4.861  -4.377  0.00  0.00    +0.024 A 
ATOM     22  C   UNL     1       1.901  -4.543  -3.714  0.00  0.00    +0.012 A 
ATOM     23  C   UNL     1       3.105  -5.020  -4.191  0.00  0.00    +0.001 A 
ATOM     24  C   UNL     1       3.142  -5.812  -5.324  0.00  0.00    +0.004 A 
ATOM     25  C   UNL     1       1.974  -6.133  -5.989  0.00  0.00    +0.046 A 
ATOM     26  C   UNL     1       0.757  -5.666  -5.519  0.00  0.00    +0.125 A 
BRANCH  26  27
ATOM     27  O   UNL     1      -0.393  -5.986  -6.168  0.00  0.00    -0.506 OA
ATOM     28  H   UNL     1      -0.641  -5.358  -6.861  0.00  0.00    +0.292 HD
ENDBRANCH  26  27
ENDBRANCH  19  21
ENDBRANCH   2  15
BRANCH   1  29
ATOM     29  C   UNL     1      -1.413  -2.041   0.005  0.00  0.00    +0.140 C 
ATOM     30  O   UNL     1      -0.359  -2.630  -0.009  0.00  0.00    -0.297 OA
BRANCH  29  31
ATOM     31  C   UNL     1      -1.433  -0.534   0.013  0.00  0.00    +0.074 C 
BRANCH  31  33
ATOM     32  C   UNL     1      -0.019   1.526   0.010  0.00  0.00    +0.004 C 
ATOM     33  C   UNL     1       0.002  -0.004   0.002  0.00  0.00    +0.004 C 
ENDBRANCH  31  33
ENDBRANCH  29  31
ENDBRANCH   1  29
BRANCH  11  34
ATOM     34  O   UNL     1      -2.271  -3.772   2.198  0.00  0.00    -0.371 OA
ATOM     35  C   UNL     1      -2.217  -3.457   3.591  0.00  0.00    +0.195 C 
ENDBRANCH  11  34
TORSDOF 7
