REMARK  Name = ZINC53200683
REMARK  5 active torsions:
REMARK  status: ('A' for Active; 'I' for Inactive)
REMARK    1  A    between atoms: C_1  and  C_2
REMARK    2  A    between atoms: C_7  and  C_10
REMARK    3  A    between atoms: C_12  and  C_15
REMARK    4  A    between atoms: C_15  and  C_16
REMARK    5  A    between atoms: C_21  and  N_22
REMARK                            x       y       z     vdW  Elec       q    Type
REMARK                         _______ _______ _______ _____ _____    ______ ____
ROOT
ATOM      1  C   UNL     1       2.906  -0.480   2.452  0.00  0.00    +0.175 A 
ATOM      2  N   UNL     1       3.448   0.288   3.402  0.00  0.00    -0.196 NA
ATOM      3  C   UNL     1       4.003  -0.456   4.318  0.00  0.00    +0.232 A 
ATOM      4  O   UNL     1       3.831  -1.739   3.977  0.00  0.00    -0.338 OA
ATOM      5  N   UNL     1       3.106  -1.731   2.756  0.00  0.00    -0.061 NA
ENDROOT
BRANCH   1  11
ATOM      6  C   UNL     1      -0.019   1.526   0.010  0.00  0.00    +0.007 C 
ATOM      7  C   UNL     1       0.002  -0.004   0.002  0.00  0.00    -0.013 C 
ATOM      8  C   UNL     1       0.718  -0.497  -1.257  0.00  0.00    +0.003 C 
ATOM      9  C   UNL     1       2.154   0.032  -1.268  0.00  0.00    +0.001 C 
ATOM     10  C   UNL     1       2.894  -0.475  -0.028  0.00  0.00    +0.011 C 
ATOM     11  C   UNL     1       2.178   0.019   1.231  0.00  0.00    +0.061 C 
ATOM     12  C   UNL     1       0.742  -0.511   1.242  0.00  0.00    +0.014 C 
ENDBRANCH   1  11
BRANCH   3  13
ATOM     13  C   UNL     1       4.716   0.042   5.549  0.00  0.00    +0.135 C 
BRANCH  13  14
ATOM     14  C   UNL     1       3.729   0.181   6.679  0.00  0.00    -0.018 A 
ATOM     15  C   UNL     1       3.130   1.400   6.928  0.00  0.00    +0.006 A 
ATOM     16  C   UNL     1       2.225   1.529   7.966  0.00  0.00    +0.000 A 
ATOM     17  C   UNL     1       1.915   0.437   8.757  0.00  0.00    +0.002 A 
ATOM     18  C   UNL     1       2.510  -0.785   8.513  0.00  0.00    +0.023 A 
ATOM     19  C   UNL     1       3.416  -0.919   7.468  0.00  0.00    +0.028 A 
BRANCH  19  20
ATOM     20  N   UNL     1       4.015  -2.155   7.215  0.00  0.00    -0.358 N 
ATOM     21  H   UNL     1       4.651  -2.246   6.488  0.00  0.00    +0.142 HD
ATOM     22  H   UNL     1       3.796  -2.922   7.767  0.00  0.00    +0.142 HD
ENDBRANCH  19  20
ENDBRANCH  13  14
ENDBRANCH   3  13
TORSDOF 4
