REMARK  Name = ZINC33294062
REMARK  7 active torsions:
REMARK  status: ('A' for Active; 'I' for Inactive)
REMARK    1  A    between atoms: C_1  and  C_2
REMARK    2  A    between atoms: C_2  and  N_3
REMARK    3  A    between atoms: C_7  and  C_8
REMARK    4  A    between atoms: C_11  and  O_15
REMARK    5  A    between atoms: N_18  and  C_19
REMARK    6  A    between atoms: C_22  and  O_25
REMARK    7  A    between atoms: O_25  and  C_26
REMARK                            x       y       z     vdW  Elec       q    Type
REMARK                         _______ _______ _______ _____ _____    ______ ____
ROOT
ATOM      1  N   UNL     1       0.660  -0.949  -1.101  0.00  0.00    -0.246 N 
ATOM      2  C   UNL     1      -0.030  -1.148  -2.211  0.00  0.00    +0.259 C 
ATOM      3  O   UNL     1      -1.244  -1.232  -2.199  0.00  0.00    -0.269 OA
ATOM      4  C   UNL     1       0.739  -1.263  -3.466  0.00  0.00    +0.078 C 
ATOM      5  C   UNL     1       0.295  -1.466  -4.732  0.00  0.00    +0.028 C 
ATOM      6  S   UNL     1       2.412  -1.063  -2.869  0.00  0.00    -0.049 S 
ATOM      7  C   UNL     1       2.035  -0.850  -1.137  0.00  0.00    +0.168 C 
ATOM      8  N   UNL     1       2.865  -0.649  -0.139  0.00  0.00    -0.225 NA
ENDROOT
BRANCH   5   9
ATOM      9  C   UNL     1      -1.145  -1.432  -5.020  0.00  0.00    -0.022 A 
ATOM     10  C   UNL     1      -1.963  -0.478  -4.401  0.00  0.00    +0.011 A 
ATOM     11  C   UNL     1      -3.312  -0.451  -4.675  0.00  0.00    +0.047 A 
ATOM     12  C   UNL     1      -3.863  -1.367  -5.562  0.00  0.00    +0.135 A 
ATOM     13  C   UNL     1      -3.056  -2.317  -6.179  0.00  0.00    +0.083 A 
ATOM     14  C   UNL     1      -1.704  -2.350  -5.918  0.00  0.00    +0.031 A 
ATOM     15 CL   UNL     1      -3.752  -3.459  -7.286  0.00  0.00    -0.080 Cl
BRANCH  12  16
ATOM     16  O   UNL     1      -5.194  -1.335  -5.827  0.00  0.00    -0.505 OA
ATOM     17  H   UNL     1      -5.434  -0.767  -6.572  0.00  0.00    +0.292 HD
ENDBRANCH  12  16
ENDBRANCH   5   9
BRANCH   8  18
ATOM     18  C   UNL     1       4.213  -0.580  -0.373  0.00  0.00    +0.067 A 
ATOM     19  C   UNL     1       4.827  -1.511  -1.214  0.00  0.00    +0.031 A 
ATOM     20  C   UNL     1       6.184  -1.437  -1.447  0.00  0.00    +0.048 A 
ATOM     21  C   UNL     1       6.940  -0.440  -0.847  0.00  0.00    +0.120 A 
ATOM     22  C   UNL     1       6.335   0.487  -0.010  0.00  0.00    +0.048 A 
ATOM     23  C   UNL     1       4.977   0.425   0.224  0.00  0.00    +0.031 A 
BRANCH  21  24
ATOM     24  O   UNL     1       8.278  -0.371  -1.079  0.00  0.00    -0.495 OA
ATOM     25  C   UNL     1       8.996   0.680  -0.430  0.00  0.00    +0.277 C 
ENDBRANCH  21  24
ENDBRANCH   8  18
BRANCH   1  27
ATOM     26  C   UNL     1      -0.395   0.643   0.427  0.00  0.00    +0.025 C 
ATOM     27  C   UNL     1      -0.043  -0.825   0.178  0.00  0.00    +0.112 C 
ENDBRANCH   1  27
TORSDOF 5
