REMARK  Name = ZINC11637158
REMARK  8 active torsions:
REMARK  status: ('A' for Active; 'I' for Inactive)
REMARK    1  A    between atoms: C_1  and  C_2
REMARK    2  A    between atoms: C_2  and  C_3
REMARK    3  A    between atoms: C_3  and  C_5
REMARK    4  A    between atoms: C_3  and  O_16
REMARK    5  A    between atoms: N_7  and  C_8
REMARK    6  A    between atoms: O_16  and  C_17
REMARK    7  A    between atoms: C_19  and  C_24
REMARK    8  A    between atoms: C_21  and  C_23
REMARK                            x       y       z     vdW  Elec       q    Type
REMARK                         _______ _______ _______ _____ _____    ______ ____
ROOT
ATOM      1  C   UNL     1       3.740  -0.964   0.164  0.00  0.00    +0.259 C 
ENDROOT
BRANCH   1   2
ATOM      2  C   UNL     1       2.442  -0.244  -0.098  0.00  0.00    +0.258 C 
ATOM      3  O   UNL     1       1.408  -0.872  -0.192  0.00  0.00    -0.271 OA
ATOM      4  N   UNL     1       2.430   1.097  -0.229  0.00  0.00    -0.281 N 
ATOM      5  H   UNL     1       3.264   1.591  -0.235  0.00  0.00    +0.155 HD
BRANCH   4   6
ATOM      6  C   UNL     1       1.212   1.777  -0.355  0.00  0.00    +0.052 A 
ATOM      7  C   UNL     1       0.043   1.205   0.128  0.00  0.00    +0.026 A 
ATOM      8  C   UNL     1      -1.158   1.875  -0.003  0.00  0.00    +0.022 A 
ATOM      9  C   UNL     1      -1.195   3.121  -0.605  0.00  0.00    +0.042 A 
ATOM     10  C   UNL     1      -0.032   3.694  -1.087  0.00  0.00    +0.041 A 
ATOM     11  C   UNL     1       1.172   3.025  -0.964  0.00  0.00    +0.064 A 
ATOM     12 CL   UNL     1       2.631   3.744  -1.570  0.00  0.00    -0.082 Cl
ATOM     13 CL   UNL     1      -2.705   3.963  -0.761  0.00  0.00    -0.083 Cl
ENDBRANCH   4   6
ENDBRANCH   1   2
BRANCH   1  15
ATOM     14  C   UNL     1       5.660  -1.185   1.746  0.00  0.00    +0.008 C 
ATOM     15  C   UNL     1       4.284  -0.552   1.533  0.00  0.00    +0.051 C 
ENDBRANCH   1  15
BRANCH   1  16
ATOM     16  O   UNL     1       3.514  -2.375   0.146  0.00  0.00    -0.480 OA
BRANCH  16  17
ATOM     17  C   UNL     1       4.534  -3.158  -0.294  0.00  0.00    +0.122 A 
ATOM     18  C   UNL     1       5.690  -2.576  -0.793  0.00  0.00    +0.049 A 
ATOM     19  C   UNL     1       6.728  -3.374  -1.235  0.00  0.00    -0.047 A 
ATOM     20  C   UNL     1       6.610  -4.751  -1.190  0.00  0.00    +0.007 A 
ATOM     21  C   UNL     1       5.456  -5.333  -0.698  0.00  0.00    -0.047 A 
ATOM     22  C   UNL     1       4.418  -4.540  -0.250  0.00  0.00    +0.049 A 
ATOM     23  C   UNL     1       5.331  -6.834  -0.650  0.00  0.00    +0.044 C 
ATOM     24  C   UNL     1       7.987  -2.743  -1.771  0.00  0.00    +0.044 C 
ENDBRANCH  16  17
ENDBRANCH   1  16
TORSDOF 5
