REMARK  Name = ZINC35427394
REMARK  6 active torsions:
REMARK  status: ('A' for Active; 'I' for Inactive)
REMARK    1  A    between atoms: C_1  and  C_2
REMARK    2  A    between atoms: C_2  and  N_3
REMARK    3  A    between atoms: C_17  and  C_31
REMARK    4  A    between atoms: N_23  and  C_24
REMARK    5  A    between atoms: C_27  and  C_30
REMARK    6  A    between atoms: C_34  and  C_37
REMARK                            x       y       z     vdW  Elec       q    Type
REMARK                         _______ _______ _______ _____ _____    ______ ____
ROOT
ATOM      1  N   UNL     1       0.251  -0.620   1.207  0.00  0.00    +0.383 N 
ATOM      2  C   UNL     1       0.432  -2.076   1.142  0.00  0.00    -0.074 C 
ATOM      3  C   UNL     1       1.499  -2.524   2.144  0.00  0.00    +0.018 C 
ATOM      4  C   UNL     1       1.121  -1.966   3.515  0.00  0.00    -0.034 A 
ATOM      5  C   UNL     1       1.661  -2.457   4.718  0.00  0.00    +0.004 A 
ATOM      6  C   UNL     1       1.221  -1.875   5.867  0.00  0.00    +0.090 A 
ATOM      7  S   UNL     1       0.086  -0.632   5.330  0.00  0.00    -0.077 S 
ATOM      8  C   UNL     1       0.224  -0.945   3.590  0.00  0.00    -0.021 A 
ATOM      9  C   UNL     1      -0.462  -0.268   2.450  0.00  0.00    -0.035 C 
ATOM     10  N   UNL     1       1.625  -2.261   7.139  0.00  0.00    -0.312 N 
ATOM     11  C   UNL     1       2.015  -1.538   8.214  0.00  0.00    +0.092 A 
ATOM     12  C   UNL     1       2.374  -2.400   9.191  0.00  0.00    +0.020 A 
ATOM     13  C   UNL     1       2.176  -3.708   8.698  0.00  0.00    +0.025 A 
ATOM     14  C   UNL     1       1.695  -3.599   7.452  0.00  0.00    +0.049 A 
ATOM     15  C   UNL     1       1.242  -4.673   6.508  0.00  0.00    +0.155 C 
ATOM     16  N   UNL     1       2.158  -4.811   5.349  0.00  0.00    -0.268 N 
ATOM     17  C   UNL     1       2.691  -3.563   4.772  0.00  0.00    +0.148 C 
ATOM     18  C   UNL     1       2.486  -6.018   4.847  0.00  0.00    +0.308 C 
ATOM     19  O   UNL     1       2.029  -7.028   5.346  0.00  0.00    -0.252 OA
ATOM     20  N   UNL     1       3.321  -6.105   3.793  0.00  0.00    -0.269 N 
ATOM     21  H   UNL     1       3.747  -5.306   3.445  0.00  0.00    +0.156 HD
ATOM     22  H   UNL     1       1.152  -0.167   1.196  0.00  0.00    -0.081 HD
ENDROOT
BRANCH  20  23
ATOM     23  C   UNL     1       3.572  -7.347   3.200  0.00  0.00    +0.035 A 
ATOM     24  C   UNL     1       4.830  -7.631   2.686  0.00  0.00    +0.023 A 
ATOM     25  C   UNL     1       5.075  -8.858   2.102  0.00  0.00    +0.005 A 
ATOM     26  C   UNL     1       4.068  -9.804   2.029  0.00  0.00    -0.050 A 
ATOM     27  C   UNL     1       2.814  -9.524   2.539  0.00  0.00    +0.005 A 
ATOM     28  C   UNL     1       2.565  -8.301   3.130  0.00  0.00    +0.023 A 
ATOM     29  C   UNL     1       4.339 -11.142   1.391  0.00  0.00    +0.044 C 
ENDBRANCH  20  23
BRANCH  15  30
ATOM     30  C   UNL     1      -0.137  -4.335   6.005  0.00  0.00    -0.021 A 
ATOM     31  C   UNL     1      -0.534  -4.747   4.746  0.00  0.00    +0.006 A 
ATOM     32  C   UNL     1      -1.799  -4.437   4.285  0.00  0.00    +0.004 A 
ATOM     33  C   UNL     1      -2.669  -3.716   5.082  0.00  0.00    -0.050 A 
ATOM     34  C   UNL     1      -2.272  -3.306   6.341  0.00  0.00    +0.004 A 
ATOM     35  C   UNL     1      -1.008  -3.619   6.804  0.00  0.00    +0.006 A 
ATOM     36  C   UNL     1      -4.048  -3.377   4.578  0.00  0.00    +0.044 C 
ENDBRANCH  15  30
BRANCH   1  38
ATOM     37  C   UNL     1      -0.619   1.356   0.050  0.00  0.00    -0.017 C 
ATOM     38  C   UNL     1      -0.535  -0.172   0.049  0.00  0.00    -0.082 C 
ENDBRANCH   1  38
TORSDOF 3
