REMARK  Name = ZINC25329227
REMARK  9 active torsions:
REMARK  status: ('A' for Active; 'I' for Inactive)
REMARK    1  A    between atoms: C_1  and  C_2
REMARK    2  A    between atoms: C_2  and  N_3
REMARK    3  A    between atoms: N_3  and  C_4
REMARK    4  A    between atoms: N_3  and  C_6
REMARK    5  A    between atoms: C_4  and  C_5
REMARK    6  A    between atoms: C_9  and  C_12
REMARK    7  A    between atoms: C_16  and  S_24
REMARK    8  A    between atoms: S_24  and  C_25
REMARK    9  A    between atoms: C_28  and  N_31
REMARK                            x       y       z     vdW  Elec       q    Type
REMARK                         _______ _______ _______ _____ _____    ______ ____
ROOT
ATOM      1  C   UNL     1       0.707   3.082  -0.081  0.00  0.00    +0.013 C 
ATOM      2  C   UNL     1       0.572   1.733   0.224  0.00  0.00    -0.027 C 
ATOM      3  C   UNL     1      -0.704   1.067   0.672  0.00  0.00    +0.038 C 
ATOM      4  C   UNL     1      -0.360  -0.415   0.884  0.00  0.00    +0.025 C 
ATOM      5  C   UNL     1       1.108  -0.533   0.545  0.00  0.00    +0.098 C 
ATOM      6  C   UNL     1       1.589   0.796   0.160  0.00  0.00    +0.031 C 
ATOM      7  N   UNL     1       2.876   1.075  -0.214  0.00  0.00    -0.368 N 
ATOM      8  C   UNL     1       3.715   1.988   0.578  0.00  0.00    +0.144 C 
ATOM      9  C   UNL     1       5.055   1.289   0.855  0.00  0.00    +0.181 C 
ATOM     10  O   UNL     1       5.609   0.830  -0.380  0.00  0.00    -0.376 OA
ATOM     11  C   UNL     1       4.811  -0.147  -1.053  0.00  0.00    +0.181 C 
ATOM     12  C   UNL     1       3.460   0.475  -1.425  0.00  0.00    +0.144 C 
ENDROOT
BRANCH   1  16
ATOM     13  C   UNL     1      -2.675   5.523  -0.298  0.00  0.00    +0.030 A 
ATOM     14  C   UNL     1      -1.496   6.016   0.270  0.00  0.00    +0.024 A 
ATOM     15  C   UNL     1      -0.390   5.225   0.344  0.00  0.00    +0.010 A 
ATOM     16  C   UNL     1      -0.435   3.907  -0.154  0.00  0.00    -0.025 A 
ATOM     17  C   UNL     1      -1.625   3.418  -0.730  0.00  0.00    +0.010 A 
ATOM     18  C   UNL     1      -2.726   4.217  -0.793  0.00  0.00    +0.024 A 
BRANCH  13  19
ATOM     19  N   UNL     1      -3.794   6.331  -0.369  0.00  0.00    -0.330 N 
BRANCH  19  21
ATOM     20  C   UNL     1      -5.886   5.164   0.124  0.00  0.00    +0.024 C 
ATOM     21  C   UNL     1      -5.031   5.817  -0.964  0.00  0.00    +0.102 C 
ENDBRANCH  19  21
BRANCH  19  22
ATOM     22  C   UNL     1      -3.744   7.700   0.149  0.00  0.00    +0.102 C 
ATOM     23  C   UNL     1      -3.301   8.651  -0.964  0.00  0.00    +0.024 C 
ENDBRANCH  19  22
ENDBRANCH  13  19
ENDBRANCH   1  16
BRANCH   5  24
ATOM     24  S   UNL     1       2.044  -1.966   0.601  0.00  0.00    -0.116 S 
BRANCH  24  25
ATOM     25  C   UNL     1       2.047  -2.261   2.338  0.00  0.00    +0.009 A 
ATOM     26  C   UNL     1       1.536  -1.304   3.211  0.00  0.00    +0.017 A 
ATOM     27  C   UNL     1       1.536  -1.542   4.570  0.00  0.00    +0.034 A 
ATOM     28  C   UNL     1       2.053  -2.725   5.067  0.00  0.00    +0.126 A 
ATOM     29  C   UNL     1       2.566  -3.678   4.204  0.00  0.00    +0.034 A 
ATOM     30  C   UNL     1       2.566  -3.451   2.843  0.00  0.00    +0.017 A 
BRANCH  28  31
ATOM     31  N   UNL     1       2.057  -2.973   6.526  0.00  0.00    +0.056 N 
ATOM     32  O   UNL     1       2.549  -4.099   7.001  0.00  0.00    -0.126 OA
ATOM     33  O   UNL     1       1.569  -2.068   7.349  0.00  0.00    -0.126 OA
ENDBRANCH  28  31
ENDBRANCH  24  25
ENDBRANCH   5  24
TORSDOF 7
