REMARK  Name = ZINC11898336
REMARK  8 active torsions:
REMARK  status: ('A' for Active; 'I' for Inactive)
REMARK    1  A    between atoms: C_1  and  C_2
REMARK    2  A    between atoms: C_7  and  N_8
REMARK    3  A    between atoms: C_9  and  C_11
REMARK    4  A    between atoms: N_13  and  C_14
REMARK    5  A    between atoms: C_14  and  C_15
REMARK    6  A    between atoms: C_15  and  C_17
REMARK    7  A    between atoms: C_15  and  N_52
REMARK    8  A    between atoms: N_21  and  C_22
REMARK                            x       y       z     vdW  Elec       q    Type
REMARK                         _______ _______ _______ _____ _____    ______ ____
ROOT
ATOM      1  C   UNL     1      -0.092  -2.356  -0.463  0.00  0.00    +0.299 C 
ATOM      2  O   UNL     1      -0.667  -3.188  -1.134  0.00  0.00    -0.265 OA
ATOM      3  N   UNL     1      -0.066  -1.069  -0.863  0.00  0.00    -0.309 N 
ATOM      4  H   UNL     1       0.394  -0.404  -0.327  0.00  0.00    +0.149 HD
ENDROOT
BRANCH   1   6
ATOM      5  N   UNL     1       0.560  -4.044   1.205  0.00  0.00    -0.277 N 
ATOM      6  C   UNL     1       0.587  -2.757   0.805  0.00  0.00    +0.303 C 
ATOM      7  O   UNL     1       1.162  -1.925   1.476  0.00  0.00    -0.265 OA
ATOM      8  H   UNL     1       0.037  -4.695   0.712  0.00  0.00    +0.155 HD
BRANCH   5  15
ATOM      9  C   UNL     1      -0.293  -6.371   2.603  0.00  0.00    +0.045 C 
ATOM     10  C   UNL     1       0.906  -5.571   3.043  0.00  0.00    -0.029 A 
ATOM     11  C   UNL     1       1.627  -5.961   4.155  0.00  0.00    +0.006 A 
ATOM     12  C   UNL     1       2.727  -5.228   4.560  0.00  0.00    +0.020 A 
ATOM     13  C   UNL     1       3.110  -4.101   3.853  0.00  0.00    +0.043 A 
ATOM     14  C   UNL     1       2.397  -3.709   2.736  0.00  0.00    +0.043 A 
ATOM     15  C   UNL     1       1.288  -4.441   2.330  0.00  0.00    +0.038 A 
ATOM     16 CL   UNL     1       4.492  -3.184   4.365  0.00  0.00    -0.083 Cl
ENDBRANCH   5  15
ENDBRANCH   1   6
BRANCH   3  17
ATOM     17  C   UNL     1      -0.732  -0.675  -2.107  0.00  0.00    +0.095 C 
BRANCH  17  18
ATOM     18  C   UNL     1      -0.417   0.791  -2.412  0.00  0.00    -0.003 C 
BRANCH  18  19
ATOM     19  C   UNL     1      -1.039   1.175  -3.730  0.00  0.00    +0.006 A 
ATOM     20  C   UNL     1      -1.884   2.206  -3.934  0.00  0.00    +0.021 A 
ATOM     21  C   UNL     1      -2.224   2.208  -5.301  0.00  0.00    +0.019 A 
ATOM     22  C   UNL     1      -1.574   1.177  -5.880  0.00  0.00    +0.085 A 
ATOM     23  N   UNL     1      -0.841   0.544  -4.922  0.00  0.00    -0.355 N 
ATOM     24  C   UNL     1       0.016  -0.625  -5.136  0.00  0.00    +0.148 C 
ENDBRANCH  18  19
BRANCH  18  29
ATOM     25  C   UNL     1       0.061   1.916  -0.306  0.00  0.00    -0.078 C 
ATOM     26  C   UNL     1      -0.749   2.319   0.945  0.00  0.00    -0.020 C 
ATOM     27  C   UNL     1      -2.140   1.677   0.742  0.00  0.00    -0.020 C 
ATOM     28  C   UNL     1      -2.050   0.942  -0.613  0.00  0.00    -0.078 C 
ATOM     29  N   UNL     1      -0.965   1.642  -1.309  0.00  0.00    +0.386 N 
ATOM     30  H   UNL     1      -1.312   2.524  -1.705  0.00  0.00    -0.081 HD
ENDBRANCH  18  29
ENDBRANCH  17  18
ENDBRANCH   3  17
TORSDOF 6
