REMARK  Name = ZINC10040278
REMARK  11 active torsions:
REMARK  status: ('A' for Active; 'I' for Inactive)
REMARK    1  A    between atoms: C_1  and  C_2
REMARK    2  A    between atoms: C_2  and  O_3
REMARK    3  A    between atoms: O_3  and  C_4
REMARK    4  A    between atoms: C_7  and  C_14
REMARK    5  A    between atoms: N_15  and  N_16
REMARK    6  A    between atoms: C_17  and  C_19
REMARK    7  A    between atoms: C_19  and  C_21
REMARK    8  A    between atoms: C_19  and  N_24
REMARK    9  A    between atoms: C_21  and  C_22
REMARK   10  A    between atoms: C_21  and  C_23
REMARK   11  A    between atoms: C_25  and  C_27
REMARK                            x       y       z     vdW  Elec       q    Type
REMARK                         _______ _______ _______ _____ _____    ______ ____
ROOT
ATOM      1  N   UNL     1       4.794   1.784  -0.460  0.00  0.00    -0.205 N 
ATOM      2  C   UNL     1       3.764   2.315   0.228  0.00  0.00    +0.253 C 
ATOM      3  O   UNL     1       3.312   3.394  -0.092  0.00  0.00    -0.272 OA
ATOM      4  H   UNL     1       5.208   0.962  -0.155  0.00  0.00    +0.177 HD
ENDROOT
BRANCH   1   6
ATOM      5  C   UNL     1       6.179   1.851  -2.344  0.00  0.00    +0.139 C 
ATOM      6  N   UNL     1       5.266   2.420  -1.616  0.00  0.00    -0.188 NA
BRANCH   5  10
ATOM      7  C   UNL     1       7.301  -2.210  -1.548  0.00  0.00    +0.128 A 
ATOM      8  C   UNL     1       6.056  -1.731  -1.208  0.00  0.00    +0.047 A 
ATOM      9  C   UNL     1       5.687  -0.419  -1.463  0.00  0.00    +0.013 A 
ATOM     10  C   UNL     1       6.572   0.460  -2.075  0.00  0.00    +0.002 A 
ATOM     11  C   UNL     1       7.899  -0.024  -2.452  0.00  0.00    -0.006 A 
ATOM     12  C   UNL     1       8.245  -1.368  -2.172  0.00  0.00    +0.024 A 
ATOM     13  C   UNL     1       9.520  -1.837  -2.526  0.00  0.00    +0.012 A 
ATOM     14  C   UNL     1      10.405  -0.994  -3.126  0.00  0.00    +0.001 A 
ATOM     15  C   UNL     1      10.065   0.329  -3.396  0.00  0.00    +0.001 A 
ATOM     16  C   UNL     1       8.836   0.817  -3.067  0.00  0.00    +0.009 A 
BRANCH   7  17
ATOM     17  O   UNL     1       7.623  -3.501  -1.281  0.00  0.00    -0.492 OA
BRANCH  17  19
ATOM     18  C   UNL     1       7.165  -5.715  -0.428  0.00  0.00    +0.048 C 
ATOM     19  C   UNL     1       6.623  -4.301  -0.647  0.00  0.00    +0.226 C 
ENDBRANCH  17  19
ENDBRANCH   7  17
ENDBRANCH   5  10
ENDBRANCH   1   6
BRANCH   2  20
ATOM     20  C   UNL     1       3.173   1.567   1.395  0.00  0.00    +0.163 C 
BRANCH  20  21
ATOM     21  N   UNL     1       1.783   1.988   1.592  0.00  0.00    -0.300 N 
ATOM     22  C   UNL     1       0.908   1.160   2.196  0.00  0.00    +0.246 C 
ATOM     23  O   UNL     1       1.271   0.065   2.579  0.00  0.00    -0.270 OA
ATOM     24  H   UNL     1       1.493   2.862   1.287  0.00  0.00    +0.150 HD
BRANCH  22  25
ATOM     25  C   UNL     1      -0.495   1.582   2.389  0.00  0.00    +0.055 A 
ATOM     26  C   UNL     1      -0.915   2.842   1.957  0.00  0.00    +0.014 A 
ATOM     27  C   UNL     1      -2.227   3.227   2.134  0.00  0.00    +0.001 A 
ATOM     28  C   UNL     1      -3.125   2.373   2.750  0.00  0.00    +0.001 A 
ATOM     29  C   UNL     1      -2.717   1.126   3.187  0.00  0.00    +0.021 A 
ATOM     30  C   UNL     1      -1.407   0.725   3.010  0.00  0.00    +0.053 A 
ATOM     31 CL   UNL     1      -0.895  -0.841   3.559  0.00  0.00    -0.083 Cl
ENDBRANCH  22  25
ENDBRANCH  20  21
BRANCH  20  32
ATOM     32  C   UNL     1       3.981   1.872   2.658  0.00  0.00    +0.012 C 
ATOM     33  C   UNL     1       3.321   1.197   3.862  0.00  0.00    +0.009 C 
ATOM     34  C   UNL     1       5.406   1.339   2.493  0.00  0.00    +0.009 C 
ENDBRANCH  20  32
ENDBRANCH   2  20
TORSDOF 8
