REMARK  Name = ZINC05195427
REMARK  5 active torsions:
REMARK  status: ('A' for Active; 'I' for Inactive)
REMARK    1  A    between atoms: C_6  and  N_7
REMARK    2  A    between atoms: C_9  and  N_14
REMARK    3  A    between atoms: C_22  and  C_24
REMARK    4  A    between atoms: C_24  and  C_25
REMARK    5  A    between atoms: C_25  and  O_26
REMARK                            x       y       z     vdW  Elec       q    Type
REMARK                         _______ _______ _______ _____ _____    ______ ____
ROOT
ATOM      1  N   UNL     1      -1.490  -0.043  -1.817  0.00  0.00    -0.294 N 
ATOM      2  C   UNL     1      -0.686  -0.675  -0.940  0.00  0.00    +0.303 C 
ATOM      3  O   UNL     1      -0.572  -1.885  -0.982  0.00  0.00    -0.253 OA
ATOM      4  N   UNL     1      -0.009   0.033  -0.015  0.00  0.00    -0.283 N 
ATOM      5  C   UNL     1      -0.038   1.502  -0.028  0.00  0.00    +0.109 C 
ATOM      6  C   UNL     1       1.403   2.023  -0.038  0.00  0.00    +0.019 C 
ATOM      7  C   UNL     1       2.167   1.421   1.143  0.00  0.00    +0.003 C 
ATOM      8  C   UNL     1       2.204  -0.103   1.004  0.00  0.00    +0.023 C 
ATOM      9  C   UNL     1       0.773  -0.649   1.026  0.00  0.00    +0.080 C 
ATOM     10  H   UNL     1      -1.526   0.926  -1.831  0.00  0.00    +0.151 HD
ENDROOT
BRANCH   1  13
ATOM     11  N   UNL     1      -4.073  -0.386  -4.317  0.00  0.00    -0.270 N 
ATOM     12  C   UNL     1      -2.708   0.032  -3.977  0.00  0.00    +0.136 C 
ATOM     13  C   UNL     1      -2.310  -0.819  -2.751  0.00  0.00    +0.101 C 
ATOM     14  C   UNL     1      -3.688  -1.149  -2.134  0.00  0.00    +0.120 C 
ATOM     15  C   UNL     1      -4.650  -1.047  -3.298  0.00  0.00    +0.222 C 
ATOM     16  O   UNL     1      -5.776  -1.497  -3.310  0.00  0.00    -0.275 OA
BRANCH  11  22
ATOM     17  C   UNL     1      -6.026  -0.476  -5.735  0.00  0.00    +0.025 A 
ATOM     18  C   UNL     1      -6.639  -0.217  -6.946  0.00  0.00    +0.022 A 
ATOM     19  C   UNL     1      -5.925   0.377  -7.971  0.00  0.00    +0.041 A 
ATOM     20  C   UNL     1      -4.596   0.717  -7.786  0.00  0.00    +0.022 A 
ATOM     21  C   UNL     1      -3.980   0.465  -6.575  0.00  0.00    +0.025 A 
ATOM     22  C   UNL     1      -4.695  -0.130  -5.545  0.00  0.00    +0.036 A 
ATOM     23 CL   UNL     1      -6.696   0.695  -9.493  0.00  0.00    -0.084 Cl
ENDBRANCH  11  22
ENDBRANCH   1  13
BRANCH   9  24
ATOM     24  C   UNL     1       0.793  -2.153   0.749  0.00  0.00    +0.050 C 
BRANCH  24  25
ATOM     25  C   UNL     1       1.607  -2.861   1.835  0.00  0.00    +0.157 C 
BRANCH  25  26
ATOM     26  O   UNL     1       1.722  -4.249   1.515  0.00  0.00    -0.395 OA
ATOM     27  H   UNL     1       2.228  -4.760   2.161  0.00  0.00    +0.209 HD
ENDBRANCH  25  26
ENDBRANCH  24  25
ENDBRANCH   9  24
TORSDOF 5
