REMARK  Name = ZINC01837184
REMARK  2 active torsions:
REMARK  status: ('A' for Active; 'I' for Inactive)
REMARK    1  A    between atoms: C_5  and  C_7
REMARK    2  A    between atoms: C_10  and  C_17
REMARK                            x       y       z     vdW  Elec       q    Type
REMARK                         _______ _______ _______ _____ _____    ______ ____
ROOT
ATOM      1  C   UNL     1       1.229  -2.186  -0.022  0.00  0.00    +0.159 C 
ATOM      2  C   UNL     1       1.459  -2.662   1.401  0.00  0.00    +0.030 C 
ATOM      3  C   UNL     1       0.527  -3.468   1.945  0.00  0.00    +0.073 C 
ATOM      4  N   UNL     1      -0.579  -3.844   1.254  0.00  0.00    -0.216 NA
ATOM      5  C   UNL     1      -0.843  -3.473   0.024  0.00  0.00    +0.227 C 
ATOM      6  N   UNL     1      -0.001  -2.654  -0.675  0.00  0.00    -0.162 N 
ATOM      7  N   UNL     1      -0.558  -2.448  -1.937  0.00  0.00    -0.055 NA
ATOM      8  N   UNL     1      -1.627  -3.065  -2.023  0.00  0.00    -0.058 NA
ATOM      9  N   UNL     1      -1.882  -3.741  -0.825  0.00  0.00    -0.187 N 
ATOM     10  H   UNL     1      -2.653  -4.297  -0.632  0.00  0.00    +0.179 HD
ENDROOT
BRANCH   1  15
ATOM     11  C   UNL     1      -0.017   1.378   0.010  0.00  0.00    +0.000 A 
ATOM     12  C   UNL     1       1.171   2.086   0.002  0.00  0.00    +0.001 A 
ATOM     13  C   UNL     1       2.377   1.412  -0.013  0.00  0.00    +0.020 A 
ATOM     14  C   UNL     1       2.397   0.029  -0.021  0.00  0.00    +0.046 A 
ATOM     15  C   UNL     1       1.208  -0.679  -0.013  0.00  0.00    -0.003 A 
ATOM     16  C   UNL     1       0.002  -0.004   0.002  0.00  0.00    +0.007 A 
ATOM     17 CL   UNL     1       3.912  -0.818  -0.041  0.00  0.00    -0.083 Cl
ENDBRANCH   1  15
BRANCH   3  18
ATOM     18  C   UNL     1       0.714  -3.956   3.333  0.00  0.00    +0.000 A 
ATOM     19  C   UNL     1       1.839  -3.576   4.063  0.00  0.00    +0.011 A 
ATOM     20  C   UNL     1       2.008  -4.033   5.354  0.00  0.00    +0.020 A 
ATOM     21  C   UNL     1       1.062  -4.867   5.925  0.00  0.00    +0.041 A 
ATOM     22  C   UNL     1      -0.057  -5.248   5.204  0.00  0.00    +0.020 A 
ATOM     23  C   UNL     1      -0.239  -4.791   3.915  0.00  0.00    +0.011 A 
ATOM     24 CL   UNL     1       1.281  -5.439   7.549  0.00  0.00    -0.084 Cl
ENDBRANCH   3  18
TORSDOF 2
