REMARK  Name = ZINC14081872
REMARK  13 active torsions:
REMARK  status: ('A' for Active; 'I' for Inactive)
REMARK    1  A    between atoms: C_1  and  C_2
REMARK    2  A    between atoms: C_7  and  C_8
REMARK    3  A    between atoms: C_11  and  S_16
REMARK    4  A    between atoms: N_12  and  C_13
REMARK    5  A    between atoms: C_13  and  C_14
REMARK    6  A    between atoms: S_16  and  C_17
REMARK    7  A    between atoms: C_17  and  C_18
REMARK    8  A    between atoms: N_20  and  C_21
REMARK    9  A    between atoms: C_22  and  C_35
REMARK   10  A    between atoms: C_27  and  C_31
REMARK   11  A    between atoms: C_31  and  C_32
REMARK   12  A    between atoms: C_31  and  C_33
REMARK   13  A    between atoms: C_31  and  C_34
REMARK                            x       y       z     vdW  Elec       q    Type
REMARK                         _______ _______ _______ _____ _____    ______ ____
ROOT
ATOM      1  C   UNL     1      -0.724   2.227   8.358  0.00  0.00    +0.228 C 
ATOM      2  O   UNL     1      -0.856   1.205   8.998  0.00  0.00    -0.275 OA
ATOM      3  N   UNL     1      -0.793   3.423   8.976  0.00  0.00    -0.278 N 
ATOM      4  H   UNL     1      -0.688   4.240   8.465  0.00  0.00    +0.155 HD
ENDROOT
BRANCH   3   5
ATOM      5  C   UNL     1      -1.015   3.485  10.345  0.00  0.00    +0.090 A 
ATOM      6  C   UNL     1      -1.121   4.614  11.140  0.00  0.00    +0.084 A 
ATOM      7  C   UNL     1      -1.356   4.408  12.558  0.00  0.00    -0.018 A 
ATOM      8  C   UNL     1      -1.444   3.109  12.921  0.00  0.00    -0.004 A 
ATOM      9  S   UNL     1      -1.224   2.208  11.416  0.00  0.00    -0.077 S 
ATOM     10  C   UNL     1      -1.682   2.575  14.300  0.00  0.00    +0.047 C 
ATOM     11  C   UNL     1      -2.188   3.725  15.182  0.00  0.00    -0.000 C 
ATOM     12  C   UNL     1      -1.281   4.942  14.979  0.00  0.00    +0.009 C 
ATOM     13  C   UNL     1      -1.498   5.526  13.581  0.00  0.00    +0.037 C 
BRANCH  11  14
ATOM     14  C   UNL     1      -2.154   3.297  16.651  0.00  0.00    -0.035 C 
ATOM     15  C   UNL     1      -0.719   2.946  17.047  0.00  0.00    +0.011 C 
ATOM     16  C   UNL     1      -2.659   4.445  17.528  0.00  0.00    +0.011 C 
ATOM     17  C   UNL     1      -3.051   2.074  16.846  0.00  0.00    +0.011 C 
ENDBRANCH  11  14
BRANCH   6  18
ATOM     18  C   UNL     1      -1.002   5.929  10.587  0.00  0.00    +0.102 C 
ATOM     19  N   UNL     1      -0.908   6.973  10.149  0.00  0.00    -0.191 NA
ENDBRANCH   6  18
ENDBRANCH   3   5
BRANCH   1  20
ATOM     20  C   UNL     1      -0.483   2.160   6.872  0.00  0.00    +0.173 C 
BRANCH  20  21
ATOM     21  S   UNL     1      -0.443   0.425   6.343  0.00  0.00    -0.077 S 
BRANCH  21  25
ATOM     22  C   UNL     1       0.172   0.011   2.507  0.00  0.00    +0.165 A 
ATOM     23  N   UNL     1       0.182   1.314   2.661  0.00  0.00    -0.128 NA
ATOM     24  N   UNL     1      -0.012   1.611   3.897  0.00  0.00    -0.122 NA
ATOM     25  C   UNL     1      -0.157   0.515   4.607  0.00  0.00    +0.193 A 
ATOM     26  N   UNL     1      -0.051  -0.541   3.748  0.00  0.00    -0.298 N 
BRANCH  22  33
ATOM     27  C   UNL     1       2.423   0.644   0.804  0.00  0.00    +0.044 C 
ATOM     28  C   UNL     1       1.441  -0.429   0.409  0.00  0.00    -0.040 A 
ATOM     29  C   UNL     1       1.613  -1.124  -0.770  0.00  0.00    +0.004 A 
ATOM     30  C   UNL     1       0.713  -2.109  -1.134  0.00  0.00    +0.000 A 
ATOM     31  C   UNL     1      -0.366  -2.404  -0.319  0.00  0.00    +0.001 A 
ATOM     32  C   UNL     1      -0.549  -1.717   0.863  0.00  0.00    +0.012 A 
ATOM     33  C   UNL     1       0.359  -0.726   1.239  0.00  0.00    +0.022 A 
ENDBRANCH  22  33
BRANCH  26  34
ATOM     34  C   UNL     1      -0.152  -1.965   4.079  0.00  0.00    +0.152 C 
BRANCH  34  35
ATOM     35  C   UNL     1       1.223  -2.513   4.360  0.00  0.00    -0.013 C 
ATOM     36  C   UNL     1       1.466  -3.123   5.493  0.00  0.00    +0.005 C 
ENDBRANCH  34  35
ENDBRANCH  26  34
ENDBRANCH  21  25
ENDBRANCH  20  21
ENDBRANCH   1  20
TORSDOF 9
