REMARK  Name = ZINC01144129
REMARK  9 active torsions:
REMARK  status: ('A' for Active; 'I' for Inactive)
REMARK    1  A    between atoms: C_1  and  C_2
REMARK    2  A    between atoms: C_9  and  N_33
REMARK    3  A    between atoms: C_10  and  C_31
REMARK    4  A    between atoms: C_11  and  C_13
REMARK    5  A    between atoms: C_16  and  O_21
REMARK    6  A    between atoms: C_17  and  O_19
REMARK    7  A    between atoms: O_19  and  C_20
REMARK    8  A    between atoms: O_21  and  C_22
REMARK    9  A    between atoms: C_22  and  C_23
REMARK                            x       y       z     vdW  Elec       q    Type
REMARK                         _______ _______ _______ _____ _____    ______ ____
ROOT
ATOM      1  C   UNL     1      -1.367   0.105  -2.954  0.00  0.00    -0.031 A 
ATOM      2  C   UNL     1      -2.481  -0.702  -2.813  0.00  0.00    +0.008 A 
ATOM      3  C   UNL     1      -3.732  -0.224  -3.154  0.00  0.00    +0.050 A 
ATOM      4  C   UNL     1      -3.873   1.067  -3.637  0.00  0.00    +0.162 A 
ATOM      5  C   UNL     1      -2.752   1.880  -3.778  0.00  0.00    +0.162 A 
ATOM      6  C   UNL     1      -1.501   1.396  -3.430  0.00  0.00    +0.054 A 
ENDROOT
BRANCH   1  17
ATOM      7  C   UNL     1      -0.018   1.503   0.010  0.00  0.00    +0.068 C 
ATOM      8  C   UNL     1       0.002  -0.004   0.002  0.00  0.00    +0.068 A 
ATOM      9  C   UNL     1       0.008  -0.813  -1.126  0.00  0.00    +0.049 A 
ATOM     10  C   UNL     1       0.028  -2.116  -0.713  0.00  0.00    +0.222 A 
ATOM     11  N   UNL     1       0.033  -2.116   0.629  0.00  0.00    -0.246 N 
ATOM     12  H   UNL     1       0.046  -2.900   1.201  0.00  0.00    +0.192 HD
ATOM     13  N   UNL     1       0.023  -0.780   1.060  0.00  0.00    -0.176 NA
ATOM     14  O   UNL     1       0.042  -3.159  -1.580  0.00  0.00    -0.423 OA
ATOM     15  C   UNL     1       0.311  -2.892  -2.874  0.00  0.00    +0.200 C 
ATOM     16  C   UNL     1       0.309  -1.648  -3.402  0.00  0.00    +0.098 C 
ATOM     17  C   UNL     1      -0.005  -0.421  -2.581  0.00  0.00    +0.101 C 
BRANCH  15  18
ATOM     18  N   UNL     1       0.605  -3.945  -3.704  0.00  0.00    -0.328 N 
ATOM     19  H   UNL     1       0.615  -4.850  -3.354  0.00  0.00    +0.145 HD
ATOM     20  H   UNL     1       0.803  -3.785  -4.640  0.00  0.00    +0.145 HD
ENDBRANCH  15  18
BRANCH  16  21
ATOM     21  C   UNL     1       0.616  -1.487  -4.791  0.00  0.00    +0.101 C 
ATOM     22  N   UNL     1       0.860  -1.360  -5.894  0.00  0.00    -0.191 NA
ENDBRANCH  16  21
ENDBRANCH   1  17
BRANCH   5  23
ATOM     23  O   UNL     1      -2.885   3.148  -4.252  0.00  0.00    -0.491 OA
ATOM     24  C   UNL     1      -1.691   3.924  -4.370  0.00  0.00    +0.277 C 
ENDBRANCH   5  23
BRANCH   4  25
ATOM     25  O   UNL     1      -5.103   1.539  -3.973  0.00  0.00    -0.484 OA
BRANCH  25  26
ATOM     26  C   UNL     1      -6.208   0.649  -3.802  0.00  0.00    +0.264 C 
BRANCH  26  27
ATOM     27  C   UNL     1      -7.479   1.340  -4.223  0.00  0.00    -0.009 A 
ATOM     28  C   UNL     1      -8.210   2.064  -3.299  0.00  0.00    +0.008 A 
ATOM     29  C   UNL     1      -9.377   2.698  -3.683  0.00  0.00    +0.022 A 
ATOM     30  C   UNL     1      -9.813   2.609  -4.993  0.00  0.00    +0.059 A 
ATOM     31  C   UNL     1      -9.081   1.885  -5.918  0.00  0.00    +0.060 A 
ATOM     32  C   UNL     1      -7.911   1.255  -5.533  0.00  0.00    +0.028 A 
ATOM     33 CL   UNL     1      -9.628   1.772  -7.562  0.00  0.00    -0.082 Cl
ATOM     34 CL   UNL     1     -11.279   3.405  -5.475  0.00  0.00    -0.082 Cl
ENDBRANCH  26  27
ENDBRANCH  25  26
ENDBRANCH   4  25
TORSDOF 7
