REMARK  Name = ZINC50866091
REMARK  4 active torsions:
REMARK  status: ('A' for Active; 'I' for Inactive)
REMARK    1  A    between atoms: C_1  and  O_2
REMARK    2  A    between atoms: O_2  and  C_3
REMARK    3  A    between atoms: C_8  and  C_9
REMARK    4  A    between atoms: C_13  and  N_15
REMARK                            x       y       z     vdW  Elec       q    Type
REMARK                         _______ _______ _______ _____ _____    ______ ____
ROOT
ATOM      1  C   UNL     1      -0.007  -2.830  -0.013  0.00  0.00    +0.166 A 
ATOM      2  N   UNL     1      -0.084  -4.154  -0.025  0.00  0.00    -0.232 NA
ATOM      3  C   UNL     1       1.011  -4.901  -0.040  0.00  0.00    +0.050 A 
ATOM      4  C   UNL     1       2.246  -4.283  -0.043  0.00  0.00    +0.013 A 
ATOM      5  C   UNL     1       2.298  -2.887  -0.030  0.00  0.00    +0.123 A 
ATOM      6  N   UNL     1       1.160  -2.201  -0.021  0.00  0.00    -0.213 NA
ATOM      7  C   UNL     1       3.342  -5.323  -0.060  0.00  0.00    +0.041 C 
ATOM      8  C   UNL     1       2.656  -6.638   0.369  0.00  0.00    +0.011 C 
ATOM      9  C   UNL     1       1.191  -6.402  -0.056  0.00  0.00    +0.056 C 
ENDROOT
BRANCH   1  15
ATOM     10  C   UNL     1      -1.199  -0.637   0.010  0.00  0.00    +0.131 A 
ATOM     11  C   UNL     1      -2.374   0.100   0.019  0.00  0.00    +0.047 A 
ATOM     12  C   UNL     1      -3.595  -0.545   0.028  0.00  0.00    +0.019 A 
ATOM     13  C   UNL     1      -3.655  -1.929   0.028  0.00  0.00    +0.019 A 
ATOM     14  C   UNL     1      -2.494  -2.675   0.018  0.00  0.00    +0.030 A 
ATOM     15  C   UNL     1      -1.256  -2.034   0.003  0.00  0.00    +0.062 A 
ATOM     16 BR   UNL     1      -5.335  -2.799   0.041  0.00  0.00    -0.050 Br
BRANCH  10  18
ATOM     17  C   UNL     1      -0.017   1.425   0.010  0.00  0.00    +0.277 C 
ATOM     18  O   UNL     1       0.002  -0.004   0.002  0.00  0.00    -0.494 OA
ENDBRANCH  10  18
ENDBRANCH   1  15
BRANCH   5  19
ATOM     19  N   UNL     1       3.517  -2.229  -0.033  0.00  0.00    -0.343 N 
ATOM     20  H   UNL     1       4.343  -2.737  -0.044  0.00  0.00    +0.144 HD
ATOM     21  H   UNL     1       3.544  -1.259  -0.024  0.00  0.00    +0.144 HD
ENDBRANCH   5  19
TORSDOF 3
