REMARK  Name = ZINC40086868
REMARK  9 active torsions:
REMARK  status: ('A' for Active; 'I' for Inactive)
REMARK    1  A    between atoms: C_1  and  C_2
REMARK    2  A    between atoms: C_2  and  C_3
REMARK    3  A    between atoms: C_2  and  C_4
REMARK    4  A    between atoms: C_2  and  C_5
REMARK    5  A    between atoms: C_11  and  N_13
REMARK    6  A    between atoms: C_14  and  C_16
REMARK    7  A    between atoms: C_22  and  C_24
REMARK    8  A    between atoms: C_24  and  C_25
REMARK    9  A    between atoms: C_25  and  C_26
REMARK                            x       y       z     vdW  Elec       q    Type
REMARK                         _______ _______ _______ _____ _____    ______ ____
ROOT
ATOM      1  C   UNL     1       4.434  -1.558   1.351  0.00  0.00    +0.078 C 
ATOM      2  C   UNL     1       3.554  -1.326   2.581  0.00  0.00    +0.032 C 
ATOM      3  C   UNL     1       4.207  -1.980   3.803  0.00  0.00    +0.108 C 
ATOM      4  N   UNL     1       5.578  -1.467   3.936  0.00  0.00    -0.301 N 
ATOM      5  C   UNL     1       6.482  -1.557   2.782  0.00  0.00    +0.108 C 
ATOM      6  C   UNL     1       5.802  -0.908   1.572  0.00  0.00    +0.032 C 
ATOM      7  C   UNL     1       5.997  -0.924   5.096  0.00  0.00    +0.216 C 
ATOM      8  O   UNL     1       5.242  -0.855   6.042  0.00  0.00    -0.276 OA
ENDROOT
BRANCH   1  10
ATOM      9  N   UNL     1       2.557  -1.364  -0.248  0.00  0.00    -0.312 N 
ATOM     10  C   UNL     1       3.777  -0.945   0.141  0.00  0.00    +0.216 C 
ATOM     11  O   UNL     1       4.347  -0.076  -0.483  0.00  0.00    -0.276 OA
ATOM     12  H   UNL     1       2.101  -2.060   0.252  0.00  0.00    +0.149 HD
BRANCH   9  18
ATOM     13  C   UNL     1       0.397  -0.843  -1.271  0.00  0.00    +0.015 C 
ATOM     14  C   UNL     1      -0.032  -2.306  -1.144  0.00  0.00    +0.006 C 
ATOM     15  C   UNL     1       0.393  -3.073  -2.398  0.00  0.00    +0.000 C 
ATOM     16  C   UNL     1       1.914  -2.999  -2.550  0.00  0.00    +0.002 C 
ATOM     17  C   UNL     1       2.343  -1.536  -2.678  0.00  0.00    +0.022 C 
ATOM     18  C   UNL     1       1.918  -0.769  -1.424  0.00  0.00    +0.077 C 
BRANCH  13  20
ATOM     19  C   UNL     1       0.539   1.344  -0.072  0.00  0.00    +0.011 C 
ATOM     20  C   UNL     1      -0.027  -0.076  -0.018  0.00  0.00    -0.033 C 
ATOM     21  C   UNL     1       0.508  -0.792   1.224  0.00  0.00    +0.011 C 
ATOM     22  C   UNL     1      -1.555  -0.013   0.049  0.00  0.00    +0.011 C 
ENDBRANCH  13  20
ENDBRANCH   9  18
ENDBRANCH   1  10
BRANCH   7  23
ATOM     23  C   UNL     1       7.406  -0.402   5.218  0.00  0.00    +0.100 C 
BRANCH  23  24
ATOM     24  C   UNL     1       7.623   0.158   6.625  0.00  0.00    +0.044 C 
BRANCH  24  25
ATOM     25  C   UNL     1       9.032   0.679   6.747  0.00  0.00    -0.047 A 
ATOM     26  C   UNL     1      10.045  -0.161   7.169  0.00  0.00    +0.003 A 
ATOM     27  C   UNL     1      11.338   0.318   7.280  0.00  0.00    +0.000 A 
ATOM     28  C   UNL     1      11.616   1.636   6.969  0.00  0.00    +0.000 A 
ATOM     29  C   UNL     1      10.602   2.475   6.546  0.00  0.00    +0.000 A 
ATOM     30  C   UNL     1       9.311   1.996   6.431  0.00  0.00    +0.003 A 
ENDBRANCH  24  25
ENDBRANCH  23  24
ENDBRANCH   7  23
TORSDOF 6
