REMARK  Name = ZINC05360906
REMARK  5 active torsions:
REMARK  status: ('A' for Active; 'I' for Inactive)
REMARK    1  A    between atoms: C_1  and  O_2
REMARK    2  A    between atoms: O_2  and  C_3
REMARK    3  A    between atoms: C_8  and  C_9
REMARK    4  A    between atoms: N_10  and  C_11
REMARK    5  A    between atoms: C_12  and  C_20
REMARK                            x       y       z     vdW  Elec       q    Type
REMARK                         _______ _______ _______ _____ _____    ______ ____
ROOT
ATOM      1  C   UNL     1      -2.285   7.247  -2.766  0.00  0.00    +0.123 C 
ATOM      2  N   UNL     1      -1.970   6.942  -1.534  0.00  0.00    -0.246 NA
ENDROOT
BRANCH   2   3
ATOM      3  C   UNL     1      -1.634   5.673  -1.217  0.00  0.00    +0.119 A 
ATOM      4  C   UNL     1      -1.268   5.141   0.024  0.00  0.00    +0.088 A 
ATOM      5  C   UNL     1      -0.959   3.772   0.104  0.00  0.00    -0.018 A 
ATOM      6  C   UNL     1      -1.038   3.057  -1.046  0.00  0.00    -0.004 A 
ATOM      7  S   UNL     1      -1.540   4.236  -2.272  0.00  0.00    -0.073 S 
ATOM      8  C   UNL     1      -0.762   1.598  -1.231  0.00  0.00    +0.043 C 
ATOM      9  C   UNL     1      -0.013   1.086   0.008  0.00  0.00    +0.005 C 
ATOM     10  C   UNL     1      -0.736   1.583   1.263  0.00  0.00    +0.005 C 
ATOM     11  C   UNL     1      -0.550   3.093   1.409  0.00  0.00    +0.037 C 
BRANCH   4  12
ATOM     12  C   UNL     1      -1.209   5.973   1.189  0.00  0.00    +0.102 C 
ATOM     13  N   UNL     1      -1.163   6.633   2.112  0.00  0.00    -0.191 NA
ENDBRANCH   4  12
ENDBRANCH   2   3
BRANCH   1  19
ATOM     14  C   UNL     1      -2.663   9.622  -2.121  0.00  0.00    +0.129 A 
ATOM     15  C   UNL     1      -3.010  10.921  -2.458  0.00  0.00    +0.047 A 
ATOM     16  C   UNL     1      -3.341  11.234  -3.762  0.00  0.00    +0.019 A 
ATOM     17  C   UNL     1      -3.330  10.255  -4.744  0.00  0.00    +0.019 A 
ATOM     18  C   UNL     1      -2.983   8.959  -4.429  0.00  0.00    +0.028 A 
ATOM     19  C   UNL     1      -2.651   8.627  -3.111  0.00  0.00    +0.036 A 
ATOM     20 BR   UNL     1      -3.786  10.702  -6.524  0.00  0.00    -0.050 Br
BRANCH  14  22
ATOM     21  C   UNL     1      -2.373  10.379   0.113  0.00  0.00    +0.277 C 
ATOM     22  O   UNL     1      -2.338   9.314  -0.840  0.00  0.00    -0.494 OA
ENDBRANCH  14  22
ENDBRANCH   1  19
TORSDOF 4
