REMARK  Name = ZINC56905057
REMARK  5 active torsions:
REMARK  status: ('A' for Active; 'I' for Inactive)
REMARK    1  A    between atoms: C_1  and  C_2
REMARK    2  A    between atoms: C_10  and  C_11
REMARK    3  A    between atoms: C_11  and  C_13
REMARK    4  A    between atoms: C_11  and  N_14
REMARK    5  A    between atoms: C_20  and  N_23
REMARK                            x       y       z     vdW  Elec       q    Type
REMARK                         _______ _______ _______ _____ _____    ______ ____
ROOT
ATOM      1  N   UNL     1       1.024  -1.119   3.259  0.00  0.00    -0.290 N 
ATOM      2  C   UNL     1       1.577  -0.595   4.370  0.00  0.00    +0.303 C 
ATOM      3  O   UNL     1       1.320   0.548   4.697  0.00  0.00    -0.253 OA
ATOM      4  N   UNL     1       2.415  -1.337   5.121  0.00  0.00    -0.286 N 
ATOM      5  C   UNL     1       2.827  -2.677   4.680  0.00  0.00    +0.108 C 
ATOM      6  C   UNL     1       2.532  -3.678   5.801  0.00  0.00    +0.004 C 
ATOM      7  C   UNL     1       3.207  -3.205   7.091  0.00  0.00    -0.066 C 
ATOM      8  C   UNL     1       2.638  -1.844   7.497  0.00  0.00    +0.004 C 
ATOM      9  C   UNL     1       2.939  -0.820   6.392  0.00  0.00    +0.108 C 
ATOM     10  H   UNL     1       1.285  -2.003   2.958  0.00  0.00    +0.151 HD
ENDROOT
BRANCH   7  11
ATOM     11  N   UNL     1       2.953  -4.180   8.161  0.00  0.00    +0.382 N 
ATOM     12  C   UNL     1       3.576  -5.485   7.822  0.00  0.00    -0.079 C 
ATOM     13  C   UNL     1       3.722  -6.177   9.201  0.00  0.00    -0.020 C 
ATOM     14  C   UNL     1       4.096  -5.005  10.138  0.00  0.00    -0.020 C 
ATOM     15  C   UNL     1       3.599  -3.739   9.416  0.00  0.00    -0.079 C 
ATOM     16  H   UNL     1       1.960  -4.293   8.301  0.00  0.00    -0.081 HD
ENDBRANCH   7  11
BRANCH   1  17
ATOM     17  C   UNL     1       0.029  -0.353   2.505  0.00  0.00    +0.138 C 
ATOM     18  C   UNL     1      -1.355  -0.572   3.119  0.00  0.00    +0.036 C 
BRANCH  17  28
ATOM     19  C   UNL     1      -0.024   1.502   0.012  0.00  0.00    +0.048 C 
ATOM     20  C   UNL     1      -0.003  -0.005   0.004  0.00  0.00    +0.000 A 
ATOM     21  C   UNL     1       0.004  -0.880  -1.175  0.00  0.00    +0.023 A 
ATOM     22  C   UNL     1      -0.006  -0.661  -2.552  0.00  0.00    +0.012 A 
ATOM     23  C   UNL     1       0.004  -1.727  -3.408  0.00  0.00    +0.001 A 
ATOM     24  C   UNL     1       0.025  -3.024  -2.914  0.00  0.00    +0.004 A 
ATOM     25  C   UNL     1       0.036  -3.260  -1.556  0.00  0.00    +0.047 A 
ATOM     26  C   UNL     1       0.025  -2.190  -0.669  0.00  0.00    +0.136 A 
ATOM     27  O   UNL     1       0.031  -2.100   0.676  0.00  0.00    -0.458 OA
ATOM     28  C   UNL     1       0.020  -0.815   1.071  0.00  0.00    +0.129 A 
ENDBRANCH  17  28
ENDBRANCH   1  17
TORSDOF 3
