REMARK  Name = ZINC00995747
REMARK  9 active torsions:
REMARK  status: ('A' for Active; 'I' for Inactive)
REMARK    1  A    between atoms: C_1  and  C_2
REMARK    2  A    between atoms: C_5  and  C_7
REMARK    3  A    between atoms: C_9  and  C_17
REMARK    4  A    between atoms: N_19  and  C_20
REMARK    5  A    between atoms: C_21  and  C_34
REMARK    6  A    between atoms: C_26  and  C_30
REMARK    7  A    between atoms: C_30  and  C_31
REMARK    8  A    between atoms: C_30  and  C_32
REMARK    9  A    between atoms: C_30  and  C_33
REMARK                            x       y       z     vdW  Elec       q    Type
REMARK                         _______ _______ _______ _____ _____    ______ ____
ROOT
ATOM      1  C   UNL     1      -7.201   2.796   1.858  0.00  0.00    +0.249 C 
ATOM      2  O   UNL     1      -8.304   3.014   2.320  0.00  0.00    -0.270 OA
ATOM      3  N   UNL     1      -7.066   2.488   0.553  0.00  0.00    -0.275 N 
ATOM      4  H   UNL     1      -6.186   2.314   0.184  0.00  0.00    +0.156 HD
ENDROOT
BRANCH   1   7
ATOM      5  C   UNL     1      -3.646   2.592   3.122  0.00  0.00    +0.107 A 
ATOM      6  C   UNL     1      -4.753   2.509   2.260  0.00  0.00    +0.045 A 
ATOM      7  C   UNL     1      -6.008   2.866   2.728  0.00  0.00    +0.048 A 
ATOM      8  C   UNL     1      -6.105   3.317   4.118  0.00  0.00    +0.013 A 
ATOM      9  C   UNL     1      -7.329   3.697   4.678  0.00  0.00    +0.011 A 
ATOM     10  C   UNL     1      -7.376   4.111   5.977  0.00  0.00    +0.001 A 
ATOM     11  C   UNL     1      -6.220   4.159   6.753  0.00  0.00    +0.002 A 
ATOM     12  C   UNL     1      -5.013   3.795   6.239  0.00  0.00    +0.028 A 
ATOM     13  C   UNL     1      -4.926   3.363   4.902  0.00  0.00    +0.073 A 
ATOM     14  N   UNL     1      -3.757   2.996   4.373  0.00  0.00    -0.244 NA
BRANCH   5  19
ATOM     15  C   UNL     1      -0.024   1.016   0.029  0.00  0.00    +0.086 C 
ATOM     16  C   UNL     1      -0.727   1.519   1.264  0.00  0.00    +0.103 A 
ATOM     17  C   UNL     1      -0.139   1.790   2.447  0.00  0.00    +0.045 A 
ATOM     18  C   UNL     1      -1.152   2.233   3.319  0.00  0.00    +0.052 A 
ATOM     19  C   UNL     1      -2.315   2.208   2.613  0.00  0.00    +0.153 A 
ATOM     20  O   UNL     1      -2.040   1.778   1.366  0.00  0.00    -0.458 OA
ENDBRANCH   5  19
ENDBRANCH   1   7
BRANCH   3  21
ATOM     21  C   UNL     1      -8.184   2.422  -0.262  0.00  0.00    +0.085 A 
ATOM     22  C   UNL     1      -8.248   2.125  -1.617  0.00  0.00    +0.068 A 
ATOM     23  C   UNL     1      -9.559   2.121  -2.242  0.00  0.00    -0.023 A 
ATOM     24  C   UNL     1     -10.590   2.413  -1.420  0.00  0.00    -0.004 A 
ATOM     25  S   UNL     1      -9.844   2.683   0.163  0.00  0.00    -0.077 S 
ATOM     26  C   UNL     1     -12.042   2.485  -1.781  0.00  0.00    +0.046 C 
ATOM     27  C   UNL     1     -12.157   2.544  -3.311  0.00  0.00    -0.000 C 
ATOM     28  C   UNL     1     -11.268   1.453  -3.915  0.00  0.00    +0.009 C 
ATOM     29  C   UNL     1      -9.794   1.814  -3.716  0.00  0.00    +0.037 C 
BRANCH  22  30
ATOM     30  C   UNL     1      -7.037   1.825  -2.387  0.00  0.00    +0.244 C 
ATOM     31  O   UNL     1      -6.641   0.678  -2.477  0.00  0.00    -0.270 OA
ATOM     32  N   UNL     1      -6.362   2.820  -2.996  0.00  0.00    -0.325 N 
ATOM     33  H   UNL     1      -6.678   3.735  -2.925  0.00  0.00    +0.145 HD
ATOM     34  H   UNL     1      -5.561   2.622  -3.506  0.00  0.00    +0.145 HD
ENDBRANCH  22  30
BRANCH  27  35
ATOM     35  C   UNL     1     -13.611   2.308  -3.725  0.00  0.00    -0.035 C 
ATOM     36  C   UNL     1     -14.499   3.389  -3.106  0.00  0.00    +0.011 C 
ATOM     37  C   UNL     1     -13.723   2.367  -5.250  0.00  0.00    +0.011 C 
ATOM     38  C   UNL     1     -14.064   0.932  -3.234  0.00  0.00    +0.011 C 
ENDBRANCH  27  35
ENDBRANCH   3  21
TORSDOF 5
