REMARK  Name = ZINC12980102
REMARK  14 active torsions:
REMARK  status: ('A' for Active; 'I' for Inactive)
REMARK    1  A    between atoms: C_1  and  O_2
REMARK    2  A    between atoms: O_2  and  C_3
REMARK    3  A    between atoms: C_8  and  C_9
REMARK    4  A    between atoms: C_9  and  C_11
REMARK    5  A    between atoms: C_9  and  N_32
REMARK    6  A    between atoms: C_11  and  N_12
REMARK    7  A    between atoms: C_13  and  C_15
REMARK    8  A    between atoms: C_15  and  C_17
REMARK    9  A    between atoms: C_15  and  N_21
REMARK   10  A    between atoms: C_17  and  C_18
REMARK   11  A    between atoms: C_18  and  S_19
REMARK   12  A    between atoms: S_19  and  C_20
REMARK   13  A    between atoms: N_21  and  S_22
REMARK   14  A    between atoms: S_22  and  C_25
REMARK                            x       y       z     vdW  Elec       q    Type
REMARK                         _______ _______ _______ _____ _____    ______ ____
ROOT
ATOM      1  N   UNL     1       1.813  -3.546   1.217  0.00  0.00    -0.315 N 
ATOM      2  C   UNL     1       2.302  -4.129   2.329  0.00  0.00    +0.232 C 
ATOM      3  O   UNL     1       1.710  -4.018   3.382  0.00  0.00    -0.274 OA
ATOM      4  H   UNL     1       2.286  -3.636   0.375  0.00  0.00    +0.149 HD
ENDROOT
BRANCH   1   5
ATOM      5  C   UNL     1       0.568  -2.778   1.279  0.00  0.00    +0.093 C 
BRANCH   5   6
ATOM      6  C   UNL     1       0.173  -2.331  -0.130  0.00  0.00    -0.017 C 
BRANCH   6  12
ATOM      7  C   UNL     1      -1.430  -4.086  -0.927  0.00  0.00    +0.122 A 
ATOM      8  C   UNL     1      -1.731  -5.196  -1.703  0.00  0.00    +0.046 A 
ATOM      9  C   UNL     1      -0.760  -5.758  -2.509  0.00  0.00    +0.004 A 
ATOM     10  C   UNL     1       0.511  -5.215  -2.543  0.00  0.00    +0.000 A 
ATOM     11  C   UNL     1       0.814  -4.109  -1.770  0.00  0.00    +0.005 A 
ATOM     12  C   UNL     1      -0.155  -3.540  -0.967  0.00  0.00    -0.018 A 
BRANCH   7  14
ATOM     13  C   UNL     1      -3.674  -4.146  -0.144  0.00  0.00    +0.277 C 
ATOM     14  O   UNL     1      -2.384  -3.531  -0.134  0.00  0.00    -0.495 OA
ENDBRANCH   7  14
ENDBRANCH   6  12
BRANCH   6  15
ATOM     15  N   UNL     1       1.291  -1.600  -0.743  0.00  0.00    +0.385 N 
ATOM     16  C   UNL     1       0.876  -1.035  -2.053  0.00  0.00    -0.078 C 
ATOM     17  C   UNL     1       1.890   0.114  -2.279  0.00  0.00    -0.020 C 
ATOM     18  C   UNL     1       2.080   0.693  -0.858  0.00  0.00    -0.020 C 
ATOM     19  C   UNL     1       1.663  -0.441   0.097  0.00  0.00    -0.078 C 
ATOM     20  H   UNL     1       2.084  -2.213  -0.862  0.00  0.00    -0.081 HD
ENDBRANCH   6  15
ENDBRANCH   5   6
ENDBRANCH   1   5
BRANCH   2  21
ATOM     21  C   UNL     1       3.583  -4.920   2.265  0.00  0.00    +0.163 C 
BRANCH  21  22
ATOM     22  N   UNL     1       3.899  -5.448   3.595  0.00  0.00    -0.178 NA
ATOM     23  H   UNL     1       4.149  -4.842   4.310  0.00  0.00    +0.149 HD
BRANCH  22  24
ATOM     24  S   UNL     1       3.828  -7.078   3.877  0.00  0.00    +0.062 S 
ATOM     25  O   UNL     1       4.159  -7.268   5.246  0.00  0.00    -0.153 OA
ATOM     26  O   UNL     1       2.603  -7.534   3.319  0.00  0.00    -0.153 OA
BRANCH  24  27
ATOM     27  C   UNL     1       5.118  -7.826   2.939  0.00  0.00    +0.140 A 
ATOM     28  C   UNL     1       6.237  -8.326   3.578  0.00  0.00    +0.031 A 
ATOM     29  C   UNL     1       7.249  -8.913   2.842  0.00  0.00    +0.002 A 
ATOM     30  C   UNL     1       7.144  -9.000   1.466  0.00  0.00    +0.003 A 
ATOM     31  C   UNL     1       6.026  -8.501   0.825  0.00  0.00    +0.040 A 
ATOM     32  C   UNL     1       5.009  -7.917   1.562  0.00  0.00    +0.150 A 
ATOM     33  F   UNL     1       3.913  -7.433   0.936  0.00  0.00    -0.203 F 
ENDBRANCH  24  27
ENDBRANCH  22  24
ENDBRANCH  21  22
BRANCH  21  34
ATOM     34  C   UNL     1       4.720  -4.011   1.794  0.00  0.00    +0.040 C 
BRANCH  34  35
ATOM     35  C   UNL     1       5.999  -4.835   1.634  0.00  0.00    +0.071 C 
BRANCH  35  36
ATOM     36  S   UNL     1       7.377  -3.737   1.206  0.00  0.00    -0.164 S 
ATOM     37  C   UNL     1       8.764  -4.868   0.906  0.00  0.00    +0.084 C 
ENDBRANCH  35  36
ENDBRANCH  34  35
ENDBRANCH  21  34
ENDBRANCH   2  21
TORSDOF 12
