REMARK  Name = ZINC59035765
REMARK  15 active torsions:
REMARK  status: ('A' for Active; 'I' for Inactive)
REMARK    1  A    between atoms: C_1  and  C_2
REMARK    2  A    between atoms: C_5  and  C_8
REMARK    3  A    between atoms: C_8  and  N_9
REMARK    4  A    between atoms: N_9  and  C_10
REMARK    5  A    between atoms: N_9  and  C_17
REMARK    6  A    between atoms: C_10  and  C_11
REMARK    7  A    between atoms: C_17  and  N_19
REMARK    8  A    between atoms: N_19  and  C_20
REMARK    9  A    between atoms: C_20  and  C_21
REMARK   10  A    between atoms: C_20  and  C_22
REMARK   11  A    between atoms: C_20  and  C_23
REMARK   12  A    between atoms: C_23  and  C_24
REMARK   13  A    between atoms: C_24  and  C_25
REMARK   14  A    between atoms: C_24  and  C_26
REMARK   15  A    between atoms: C_24  and  C_27
REMARK                            x       y       z     vdW  Elec       q    Type
REMARK                         _______ _______ _______ _____ _____    ______ ____
ROOT
ATOM      1  N   UNL     1       0.232  -4.907  -1.065  0.00  0.00    -0.304 N 
ENDROOT
BRANCH   1   2
ATOM      2  C   UNL     1       0.907  -4.943  -2.231  0.00  0.00    +0.134 C 
ATOM      3  S   UNL     1       0.056  -4.916  -3.716  0.00  0.00    -0.019 S 
BRANCH   2   4
ATOM      4  N   UNL     1       2.254  -5.001  -2.228  0.00  0.00    -0.321 N 
ATOM      5  H   UNL     1       2.739  -4.953  -1.389  0.00  0.00    +0.148 HD
BRANCH   4   6
ATOM      6  C   UNL     1       2.985  -5.137  -3.490  0.00  0.00    +0.029 C 
ATOM      7  C   UNL     1       2.718  -3.912  -4.368  0.00  0.00    +0.031 C 
ATOM      8  C   UNL     1       4.484  -5.242  -3.203  0.00  0.00    +0.031 C 
BRANCH   6   9
ATOM      9  C   UNL     1       2.515  -6.397  -4.218  0.00  0.00    +0.031 C 
BRANCH   9  10
ATOM     10  C   UNL     1       2.447  -7.562  -3.229  0.00  0.00    -0.036 C 
ATOM     11  C   UNL     1       1.364  -7.282  -2.185  0.00  0.00    +0.010 C 
ATOM     12  C   UNL     1       2.108  -8.851  -3.981  0.00  0.00    +0.010 C 
ATOM     13  C   UNL     1       3.800  -7.719  -2.532  0.00  0.00    +0.010 C 
ENDBRANCH   9  10
ENDBRANCH   6   9
ENDBRANCH   4   6
ENDBRANCH   2   4
ENDBRANCH   1   2
BRANCH   1  14
ATOM     14  C   UNL     1      -1.233  -4.951  -1.066  0.00  0.00    +0.142 C 
BRANCH  14  19
ATOM     15  C   UNL     1      -3.326   0.428  -1.333  0.00  0.00    +0.044 C 
ATOM     16  C   UNL     1      -2.780  -0.974  -1.263  0.00  0.00    -0.050 A 
ATOM     17  C   UNL     1      -2.526  -1.676  -2.427  0.00  0.00    +0.003 A 
ATOM     18  C   UNL     1      -2.026  -2.963  -2.363  0.00  0.00    +0.005 A 
ATOM     19  C   UNL     1      -1.778  -3.548  -1.136  0.00  0.00    -0.030 A 
ATOM     20  C   UNL     1      -2.031  -2.846   0.028  0.00  0.00    +0.005 A 
ATOM     21  C   UNL     1      -2.527  -1.558  -0.036  0.00  0.00    +0.003 A 
ENDBRANCH  14  19
ENDBRANCH   1  14
BRANCH   1  22
ATOM     22  C   UNL     1       0.961  -4.823   0.202  0.00  0.00    +0.142 C 
BRANCH  22  23
ATOM     23  C   UNL     1       1.111  -6.203   0.788  0.00  0.00    -0.030 A 
ATOM     24  C   UNL     1       0.073  -6.766   1.506  0.00  0.00    +0.005 A 
ATOM     25  C   UNL     1       0.210  -8.032   2.043  0.00  0.00    +0.000 A 
ATOM     26  C   UNL     1       1.386  -8.736   1.862  0.00  0.00    +0.000 A 
ATOM     27  C   UNL     1       2.425  -8.173   1.143  0.00  0.00    +0.000 A 
ATOM     28  C   UNL     1       2.285  -6.909   0.602  0.00  0.00    +0.005 A 
ENDBRANCH  22  23
ENDBRANCH   1  22
TORSDOF 9
