REMARK  Name = ZINC10232992
REMARK  8 active torsions:
REMARK  status: ('A' for Active; 'I' for Inactive)
REMARK    1  A    between atoms: C_1  and  C_2
REMARK    2  A    between atoms: C_2  and  O_3
REMARK    3  A    between atoms: O_3  and  C_4
REMARK    4  A    between atoms: C_4  and  C_6
REMARK    5  A    between atoms: C_11  and  C_12
REMARK    6  A    between atoms: C_11  and  N_58
REMARK    7  A    between atoms: N_14  and  C_15
REMARK    8  A    between atoms: C_16  and  C_26
REMARK                            x       y       z     vdW  Elec       q    Type
REMARK                         _______ _______ _______ _____ _____    ______ ____
ROOT
ATOM      1  C   UNL     1      -0.043   1.206   0.289  0.00  0.00    +0.203 C 
ATOM      2  O   UNL     1      -0.060   0.010   0.486  0.00  0.00    -0.277 OA
ATOM      3  N   UNL     1       1.126   1.876   0.307  0.00  0.00    -0.257 N 
ATOM      4  H   UNL     1       1.140   2.833   0.149  0.00  0.00    +0.158 HD
ENDROOT
BRANCH   3   5
ATOM      5  C   UNL     1       2.301   1.202   0.548  0.00  0.00    +0.204 A 
ATOM      6  C   UNL     1       3.488   1.910   0.555  0.00  0.00    +0.087 A 
ATOM      7  C   UNL     1       4.704   1.220   0.809  0.00  0.00    +0.202 A 
ATOM      8  O   UNL     1       5.773   1.807   0.830  0.00  0.00    -0.286 OA
ATOM      9  C   UNL     1       4.622  -0.235   1.041  0.00  0.00    +0.065 A 
ATOM     10  C   UNL     1       5.767  -0.991   1.290  0.00  0.00    +0.015 A 
ATOM     11  C   UNL     1       5.654  -2.348   1.501  0.00  0.00    +0.001 A 
ATOM     12  C   UNL     1       4.409  -2.959   1.467  0.00  0.00    +0.004 A 
ATOM     13  C   UNL     1       3.270  -2.222   1.221  0.00  0.00    +0.047 A 
ATOM     14  C   UNL     1       3.363  -0.853   1.005  0.00  0.00    +0.141 A 
ATOM     15  O   UNL     1       2.256  -0.119   0.762  0.00  0.00    -0.440 OA
BRANCH   6  16
ATOM     16  C   UNL     1       3.492   3.371   0.307  0.00  0.00    -0.009 A 
ATOM     17  C   UNL     1       3.108   3.870  -0.937  0.00  0.00    +0.009 A 
ATOM     18  C   UNL     1       3.108   5.232  -1.160  0.00  0.00    +0.001 A 
ATOM     19  C   UNL     1       3.499   6.100  -0.157  0.00  0.00    +0.000 A 
ATOM     20  C   UNL     1       3.887   5.610   1.077  0.00  0.00    +0.001 A 
ATOM     21  C   UNL     1       3.885   4.251   1.315  0.00  0.00    +0.009 A 
ENDBRANCH   6  16
ENDBRANCH   3   5
BRANCH   1  22
ATOM     22  C   UNL     1      -1.330   1.944   0.019  0.00  0.00    +0.019 C 
BRANCH  22  28
ATOM     23  C   UNL     1      -4.725  -0.285  -1.318  0.00  0.00    +0.094 C 
ATOM     24  C   UNL     1      -3.345  -0.948  -1.307  0.00  0.00    -0.004 C 
ATOM     25  C   UNL     1      -2.264   0.136  -1.292  0.00  0.00    -0.077 C 
ATOM     26  C   UNL     1      -3.730   1.664  -0.114  0.00  0.00    -0.077 C 
ATOM     27  C   UNL     1      -4.855   0.626  -0.094  0.00  0.00    -0.004 C 
ATOM     28  N   UNL     1      -2.429   0.962  -0.077  0.00  0.00    +0.385 N 
ATOM     29  H   UNL     1      -2.404   0.351   0.747  0.00  0.00    -0.081 HD
BRANCH  23  30
ATOM     30  C   UNL     1      -5.793  -1.346  -1.272  0.00  0.00    +0.310 C 
ATOM     31  O   UNL     1      -5.484  -2.514  -1.235  0.00  0.00    -0.251 OA
BRANCH  30  32
ATOM     32  O   UNL     1      -7.089  -0.995  -1.274  0.00  0.00    -0.465 OA
BRANCH  32  34
ATOM     33  C   UNL     1      -9.475  -1.479  -1.237  0.00  0.00    +0.048 C 
ATOM     34  C   UNL     1      -8.064  -2.070  -1.228  0.00  0.00    +0.229 C 
ENDBRANCH  32  34
ENDBRANCH  30  32
ENDBRANCH  23  30
ENDBRANCH  22  28
ENDBRANCH   1  22
TORSDOF 7
