REMARK  Name = ZINC05034117
REMARK  5 active torsions:
REMARK  status: ('A' for Active; 'I' for Inactive)
REMARK    1  A    between atoms: C_1  and  C_2
REMARK    2  A    between atoms: C_2  and  C_4
REMARK    3  A    between atoms: C_2  and  S_16
REMARK    4  A    between atoms: N_6  and  C_7
REMARK    5  A    between atoms: S_16  and  C_17
REMARK                            x       y       z     vdW  Elec       q    Type
REMARK                         _______ _______ _______ _____ _____    ______ ____
ROOT
ATOM      1  C   UNL     1      -3.858  -4.304  -0.101  0.00  0.00    +0.230 C 
ATOM      2  O   UNL     1      -3.491  -5.405   0.252  0.00  0.00    -0.274 OA
ATOM      3  N   UNL     1      -5.094  -4.137  -0.611  0.00  0.00    -0.282 N 
ATOM      4  H   UNL     1      -5.412  -3.247  -0.833  0.00  0.00    +0.155 HD
ENDROOT
BRANCH   3   5
ATOM      5  C   UNL     1      -5.922  -5.248  -0.821  0.00  0.00    +0.072 A 
ATOM      6  C   UNL     1      -5.873  -6.326   0.053  0.00  0.00    +0.029 A 
ATOM      7  C   UNL     1      -6.689  -7.421  -0.155  0.00  0.00    +0.043 A 
ATOM      8  C   UNL     1      -7.556  -7.446  -1.234  0.00  0.00    +0.161 A 
ATOM      9  C   UNL     1      -7.608  -6.373  -2.109  0.00  0.00    +0.195 A 
ATOM     10  C   UNL     1      -6.796  -5.271  -1.901  0.00  0.00    +0.182 A 
ATOM     11  F   UNL     1      -6.849  -4.221  -2.751  0.00  0.00    -0.200 F 
ATOM     12  F   UNL     1      -8.455  -6.399  -3.161  0.00  0.00    -0.199 F 
ATOM     13  F   UNL     1      -8.353  -8.519  -1.434  0.00  0.00    -0.202 F 
ENDBRANCH   3   5
BRANCH   1  15
ATOM     14  C   UNL     1      -3.217  -2.396   1.348  0.00  0.00    +0.029 C 
ATOM     15  C   UNL     1      -2.932  -3.122   0.032  0.00  0.00    +0.139 C 
BRANCH  15  16
ATOM     16  S   UNL     1      -1.216  -3.697   0.020  0.00  0.00    -0.055 S 
BRANCH  16  17
ATOM     17  C   UNL     1      -0.374  -2.149   0.033  0.00  0.00    +0.259 A 
ATOM     18  N   UNL     1       0.927  -2.002   0.030  0.00  0.00    -0.203 NA
ATOM     19  C   UNL     1       1.216  -0.672   0.043  0.00  0.00    +0.110 A 
ATOM     20  C   UNL     1       2.406   0.056   0.046  0.00  0.00    +0.031 A 
ATOM     21  C   UNL     1       2.366   1.433   0.061  0.00  0.00    +0.002 A 
ATOM     22  C   UNL     1       1.150   2.099   0.072  0.00  0.00    +0.004 A 
ATOM     23  C   UNL     1      -0.035   1.391   0.069  0.00  0.00    +0.048 A 
ATOM     24  C   UNL     1      -0.013   0.006   0.054  0.00  0.00    +0.156 A 
ATOM     25  O   UNL     1      -0.975  -0.945   0.048  0.00  0.00    -0.431 OA
ENDBRANCH  16  17
ENDBRANCH  15  16
ENDBRANCH   1  15
TORSDOF 4
