REMARK  Name = ZINC12009932
REMARK  5 active torsions:
REMARK  status: ('A' for Active; 'I' for Inactive)
REMARK    1  A    between atoms: C_3  and  C_6
REMARK    2  A    between atoms: C_8  and  N_22
REMARK    3  A    between atoms: C_23  and  C_25
REMARK    4  A    between atoms: C_28  and  S_31
REMARK    5  A    between atoms: S_31  and  N_34
REMARK                            x       y       z     vdW  Elec       q    Type
REMARK                         _______ _______ _______ _____ _____    ______ ____
ROOT
ATOM      1  C   UNL     1      -5.051   4.676   8.296  0.00  0.00    +0.130 A 
ATOM      2  C   UNL     1      -4.567   3.916   7.210  0.00  0.00    +0.077 A 
ATOM      3  C   UNL     1      -3.639   4.664   6.561  0.00  0.00    +0.133 A 
ATOM      4  N   UNL     1      -3.533   5.857   7.218  0.00  0.00    -0.184 N 
ATOM      5  N   UNL     1      -4.431   5.839   8.294  0.00  0.00    -0.159 NA
ATOM      6  C   UNL     1      -2.692   6.899   6.880  0.00  0.00    +0.234 A 
ATOM      7  N   UNL     1      -2.701   8.033   7.629  0.00  0.00    -0.291 N 
ATOM      8  H   UNL     1      -3.293   8.108   8.393  0.00  0.00    +0.172 HD
ATOM      9  C   UNL     1      -1.877   9.053   7.305  0.00  0.00    +0.256 A 
ATOM     10  O   UNL     1      -1.867  10.077   7.968  0.00  0.00    -0.267 OA
ATOM     11  C   UNL     1      -1.034   8.914   6.186  0.00  0.00    +0.038 A 
ATOM     12  C   UNL     1      -1.071   7.756   5.470  0.00  0.00    +0.053 A 
ATOM     13  N   UNL     1      -1.902   6.777   5.837  0.00  0.00    -0.217 NA
ATOM     14  C   UNL     1      -0.088   7.827   4.320  0.00  0.00    +0.056 C 
ATOM     15  C   UNL     1       0.239   9.328   4.163  0.00  0.00    +0.011 C 
ATOM     16  C   UNL     1      -0.026   9.868   5.586  0.00  0.00    +0.043 C 
ENDROOT
BRANCH   1  19
ATOM     17  C   UNL     1      -7.504   4.179  10.970  0.00  0.00    +0.042 A 
ATOM     18  C   UNL     1      -6.539   4.973  10.318  0.00  0.00    +0.051 A 
ATOM     19  C   UNL     1      -6.077   4.244   9.268  0.00  0.00    +0.155 A 
ATOM     20  O   UNL     1      -6.712   3.056   9.271  0.00  0.00    -0.461 OA
ATOM     21  C   UNL     1      -7.575   3.013  10.299  0.00  0.00    +0.196 A 
ENDBRANCH   1  19
BRANCH   3  22
ATOM     22  N   UNL     1      -2.920   4.282   5.432  0.00  0.00    -0.266 N 
ATOM     23  C   UNL     1      -3.120   3.066   4.885  0.00  0.00    +0.249 C 
ATOM     24  O   UNL     1      -3.929   2.304   5.377  0.00  0.00    -0.270 OA
ATOM     25  H   UNL     1      -2.275   4.890   5.039  0.00  0.00    +0.157 HD
BRANCH  23  26
ATOM     26  C   UNL     1      -2.357   2.660   3.686  0.00  0.00    +0.037 A 
ATOM     27  C   UNL     1      -2.562   1.402   3.117  0.00  0.00    +0.015 A 
ATOM     28  C   UNL     1      -1.846   1.030   1.998  0.00  0.00    +0.029 A 
ATOM     29  C   UNL     1      -0.927   1.900   1.439  0.00  0.00    +0.106 A 
ATOM     30  C   UNL     1      -0.715   3.147   2.002  0.00  0.00    +0.029 A 
ATOM     31  C   UNL     1      -1.427   3.533   3.118  0.00  0.00    +0.015 A 
BRANCH  29  32
ATOM     32  S   UNL     1      -0.017   1.417   0.010  0.00  0.00    +0.061 S 
ATOM     33  O   UNL     1       0.002  -0.004   0.002  0.00  0.00    -0.153 OA
ATOM     34  O   UNL     1       1.172   2.195   0.003  0.00  0.00    -0.153 OA
BRANCH  32  35
ATOM     35  N   UNL     1      -0.897   1.885  -1.312  0.00  0.00    -0.177 NA
ATOM     36  C   UNL     1      -1.909   1.071  -2.000  0.00  0.00    +0.109 C 
ATOM     37  C   UNL     1      -2.444   1.906  -3.183  0.00  0.00    +0.018 C 
ATOM     38  C   UNL     1      -1.295   2.918  -3.438  0.00  0.00    +0.018 C 
ATOM     39  C   UNL     1      -0.792   3.186  -1.998  0.00  0.00    +0.109 C 
ENDBRANCH  32  35
ENDBRANCH  29  32
ENDBRANCH  23  26
ENDBRANCH   3  22
TORSDOF 5
