REMARK  Name = ZINC14009563
REMARK  7 active torsions:
REMARK  status: ('A' for Active; 'I' for Inactive)
REMARK    1  A    between atoms: C_4  and  C_7
REMARK    2  A    between atoms: C_7  and  C_8
REMARK    3  A    between atoms: C_7  and  N_14
REMARK    4  A    between atoms: N_17  and  C_20
REMARK    5  A    between atoms: C_20  and  N_22
REMARK    6  A    between atoms: C_23  and  C_25
REMARK    7  A    between atoms: C_26  and  C_27
REMARK                            x       y       z     vdW  Elec       q    Type
REMARK                         _______ _______ _______ _____ _____    ______ ____
ROOT
ATOM      1  N   UNL     1      -0.473   0.990  -1.721  0.00  0.00    -0.289 NA
ATOM      2  C   UNL     1       0.207   0.499  -0.516  0.00  0.00    +0.104 C 
ATOM      3  C   UNL     1      -0.531   1.007   0.727  0.00  0.00    +0.122 C 
ATOM      4  N   UNL     1      -0.653   2.469   0.633  0.00  0.00    -0.310 N 
ATOM      5  C   UNL     1      -1.201   3.045  -0.605  0.00  0.00    +0.122 C 
ATOM      6  C   UNL     1      -0.435   2.457  -1.795  0.00  0.00    +0.104 C 
ENDROOT
BRANCH   4   7
ATOM      7  C   UNL     1      -0.272   3.262   1.655  0.00  0.00    +0.139 C 
ATOM      8  S   UNL     1      -0.548   4.950   1.578  0.00  0.00    -0.018 S 
BRANCH   7   9
ATOM      9  N   UNL     1       0.326   2.725   2.737  0.00  0.00    -0.264 N 
ATOM     10  C   UNL     1       0.602   3.498   3.807  0.00  0.00    +0.242 C 
ATOM     11  O   UNL     1       0.311   4.679   3.795  0.00  0.00    -0.270 OA
ATOM     12  H   UNL     1       0.589   1.657   2.747  0.00  0.00    +0.157 HD
BRANCH  10  13
ATOM     13  C   UNL     1       1.250   2.916   4.980  0.00  0.00    +0.068 C 
ATOM     14  C   UNL     1       1.527   3.691   6.053  0.00  0.00    +0.013 C 
BRANCH  14  15
ATOM     15  C   UNL     1       2.178   3.107   7.231  0.00  0.00    -0.017 A 
ATOM     16  C   UNL     1       2.512   1.756   7.262  0.00  0.00    +0.008 A 
ATOM     17  C   UNL     1       3.132   1.209   8.376  0.00  0.00    +0.001 A 
ATOM     18  C   UNL     1       3.426   1.957   9.475  0.00  0.00    +0.008 A 
ATOM     19  C   UNL     1       3.113   3.326   9.516  0.00  0.00    -0.017 A 
ATOM     20  C   UNL     1       2.484   3.930   8.400  0.00  0.00    -0.011 A 
ATOM     21  C   UNL     1       2.171   5.294   8.437  0.00  0.00    +0.009 A 
ATOM     22  C   UNL     1       2.474   6.025   9.547  0.00  0.00    +0.001 A 
ATOM     23  C   UNL     1       3.092   5.434  10.647  0.00  0.00    +0.001 A 
ATOM     24  C   UNL     1       3.411   4.110  10.644  0.00  0.00    +0.008 A 
ENDBRANCH  14  15
ENDBRANCH  10  13
ENDBRANCH   7   9
ENDBRANCH   4   7
BRANCH   1  25
ATOM     25  C   UNL     1       0.100   0.388  -2.932  0.00  0.00    +0.117 C 
BRANCH  25  29
ATOM     26  C   UNL     1      -0.054  -3.869  -2.613  0.00  0.00    +0.000 A 
ATOM     27  C   UNL     1       1.021  -3.261  -3.234  0.00  0.00    +0.000 A 
ATOM     28  C   UNL     1       1.071  -1.884  -3.337  0.00  0.00    +0.005 A 
ATOM     29  C   UNL     1       0.046  -1.114  -2.820  0.00  0.00    -0.026 A 
ATOM     30  C   UNL     1      -1.027  -1.722  -2.194  0.00  0.00    +0.005 A 
ATOM     31  C   UNL     1      -1.079  -3.100  -2.095  0.00  0.00    +0.000 A 
ENDBRANCH  25  29
BRANCH  25  32
ATOM     32  C   UNL     1      -0.690   0.830  -4.136  0.00  0.00    -0.026 A 
ATOM     33  C   UNL     1      -2.059   1.000  -4.041  0.00  0.00    +0.005 A 
ATOM     34  C   UNL     1      -2.783   1.411  -5.144  0.00  0.00    +0.000 A 
ATOM     35  C   UNL     1      -2.140   1.642  -6.346  0.00  0.00    +0.000 A 
ATOM     36  C   UNL     1      -0.772   1.467  -6.443  0.00  0.00    +0.000 A 
ATOM     37  C   UNL     1      -0.047   1.061  -5.338  0.00  0.00    +0.005 A 
ENDBRANCH  25  32
ENDBRANCH   1  25
TORSDOF 7
