REMARK  Name = ZINC37063225
REMARK  7 active torsions:
REMARK  status: ('A' for Active; 'I' for Inactive)
REMARK    1  A    between atoms: C_1  and  C_2
REMARK    2  A    between atoms: C_2  and  N_3
REMARK    3  A    between atoms: C_7  and  C_9
REMARK    4  A    between atoms: C_9  and  N_10
REMARK    5  A    between atoms: N_10  and  S_11
REMARK    6  A    between atoms: S_11  and  C_14
REMARK    7  A    between atoms: C_19  and  N_20
REMARK                            x       y       z     vdW  Elec       q    Type
REMARK                         _______ _______ _______ _____ _____    ______ ____
ROOT
ATOM      1  S   UNL     1       4.513  -2.252   0.453  0.00  0.00    +0.060 S 
ATOM      2  O   UNL     1       4.986  -1.539   1.588  0.00  0.00    -0.153 OA
ATOM      3  O   UNL     1       4.286  -3.655   0.475  0.00  0.00    -0.153 OA
ENDROOT
BRANCH   1   4
ATOM      4  C   UNL     1       5.660  -1.948  -0.848  0.00  0.00    +0.126 A 
ATOM      5  C   UNL     1       6.175  -3.002  -1.577  0.00  0.00    +0.031 A 
ATOM      6  C   UNL     1       7.075  -2.764  -2.599  0.00  0.00    +0.017 A 
ATOM      7  C   UNL     1       7.464  -1.470  -2.895  0.00  0.00    +0.020 A 
ATOM      8  C   UNL     1       6.952  -0.410  -2.170  0.00  0.00    +0.040 A 
ATOM      9  C   UNL     1       6.043  -0.646  -1.147  0.00  0.00    +0.052 A 
ATOM     10 BR   UNL     1       8.696  -1.150  -4.294  0.00  0.00    -0.050 Br
BRANCH   9  11
ATOM     11  N   UNL     1       5.520   0.423  -0.416  0.00  0.00    -0.356 N 
ATOM     12  H   UNL     1       4.821   0.267   0.239  0.00  0.00    +0.142 HD
ATOM     13  H   UNL     1       5.855   1.321  -0.563  0.00  0.00    +0.142 HD
ENDBRANCH   9  11
ENDBRANCH   1   4
BRANCH   1  14
ATOM     14  N   UNL     1       3.079  -1.548   0.017  0.00  0.00    -0.191 NA
ATOM     15  H   UNL     1       2.724  -0.808   0.534  0.00  0.00    +0.148 HD
BRANCH  14  16
ATOM     16  C   UNL     1       2.345  -2.043  -1.151  0.00  0.00    +0.090 C 
BRANCH  16  21
ATOM     17  N   UNL     1       0.939  -0.029  -1.030  0.00  0.00    +0.382 N 
ATOM     18  C   UNL     1       0.242   0.528  -2.209  0.00  0.00    -0.078 C 
ATOM     19  C   UNL     1       0.345  -0.578  -3.288  0.00  0.00    -0.020 C 
ATOM     20  C   UNL     1       0.189  -1.864  -2.435  0.00  0.00    -0.016 C 
ATOM     21  C   UNL     1       0.915  -1.500  -1.123  0.00  0.00    -0.053 C 
ATOM     22  H   UNL     1       1.894   0.295  -1.018  0.00  0.00    -0.081 HD
BRANCH  17  24
ATOM     23  C   UNL     1       0.389   1.916   0.353  0.00  0.00    -0.017 C 
ATOM     24  C   UNL     1       0.254   0.400   0.197  0.00  0.00    -0.082 C 
ENDBRANCH  17  24
ENDBRANCH  16  21
ENDBRANCH  14  16
ENDBRANCH   1  14
TORSDOF 6
