REMARK  Name = ZINC04135173
REMARK  10 active torsions:
REMARK  status: ('A' for Active; 'I' for Inactive)
REMARK    1  A    between atoms: C_1  and  C_2
REMARK    2  A    between atoms: C_5  and  N_9
REMARK    3  A    between atoms: N_9  and  C_10
REMARK    4  A    between atoms: C_11  and  C_12
REMARK    5  A    between atoms: C_11  and  C_14
REMARK    6  A    between atoms: C_16  and  C_19
REMARK    7  A    between atoms: C_22  and  C_25
REMARK    8  A    between atoms: C_25  and  C_26
REMARK    9  A    between atoms: C_26  and  C_27
REMARK   10  A    between atoms: C_26  and  C_28
REMARK                            x       y       z     vdW  Elec       q    Type
REMARK                         _______ _______ _______ _____ _____    ______ ____
ROOT
ATOM      1  C   UNL     1      -0.466   3.719   0.025  0.00  0.00    +0.120 A 
ATOM      2  N   UNL     1       0.777   3.261   0.011  0.00  0.00    -0.238 NA
ATOM      3  C   UNL     1       1.030   1.963   0.003  0.00  0.00    +0.079 A 
ATOM      4  C   UNL     1      -0.013   1.076   0.008  0.00  0.00    +0.075 A 
ATOM      5  S   UNL     1      -1.405   2.198   0.019  0.00  0.00    -0.074 S 
ENDROOT
BRANCH   3   6
ATOM      6  C   UNL     1       2.429   1.473  -0.013  0.00  0.00    +0.001 A 
ATOM      7  C   UNL     1       2.691   0.104  -0.017  0.00  0.00    +0.010 A 
ATOM      8  C   UNL     1       3.996  -0.346  -0.036  0.00  0.00    +0.004 A 
ATOM      9  C   UNL     1       5.042   0.559  -0.042  0.00  0.00    -0.047 A 
ATOM     10  C   UNL     1       4.788   1.918  -0.033  0.00  0.00    +0.004 A 
ATOM     11  C   UNL     1       3.488   2.380  -0.018  0.00  0.00    +0.010 A 
BRANCH   9  12
ATOM     12  C   UNL     1       6.465   0.061  -0.057  0.00  0.00    +0.038 C 
BRANCH  12  13
ATOM     13  C   UNL     1       6.959  -0.115   1.380  0.00  0.00    -0.013 C 
ATOM     14  C   UNL     1       6.152  -1.218   2.066  0.00  0.00    +0.007 C 
ATOM     15  C   UNL     1       8.440  -0.500   1.366  0.00  0.00    +0.007 C 
ENDBRANCH  12  13
ENDBRANCH   9  12
ENDBRANCH   3   6
BRANCH   1  17
ATOM     16  C   UNL     1      -2.285   5.372   0.049  0.00  0.00    +0.093 C 
ATOM     17  C   UNL     1      -0.947   5.114   0.036  0.00  0.00    +0.098 C 
BRANCH  16  18
ATOM     18  N   UNL     1      -2.731   6.664   0.059  0.00  0.00    -0.319 N 
ATOM     19  H   UNL     1      -2.095   7.397   0.057  0.00  0.00    +0.152 HD
BRANCH  18  24
ATOM     20  C   UNL     1      -8.299   7.747   0.116  0.00  0.00    +0.047 C 
ATOM     21  C   UNL     1      -6.820   7.459   0.101  0.00  0.00    -0.015 A 
ATOM     22  C   UNL     1      -5.914   8.503   0.097  0.00  0.00    +0.008 A 
ATOM     23  C   UNL     1      -4.558   8.242   0.084  0.00  0.00    +0.023 A 
ATOM     24  C   UNL     1      -4.103   6.929   0.073  0.00  0.00    +0.034 A 
ATOM     25  C   UNL     1      -5.014   5.882   0.071  0.00  0.00    +0.061 A 
ATOM     26  C   UNL     1      -6.371   6.148   0.091  0.00  0.00    +0.128 A 
ATOM     27  F   UNL     1      -7.260   5.130   0.094  0.00  0.00    -0.205 F 
ENDBRANCH  18  24
ENDBRANCH  16  18
BRANCH  17  28
ATOM     28  C   UNL     1      -0.009   6.195   0.032  0.00  0.00    +0.103 C 
ATOM     29  N   UNL     1       0.736   7.053   0.029  0.00  0.00    -0.191 NA
ENDBRANCH  17  28
ENDBRANCH   1  17
TORSDOF 7
