REMARK  Name = ZINC45427109
REMARK  7 active torsions:
REMARK  status: ('A' for Active; 'I' for Inactive)
REMARK    1  A    between atoms: C_1  and  C_2
REMARK    2  A    between atoms: C_2  and  O_3
REMARK    3  A    between atoms: O_3  and  C_4
REMARK    4  A    between atoms: C_7  and  C_10
REMARK    5  A    between atoms: N_18  and  C_19
REMARK    6  A    between atoms: C_19  and  C_20
REMARK    7  A    between atoms: C_20  and  C_21
REMARK                            x       y       z     vdW  Elec       q    Type
REMARK                         _______ _______ _______ _____ _____    ______ ____
ROOT
ATOM      1  C   UNL     1      -2.001  -6.092  -0.011  0.00  0.00    +0.108 C 
ATOM      2  C   UNL     1      -2.327  -6.576  -1.440  0.00  0.00    +0.029 C 
ATOM      3  C   UNL     1      -3.375  -7.694  -1.197  0.00  0.00    +0.021 C 
ATOM      4  C   UNL     1      -4.156  -7.130   0.016  0.00  0.00    +0.110 C 
ATOM      5  N   UNL     1      -3.133  -6.465   0.849  0.00  0.00    -0.279 N 
ATOM      6  C   UNL     1      -3.221  -6.237   2.175  0.00  0.00    +0.303 C 
ATOM      7  O   UNL     1      -2.312  -5.678   2.757  0.00  0.00    -0.253 OA
ATOM      8  N   UNL     1      -4.317  -6.630   2.854  0.00  0.00    -0.299 N 
ATOM      9  H   UNL     1      -5.042  -7.075   2.390  0.00  0.00    +0.150 HD
ENDROOT
BRANCH   1  13
ATOM     10  C   UNL     1      -1.498  -1.848   0.006  0.00  0.00    +0.121 A 
ATOM     11  C   UNL     1      -0.388  -2.679  -0.003  0.00  0.00    +0.046 A 
ATOM     12  C   UNL     1      -0.553  -4.051  -0.008  0.00  0.00    +0.009 A 
ATOM     13  C   UNL     1      -1.823  -4.596  -0.005  0.00  0.00    -0.027 A 
ATOM     14  C   UNL     1      -2.932  -3.769   0.004  0.00  0.00    +0.009 A 
ATOM     15  C   UNL     1      -2.772  -2.397   0.016  0.00  0.00    +0.046 A 
BRANCH  10  16
ATOM     16  O   UNL     1      -1.339  -0.499   0.012  0.00  0.00    -0.492 OA
BRANCH  16  18
ATOM     17  C   UNL     1      -0.019   1.526   0.010  0.00  0.00    +0.048 C 
ATOM     18  C   UNL     1       0.002  -0.004   0.002  0.00  0.00    +0.225 C 
ENDBRANCH  16  18
ENDBRANCH  10  16
ENDBRANCH   1  13
BRANCH   8  19
ATOM     19  C   UNL     1      -4.412  -6.382   4.295  0.00  0.00    +0.112 C 
BRANCH  19  20
ATOM     20  C   UNL     1      -5.745  -6.921   4.818  0.00  0.00    +0.076 C 
BRANCH  20  21
ATOM     21  C   UNL     1      -5.844  -6.666   6.300  0.00  0.00    +0.062 A 
ATOM     22  C   UNL     1      -6.851  -6.015   6.923  0.00  0.00    +0.116 A 
ATOM     23  N   UNL     1      -6.558  -6.002   8.259  0.00  0.00    -0.306 N 
ATOM     24  C   UNL     1      -7.210  -5.489   9.342  0.00  0.00    +0.092 A 
ATOM     25  C   UNL     1      -6.691  -5.616  10.582  0.00  0.00    +0.018 A 
ATOM     26  C   UNL     1      -5.468  -6.280  10.773  0.00  0.00    +0.005 A 
ATOM     27  C   UNL     1      -4.807  -6.796   9.702  0.00  0.00    +0.047 A 
ATOM     28  C   UNL     1      -5.363  -6.655   8.414  0.00  0.00    +0.138 A 
ATOM     29  N   UNL     1      -4.954  -7.052   7.217  0.00  0.00    -0.233 NA
ENDBRANCH  20  21
ENDBRANCH  19  20
ENDBRANCH   8  19
TORSDOF 6
