REMARK  Name = ZINC39360478
REMARK  5 active torsions:
REMARK  status: ('A' for Active; 'I' for Inactive)
REMARK    1  A    between atoms: C_4  and  C_7
REMARK    2  A    between atoms: C_7  and  S_8
REMARK    3  A    between atoms: S_8  and  C_9
REMARK    4  A    between atoms: C_15  and  C_27
REMARK    5  A    between atoms: C_31  and  O_33
REMARK                            x       y       z     vdW  Elec       q    Type
REMARK                         _______ _______ _______ _____ _____    ______ ____
ROOT
ATOM      1  C   UNL     1       5.786  -1.866   1.477  0.00  0.00    +0.182 C 
ATOM      2  N   UNL     1       6.239  -2.114   0.256  0.00  0.00    -0.154 NA
ATOM      3  C   UNL     1       7.390  -2.732   0.047  0.00  0.00    +0.250 C 
ATOM      4  O   UNL     1       7.750  -2.944  -1.095  0.00  0.00    -0.273 OA
ATOM      5  C   UNL     1       8.262  -3.177   1.185  0.00  0.00    +0.152 C 
ATOM      6  C   UNL     1       8.477  -4.691   1.124  0.00  0.00    +0.073 C 
ATOM      7  C   UNL     1       9.033  -5.195   2.435  0.00  0.00    +0.021 C 
ATOM      8  C   UNL     1       8.892  -4.510   3.586  0.00  0.00    +0.016 C 
ATOM      9  C   UNL     1       9.451  -5.043   4.884  0.00  0.00    +0.051 C 
ATOM     10  C   UNL     1       9.440  -6.573   4.860  0.00  0.00    +0.014 C 
ATOM     11  C   UNL     1      10.275  -7.042   3.663  0.00  0.00    +0.080 C 
ATOM     12  C   UNL     1       9.714  -6.430   2.409  0.00  0.00    +0.161 C 
ATOM     13  O   UNL     1       9.850  -7.012   1.351  0.00  0.00    -0.292 OA
ATOM     14  N   UNL     1       8.246  -3.294   3.629  0.00  0.00    -0.305 N 
ATOM     15  C   UNL     1       7.600  -2.859   2.505  0.00  0.00    +0.115 C 
ATOM     16  N   UNL     1       6.460  -2.243   2.572  0.00  0.00    -0.213 NA
ATOM     17  H   UNL     1       8.253  -2.755   4.435  0.00  0.00    +0.153 HD
ENDROOT
BRANCH   6  18
ATOM     18  C   UNL     1       7.160  -5.371   0.851  0.00  0.00    -0.035 A 
ATOM     19  C   UNL     1       6.104  -5.211   1.730  0.00  0.00    +0.004 A 
ATOM     20  C   UNL     1       4.895  -5.833   1.482  0.00  0.00    +0.004 A 
ATOM     21  C   UNL     1       4.738  -6.617   0.355  0.00  0.00    +0.045 A 
ATOM     22  C   UNL     1       5.795  -6.779  -0.528  0.00  0.00    +0.117 A 
ATOM     23  C   UNL     1       7.006  -6.148  -0.281  0.00  0.00    +0.049 A 
BRANCH  22  24
ATOM     24  O   UNL     1       5.643  -7.549  -1.637  0.00  0.00    -0.507 OA
ATOM     25  H   UNL     1       5.328  -7.064  -2.413  0.00  0.00    +0.292 HD
ENDBRANCH  22  24
ENDBRANCH   6  18
BRANCH   1  26
ATOM     26  S   UNL     1       4.257  -1.011   1.666  0.00  0.00    -0.084 S 
BRANCH  26  27
ATOM     27  C   UNL     1       3.711  -0.707  -0.038  0.00  0.00    +0.112 C 
BRANCH  27  31
ATOM     28  C   UNL     1      -0.017   1.378   0.010  0.00  0.00    +0.000 A 
ATOM     29  C   UNL     1       1.171   2.086   0.002  0.00  0.00    +0.000 A 
ATOM     30  C   UNL     1       2.377   1.411  -0.013  0.00  0.00    +0.004 A 
ATOM     31  C   UNL     1       2.396   0.029  -0.020  0.00  0.00    -0.037 A 
ATOM     32  C   UNL     1       1.208  -0.679  -0.012  0.00  0.00    +0.004 A 
ATOM     33  C   UNL     1       0.002  -0.004   0.002  0.00  0.00    +0.000 A 
ENDBRANCH  27  31
ENDBRANCH  26  27
ENDBRANCH   1  26
TORSDOF 5
