REMARK  Name = ZINC62495922
REMARK  3 active torsions:
REMARK  status: ('A' for Active; 'I' for Inactive)
REMARK    1  A    between atoms: C_9  and  C_12
REMARK    2  A    between atoms: C_12  and  C_13
REMARK    3  A    between atoms: C_16  and  N_19
REMARK                            x       y       z     vdW  Elec       q    Type
REMARK                         _______ _______ _______ _____ _____    ______ ____
ROOT
ATOM      1  C   UNL     1       4.982  -2.600  -0.158  0.00  0.00    +0.081 C 
ENDROOT
BRANCH   1  10
ATOM      2  C   UNL     1      -0.017   1.379   0.010  0.00  0.00    +0.002 A 
ATOM      3  C   UNL     1       1.170   2.087   0.002  0.00  0.00    +0.004 A 
ATOM      4  C   UNL     1       2.381   1.420  -0.012  0.00  0.00    +0.047 A 
ATOM      5  C   UNL     1       2.410   0.034  -0.018  0.00  0.00    +0.142 A 
ATOM      6  C   UNL     1       1.213  -0.678  -0.013  0.00  0.00    +0.070 A 
ATOM      7  C   UNL     1       0.002  -0.004   0.002  0.00  0.00    +0.026 A 
ATOM      8  N   UNL     1       1.237  -2.082  -0.028  0.00  0.00    -0.337 N 
ATOM      9  C   UNL     1       2.518  -2.747   0.265  0.00  0.00    +0.146 C 
ATOM     10  C   UNL     1       3.622  -1.974  -0.470  0.00  0.00    +0.195 C 
ATOM     11  O   UNL     1       3.605  -0.615  -0.027  0.00  0.00    -0.485 OA
ATOM     12  H   UNL     1       0.438  -2.595  -0.224  0.00  0.00    +0.146 HD
ENDBRANCH   1  10
BRANCH   1  13
ATOM     13  C   UNL     1       6.049  -1.918  -0.975  0.00  0.00    -0.044 A 
ATOM     14  C   UNL     1       6.368  -2.399  -2.231  0.00  0.00    +0.005 A 
ATOM     15  C   UNL     1       7.346  -1.776  -2.983  0.00  0.00    +0.023 A 
ATOM     16  C   UNL     1       8.008  -0.665  -2.475  0.00  0.00    +0.030 A 
ATOM     17  C   UNL     1       7.684  -0.185  -1.212  0.00  0.00    +0.023 A 
ATOM     18  C   UNL     1       6.702  -0.810  -0.468  0.00  0.00    +0.005 A 
BRANCH  16  19
ATOM     19  N   UNL     1       8.997  -0.033  -3.232  0.00  0.00    -0.330 N 
ATOM     20  C   UNL     1       9.431  -0.432  -4.579  0.00  0.00    +0.105 C 
ATOM     21  C   UNL     1      10.556   0.535  -5.002  0.00  0.00    +0.020 C 
ATOM     22  C   UNL     1      11.082   1.072  -3.645  0.00  0.00    +0.020 C 
ATOM     23  C   UNL     1       9.774   1.148  -2.815  0.00  0.00    +0.105 C 
ENDBRANCH  16  19
ENDBRANCH   1  13
TORSDOF 3
