REMARK  Name = ZINC08606657
REMARK  11 active torsions:
REMARK  status: ('A' for Active; 'I' for Inactive)
REMARK    1  A    between atoms: C_1  and  O_2
REMARK    2  A    between atoms: O_2  and  C_3
REMARK    3  A    between atoms: C_5  and  C_13
REMARK    4  A    between atoms: C_7  and  O_11
REMARK    5  A    between atoms: C_8  and  O_9
REMARK    6  A    between atoms: O_9  and  C_10
REMARK    7  A    between atoms: O_11  and  C_12
REMARK    8  A    between atoms: C_16  and  C_31
REMARK    9  A    between atoms: N_23  and  C_24
REMARK   10  A    between atoms: C_24  and  C_25
REMARK   11  A    between atoms: C_36  and  O_37
REMARK                            x       y       z     vdW  Elec       q    Type
REMARK                         _______ _______ _______ _____ _____    ______ ____
ROOT
ATOM      1  C   UNL     1       2.392   0.357  -4.222  0.00  0.00    +0.142 C 
ATOM      2  C   UNL     1       1.535   0.332  -5.459  0.00  0.00    +0.035 A 
ATOM      3  C   UNL     1       0.295   0.615  -6.040  0.00  0.00    +0.102 A 
ATOM      4  N   UNL     1       0.362   0.257  -7.307  0.00  0.00    -0.173 NA
ATOM      5  N   UNL     1       1.521  -0.224  -7.583  0.00  0.00    -0.272 N 
ATOM      6  H   UNL     1       1.796  -0.550  -8.455  0.00  0.00    +0.189 HD
ATOM      7  C   UNL     1       2.310  -0.207  -6.468  0.00  0.00    +0.126 A 
ATOM      8  C   UNL     1       3.632  -0.528  -5.920  0.00  0.00    +0.266 C 
ATOM      9  O   UNL     1       4.547  -1.018  -6.556  0.00  0.00    -0.268 OA
ATOM     10  N   UNL     1       3.691  -0.203  -4.615  0.00  0.00    -0.281 N 
ENDROOT
BRANCH   1  13
ATOM     11  C   UNL     1       0.794  -0.678  -0.958  0.00  0.00    +0.165 A 
ATOM     12  C   UNL     1       1.369   0.096  -1.954  0.00  0.00    +0.055 A 
ATOM     13  C   UNL     1       1.767  -0.488  -3.142  0.00  0.00    -0.015 A 
ATOM     14  C   UNL     1       1.595  -1.845  -3.342  0.00  0.00    +0.055 A 
ATOM     15  C   UNL     1       1.020  -2.626  -2.350  0.00  0.00    +0.165 A 
ATOM     16  C   UNL     1       0.623  -2.044  -1.152  0.00  0.00    +0.204 A 
BRANCH  11  18
ATOM     17  C   UNL     1       0.607   1.305   0.341  0.00  0.00    +0.277 C 
ATOM     18  O   UNL     1       0.402  -0.103   0.211  0.00  0.00    -0.491 OA
ENDBRANCH  11  18
BRANCH  16  19
ATOM     19  O   UNL     1       0.064  -2.808  -0.175  0.00  0.00    -0.488 OA
ATOM     20  C   UNL     1      -1.357  -2.958  -0.201  0.00  0.00    +0.277 C 
ENDBRANCH  16  19
BRANCH  15  21
ATOM     21  O   UNL     1       0.850  -3.961  -2.548  0.00  0.00    -0.491 OA
ATOM     22  C   UNL     1       1.286  -4.492  -3.801  0.00  0.00    +0.277 C 
ENDBRANCH  15  21
ENDBRANCH   1  13
BRANCH   3  23
ATOM     23  C   UNL     1      -0.881   1.209  -5.356  0.00  0.00    +0.044 A 
ATOM     24  C   UNL     1      -0.773   1.655  -4.041  0.00  0.00    +0.014 A 
ATOM     25  C   UNL     1      -1.870   2.207  -3.409  0.00  0.00    +0.001 A 
ATOM     26  C   UNL     1      -3.076   2.319  -4.078  0.00  0.00    +0.004 A 
ATOM     27  C   UNL     1      -3.193   1.879  -5.383  0.00  0.00    +0.046 A 
ATOM     28  C   UNL     1      -2.099   1.329  -6.031  0.00  0.00    +0.126 A 
BRANCH  28  29
ATOM     29  O   UNL     1      -2.211   0.903  -7.316  0.00  0.00    -0.506 OA
ATOM     30  H   UNL     1      -2.481  -0.022  -7.401  0.00  0.00    +0.292 HD
ENDBRANCH  28  29
ENDBRANCH   3  23
BRANCH  10  31
ATOM     31  C   UNL     1       4.851  -0.379  -3.737  0.00  0.00    +0.144 C 
BRANCH  31  32
ATOM     32  C   UNL     1       4.791  -1.740  -3.092  0.00  0.00    -0.027 A 
ATOM     33  C   UNL     1       4.139  -1.924  -1.882  0.00  0.00    +0.025 A 
ATOM     34  C   UNL     1       4.105  -3.187  -1.321  0.00  0.00    +0.111 A 
ATOM     35  N   UNL     1       4.684  -4.208  -1.922  0.00  0.00    -0.263 NA
ATOM     36  C   UNL     1       5.313  -4.069  -3.073  0.00  0.00    +0.111 A 
ATOM     37  C   UNL     1       5.382  -2.838  -3.697  0.00  0.00    +0.025 A 
ENDBRANCH  31  32
ENDBRANCH  10  31
TORSDOF 8
