REMARK  Name = ZINC15320688
REMARK  5 active torsions:
REMARK  status: ('A' for Active; 'I' for Inactive)
REMARK    1  A    between atoms: C_1  and  C_2
REMARK    2  A    between atoms: N_10  and  C_13
REMARK    3  A    between atoms: C_13  and  C_14
REMARK    4  A    between atoms: N_28  and  C_31
REMARK    5  A    between atoms: C_31  and  C_32
REMARK                            x       y       z     vdW  Elec       q    Type
REMARK                         _______ _______ _______ _____ _____    ______ ____
ROOT
ATOM      1  C   UNL     1      -0.019   1.526   0.010  0.00  0.00    +0.025 C 
ATOM      2  C   UNL     1       0.002  -0.004   0.002  0.00  0.00    +0.064 C 
ATOM      3  C   UNL     1      -1.437  -0.561   0.051  0.00  0.00    +0.107 C 
ATOM      4  C   UNL     1      -1.343  -1.826   0.950  0.00  0.00    +0.122 C 
ATOM      5  C   UNL     1      -1.650  -2.956  -0.006  0.00  0.00    +0.229 C 
ATOM      6  O   UNL     1      -1.678  -4.132   0.286  0.00  0.00    -0.275 OA
ATOM      7  N   UNL     1      -1.888  -2.456  -1.224  0.00  0.00    -0.237 N 
ATOM      8  C   UNL     1      -1.803  -1.108  -1.310  0.00  0.00    +0.227 C 
ATOM      9  O   UNL     1      -1.986  -0.442  -2.306  0.00  0.00    -0.275 OA
ATOM     10  C   UNL     1       0.125  -1.882   1.388  0.00  0.00    +0.136 C 
ATOM     11  N   UNL     1       0.655  -0.519   1.234  0.00  0.00    -0.296 NA
ATOM     12  C   UNL     1       0.261  -2.386   2.797  0.00  0.00    +0.004 A 
ATOM     13  C   UNL     1      -0.221  -1.948   4.010  0.00  0.00    +0.008 A 
ATOM     14  C   UNL     1       0.084  -2.643   5.167  0.00  0.00    +0.000 A 
ATOM     15  C   UNL     1       0.873  -3.777   5.102  0.00  0.00    +0.002 A 
ATOM     16  C   UNL     1       1.357  -4.219   3.888  0.00  0.00    +0.024 A 
ATOM     17  C   UNL     1       1.055  -3.526   2.718  0.00  0.00    +0.042 A 
ATOM     18  N   UNL     1       1.420  -3.770   1.393  0.00  0.00    -0.260 N 
ATOM     19  C   UNL     1       0.914  -2.850   0.549  0.00  0.00    +0.246 C 
ATOM     20  O   UNL     1       1.065  -2.811  -0.654  0.00  0.00    -0.273 OA
ATOM     21  H   UNL     1       1.659  -0.524   1.137  0.00  0.00    +0.123 HD
ENDROOT
BRANCH   7  22
ATOM     22  C   UNL     1      -2.222  -3.299  -2.375  0.00  0.00    +0.151 C 
BRANCH  22  23
ATOM     23  C   UNL     1      -3.716  -3.474  -2.453  0.00  0.00    -0.030 A 
ATOM     24  C   UNL     1      -4.324  -4.526  -1.794  0.00  0.00    +0.005 A 
ATOM     25  C   UNL     1      -5.696  -4.686  -1.865  0.00  0.00    +0.000 A 
ATOM     26  C   UNL     1      -6.459  -3.795  -2.596  0.00  0.00    +0.000 A 
ATOM     27  C   UNL     1      -5.851  -2.743  -3.255  0.00  0.00    +0.000 A 
ATOM     28  C   UNL     1      -4.480  -2.580  -3.180  0.00  0.00    +0.005 A 
ENDBRANCH  22  23
ENDBRANCH   7  22
BRANCH  18  29
ATOM     29  C   UNL     1       2.256  -4.896   0.969  0.00  0.00    +0.210 C 
BRANCH  29  30
ATOM     30  C   UNL     1       1.381  -6.080   0.650  0.00  0.00    +0.238 C 
ATOM     31  O   UNL     1       0.176  -5.993   0.766  0.00  0.00    -0.274 OA
ATOM     32  N   UNL     1       1.936  -7.237   0.237  0.00  0.00    -0.270 N 
ATOM     33  C   UNL     1       1.190  -8.451  -0.107  0.00  0.00    +0.118 C 
ATOM     34  C   UNL     1       2.259  -9.479  -0.513  0.00  0.00    +0.056 C 
ATOM     35  C   UNL     1       3.571  -8.743  -0.364  0.00  0.00    -0.024 A 
ATOM     36  C   UNL     1       3.307  -7.452   0.067  0.00  0.00    +0.040 A 
ATOM     37  C   UNL     1       4.373  -6.575   0.273  0.00  0.00    +0.024 A 
ATOM     38  C   UNL     1       5.668  -6.989   0.045  0.00  0.00    +0.002 A 
ATOM     39  C   UNL     1       5.921  -8.277  -0.389  0.00  0.00    +0.000 A 
ATOM     40  C   UNL     1       4.871  -9.155  -0.586  0.00  0.00    +0.005 A 
ENDBRANCH  29  30
ENDBRANCH  18  29
TORSDOF 4
