REMARK  Name = ZINC12757168
REMARK  9 active torsions:
REMARK  status: ('A' for Active; 'I' for Inactive)
REMARK    1  A    between atoms: C_1  and  C_2
REMARK    2  A    between atoms: C_3  and  C_34
REMARK    3  A    between atoms: C_7  and  N_11
REMARK    4  A    between atoms: C_14  and  C_17
REMARK    5  A    between atoms: C_17  and  O_19
REMARK    6  A    between atoms: O_19  and  C_20
REMARK    7  A    between atoms: C_20  and  C_22
REMARK    8  A    between atoms: C_20  and  C_23
REMARK    9  A    between atoms: N_25  and  C_26
REMARK                            x       y       z     vdW  Elec       q    Type
REMARK                         _______ _______ _______ _____ _____    ______ ____
ROOT
ATOM      1  N   UNL     1       3.490   2.145  -0.230  0.00  0.00    -0.315 N 
ATOM      2  C   UNL     1       4.328   1.798  -1.384  0.00  0.00    +0.107 C 
ATOM      3  C   UNL     1       5.654   2.558  -1.300  0.00  0.00    +0.033 C 
ATOM      4  C   UNL     1       5.373   4.064  -1.284  0.00  0.00    +0.101 C 
ATOM      5  C   UNL     1       4.459   4.391  -0.100  0.00  0.00    +0.033 C 
ATOM      6  C   UNL     1       3.168   3.578  -0.218  0.00  0.00    +0.107 C 
ENDROOT
BRANCH   1  13
ATOM      7  C   UNL     1       4.157   0.994   2.315  0.00  0.00    +0.045 C 
ATOM      8  C   UNL     1       2.849   0.277   2.097  0.00  0.00    -0.028 A 
ATOM      9  C   UNL     1       2.391  -0.592   3.011  0.00  0.00    -0.008 A 
ATOM     10  S   UNL     1       0.852  -1.159   2.312  0.00  0.00    -0.074 S 
ATOM     11  C   UNL     1       0.866  -0.215   0.811  0.00  0.00    +0.114 A 
ATOM     12  C   UNL     1       2.071   0.518   0.895  0.00  0.00    +0.051 A 
ATOM     13  C   UNL     1       2.338   1.379  -0.204  0.00  0.00    +0.133 A 
ATOM     14  N   UNL     1       1.472   1.437  -1.203  0.00  0.00    -0.220 NA
ATOM     15  C   UNL     1       0.363   0.721  -1.215  0.00  0.00    +0.224 A 
ATOM     16  N   UNL     1       0.059  -0.094  -0.224  0.00  0.00    -0.228 NA
ATOM     17  C   UNL     1       3.026  -0.992   4.318  0.00  0.00    +0.052 C 
ENDBRANCH   1  13
BRANCH   4  18
ATOM     18  C   UNL     1       6.671   4.816  -1.141  0.00  0.00    +0.311 C 
ATOM     19  O   UNL     1       6.848   5.540  -0.190  0.00  0.00    -0.251 OA
BRANCH  18  20
ATOM     20  O   UNL     1       7.630   4.681  -2.070  0.00  0.00    -0.452 OA
BRANCH  20  21
ATOM     21  C   UNL     1       8.854   5.436  -1.868  0.00  0.00    +0.258 C 
ATOM     22  C   UNL     1       9.844   4.596  -1.058  0.00  0.00    +0.062 C 
BRANCH  21  23
ATOM     23  C   UNL     1       9.461   5.777  -3.204  0.00  0.00    +0.254 C 
ATOM     24  O   UNL     1       8.915   5.420  -4.227  0.00  0.00    -0.272 OA
ATOM     25  N   UNL     1      10.609   6.480  -3.264  0.00  0.00    -0.308 N 
ATOM     26  H   UNL     1      11.046   6.766  -2.446  0.00  0.00    +0.149 HD
BRANCH  25  27
ATOM     27  C   UNL     1      11.199   6.812  -4.563  0.00  0.00    +0.095 C 
ATOM     28  C   UNL     1      10.546   8.093  -5.108  0.00  0.00    +0.046 C 
ATOM     29  C   UNL     1      11.392   8.593  -6.313  0.00  0.00    +0.168 C 
ATOM     30  S   UNL     1      13.095   8.292  -5.678  0.00  0.00    -0.029 S 
ATOM     31  O   UNL     1      13.566   9.471  -5.040  0.00  0.00    -0.174 OA
ATOM     32  O   UNL     1      13.874   7.694  -6.705  0.00  0.00    -0.174 OA
ATOM     33  C   UNL     1      12.723   7.026  -4.397  0.00  0.00    +0.188 C 
ENDBRANCH  25  27
ENDBRANCH  21  23
ENDBRANCH  20  21
ENDBRANCH  18  20
ENDBRANCH   4  18
TORSDOF 6
