REMARK  Name = ZINC04668255
REMARK  9 active torsions:
REMARK  status: ('A' for Active; 'I' for Inactive)
REMARK    1  A    between atoms: C_1  and  C_2
REMARK    2  A    between atoms: C_8  and  N_10
REMARK    3  A    between atoms: N_10  and  C_11
REMARK    4  A    between atoms: N_10  and  C_12
REMARK    5  A    between atoms: N_15  and  C_18
REMARK    6  A    between atoms: C_18  and  N_20
REMARK    7  A    between atoms: N_20  and  C_21
REMARK    8  A    between atoms: C_25  and  S_27
REMARK    9  A    between atoms: S_27  and  C_28
REMARK                            x       y       z     vdW  Elec       q    Type
REMARK                         _______ _______ _______ _____ _____    ______ ____
ROOT
ATOM      1  C   UNL     1      -1.383  -0.434   2.736  0.00  0.00    -0.066 C 
ATOM      2  C   UNL     1      -1.646   0.383   4.004  0.00  0.00    +0.004 C 
ATOM      3  C   UNL     1      -3.103   0.190   4.437  0.00  0.00    +0.105 C 
ATOM      4  N   UNL     1      -3.981   0.529   3.309  0.00  0.00    -0.313 N 
ATOM      5  C   UNL     1      -3.756  -0.132   2.016  0.00  0.00    +0.105 C 
ATOM      6  C   UNL     1      -2.292   0.064   1.610  0.00  0.00    +0.004 C 
ENDROOT
BRANCH   1   7
ATOM      7  N   UNL     1       0.021  -0.278   2.336  0.00  0.00    +0.382 N 
ATOM      8  C   UNL     1       0.891  -0.874   3.359  0.00  0.00    -0.095 C 
ATOM      9  H   UNL     1       0.237   0.703   2.241  0.00  0.00    -0.081 HD
BRANCH   7  16
ATOM     10  C   UNL     1       2.682  -1.126   1.561  0.00  0.00    +0.006 C 
ATOM     11  C   UNL     1       1.650  -0.637   0.543  0.00  0.00    -0.028 C 
ATOM     12  C   UNL     1       1.880  -1.342  -0.796  0.00  0.00    +0.002 C 
ATOM     13  C   UNL     1       1.735  -2.853  -0.608  0.00  0.00    +0.000 C 
ATOM     14  C   UNL     1       0.327  -3.171  -0.100  0.00  0.00    -0.002 C 
ATOM     15  C   UNL     1       0.097  -2.466   1.239  0.00  0.00    -0.015 C 
ATOM     16  C   UNL     1       0.242  -0.955   1.051  0.00  0.00    -0.066 C 
ENDBRANCH   7  16
ENDBRANCH   1   7
BRANCH   4  17
ATOM     17  C   UNL     1      -4.973   1.429   3.457  0.00  0.00    +0.137 C 
ATOM     18  S   UNL     1      -5.139   2.285   4.930  0.00  0.00    -0.018 S 
BRANCH  17  19
ATOM     19  N   UNL     1      -5.835   1.654   2.446  0.00  0.00    -0.297 N 
ATOM     20  H   UNL     1      -5.726   2.436   1.881  0.00  0.00    +0.154 HD
BRANCH  19  21
ATOM     21  C   UNL     1      -6.885   0.761   2.209  0.00  0.00    +0.034 A 
ATOM     22  C   UNL     1      -7.114  -0.291   3.087  0.00  0.00    +0.023 A 
ATOM     23  C   UNL     1      -8.151  -1.174   2.855  0.00  0.00    +0.003 A 
ATOM     24  C   UNL     1      -8.965  -1.013   1.750  0.00  0.00    +0.015 A 
ATOM     25  C   UNL     1      -8.741   0.037   0.868  0.00  0.00    +0.009 A 
ATOM     26  C   UNL     1      -7.703   0.929   1.101  0.00  0.00    +0.038 A 
BRANCH  25  27
ATOM     27  S   UNL     1      -9.778   0.241  -0.542  0.00  0.00    -0.129 S 
ATOM     28  C   UNL     1     -10.962  -1.128  -0.418  0.00  0.00    +0.090 C 
ENDBRANCH  25  27
ENDBRANCH  19  21
ENDBRANCH  17  19
ENDBRANCH   4  17
TORSDOF 6
