REMARK  Name = ZINC46254415
REMARK  11 active torsions:
REMARK  status: ('A' for Active; 'I' for Inactive)
REMARK    1  A    between atoms: C_1  and  C_2
REMARK    2  A    between atoms: C_2  and  N_3
REMARK    3  A    between atoms: C_4  and  C_6
REMARK    4  A    between atoms: C_6  and  N_7
REMARK    5  A    between atoms: N_15  and  C_16
REMARK    6  A    between atoms: C_16  and  C_17
REMARK    7  A    between atoms: C_17  and  C_19
REMARK    8  A    between atoms: C_17  and  N_22
REMARK    9  A    between atoms: C_19  and  C_20
REMARK   10  A    between atoms: C_19  and  C_21
REMARK   11  A    between atoms: C_25  and  C_28
REMARK                            x       y       z     vdW  Elec       q    Type
REMARK                         _______ _______ _______ _____ _____    ______ ____
ROOT
ATOM      1  N   UNL     1       2.707  -5.647  -0.861  0.00  0.00    -0.291 NA
ATOM      2  C   UNL     1       3.502  -6.591  -1.659  0.00  0.00    +0.104 C 
ATOM      3  C   UNL     1       3.193  -6.385  -3.145  0.00  0.00    +0.124 C 
ATOM      4  N   UNL     1       1.738  -6.480  -3.338  0.00  0.00    -0.283 N 
ATOM      5  C   UNL     1       0.868  -5.664  -2.478  0.00  0.00    +0.124 C 
ATOM      6  C   UNL     1       1.268  -5.898  -1.018  0.00  0.00    +0.104 C 
ATOM      7  C   UNL     1       1.216  -7.293  -4.277  0.00  0.00    +0.302 C 
ATOM      8  O   UNL     1       0.010  -7.424  -4.366  0.00  0.00    -0.253 OA
ATOM      9  N   UNL     1       2.030  -7.961  -5.118  0.00  0.00    -0.301 N 
ATOM     10  H   UNL     1       2.992  -7.914  -5.002  0.00  0.00    +0.150 HD
ENDROOT
BRANCH   1  11
ATOM     11  C   UNL     1       3.099  -5.693   0.554  0.00  0.00    +0.180 C 
BRANCH  11  13
ATOM     12  N   UNL     1       5.089  -5.147   1.917  0.00  0.00    -0.315 N 
ATOM     13  C   UNL     1       4.513  -5.195   0.700  0.00  0.00    +0.227 C 
ATOM     14  O   UNL     1       5.134  -4.836  -0.279  0.00  0.00    -0.274 OA
ATOM     15  H   UNL     1       4.593  -5.434   2.700  0.00  0.00    +0.149 HD
BRANCH  12  17
ATOM     16  C   UNL     1       6.872  -4.710   3.533  0.00  0.00    +0.024 C 
ATOM     17  C   UNL     1       6.464  -4.662   2.059  0.00  0.00    +0.101 C 
ENDBRANCH  12  17
ENDBRANCH  11  13
ENDBRANCH   1  11
BRANCH   9  18
ATOM     18  C   UNL     1       1.463  -8.759  -6.208  0.00  0.00    +0.091 C 
BRANCH  18  19
ATOM     19  C   UNL     1       2.589  -9.252  -7.119  0.00  0.00    -0.048 C 
BRANCH  19  20
ATOM     20  N   UNL     1       3.172  -8.112  -7.838  0.00  0.00    +0.383 N 
ATOM     21  C   UNL     1       3.797  -7.197  -6.876  0.00  0.00    -0.078 C 
ATOM     22  C   UNL     1       4.477  -6.049  -7.625  0.00  0.00    -0.016 C 
ATOM     23  C   UNL     1       3.429  -5.291  -8.446  0.00  0.00    -0.018 C 
ATOM     24  C   UNL     1       2.732  -6.271  -9.394  0.00  0.00    -0.016 C 
ATOM     25  C   UNL     1       2.117  -7.411  -8.579  0.00  0.00    -0.078 C 
ATOM     26  C   UNL     1       4.114  -4.191  -9.260  0.00  0.00    +0.007 C 
ATOM     27  H   UNL     1       3.871  -8.445  -8.485  0.00  0.00    -0.081 HD
ENDBRANCH  19  20
BRANCH  19  28
ATOM     28  C   UNL     1       2.026 -10.257  -8.127  0.00  0.00    -0.029 C 
ATOM     29  C   UNL     1       3.158 -10.772  -9.019  0.00  0.00    +0.005 C 
ATOM     30  C   UNL     1       1.393 -11.431  -7.377  0.00  0.00    +0.005 C 
ENDBRANCH  19  28
ENDBRANCH  18  19
ENDBRANCH   9  18
TORSDOF 7
