REMARK  Name = ZINC06232740
REMARK  6 active torsions:
REMARK  status: ('A' for Active; 'I' for Inactive)
REMARK    1  A    between atoms: C_1  and  C_2
REMARK    2  A    between atoms: C_2  and  C_31
REMARK    3  A    between atoms: C_3  and  N_28
REMARK    4  A    between atoms: C_5  and  C_21
REMARK    5  A    between atoms: C_7  and  C_14
REMARK    6  A    between atoms: C_9  and  N_11
REMARK                            x       y       z     vdW  Elec       q    Type
REMARK                         _______ _______ _______ _____ _____    ______ ____
ROOT
ATOM      1  C   UNL     1       5.715  -0.966   0.726  0.00  0.00    +0.015 C 
ATOM      2  C   UNL     1       4.804  -0.028  -0.068  0.00  0.00    +0.017 C 
ATOM      3  C   UNL     1       5.271   1.418   0.120  0.00  0.00    +0.168 C 
ATOM      4  C   UNL     1       4.321   2.357  -0.626  0.00  0.00    -0.010 C 
ATOM      5  C   UNL     1       2.470   0.823  -0.317  0.00  0.00    -0.010 C 
ATOM      6  C   UNL     1       3.366  -0.162   0.439  0.00  0.00    +0.168 C 
ATOM      7  C   UNL     1       4.860  -0.394  -1.552  0.00  0.00    +0.015 C 
ATOM      8  N   UNL     1       2.951   2.201  -0.099  0.00  0.00    +0.391 N 
ATOM      9  H   UNL     1       2.326   2.857  -0.582  0.00  0.00    -0.084 HD
ATOM     10  H   UNL     1       2.951   2.404   0.907  0.00  0.00    -0.084 HD
ENDROOT
BRANCH   5  11
ATOM     11  C   UNL     1       1.056   0.709   0.192  0.00  0.00    -0.059 A 
ATOM     12  C   UNL     1       0.123  -0.023  -0.518  0.00  0.00    +0.003 A 
ATOM     13  C   UNL     1      -1.175  -0.123  -0.055  0.00  0.00    +0.015 A 
ATOM     14  C   UNL     1      -1.538   0.499   1.126  0.00  0.00    +0.018 A 
ATOM     15  C   UNL     1      -0.603   1.231   1.837  0.00  0.00    +0.015 A 
ATOM     16  C   UNL     1       0.694   1.335   1.370  0.00  0.00    +0.003 A 
ATOM     17 BR   UNL     1      -3.312   0.357   1.765  0.00  0.00    -0.050 Br
ENDBRANCH   5  11
BRANCH   4  18
ATOM     18  C   UNL     1       4.339   2.026  -2.096  0.00  0.00    -0.059 A 
ATOM     19  C   UNL     1       5.518   1.631  -2.700  0.00  0.00    +0.003 A 
ATOM     20  C   UNL     1       5.535   1.322  -4.048  0.00  0.00    +0.015 A 
ATOM     21  C   UNL     1       4.374   1.418  -4.793  0.00  0.00    +0.018 A 
ATOM     22  C   UNL     1       3.195   1.818  -4.189  0.00  0.00    +0.015 A 
ATOM     23  C   UNL     1       3.179   2.122  -2.841  0.00  0.00    +0.003 A 
ATOM     24 BR   UNL     1       4.397   1.004  -6.638  0.00  0.00    -0.050 Br
ENDBRANCH   4  18
BRANCH   6  25
ATOM     25  N   UNL     1       3.322   0.139   1.872  0.00  0.00    +0.025 N 
ATOM     26  O   UNL     1       2.928  -0.704   2.659  0.00  0.00    -0.131 OA
ATOM     27  O   UNL     1       3.679   1.230   2.277  0.00  0.00    -0.131 OA
ENDBRANCH   6  25
BRANCH   3  28
ATOM     28  N   UNL     1       6.627   1.568  -0.414  0.00  0.00    +0.025 N 
ATOM     29  O   UNL     1       7.192   0.614  -0.916  0.00  0.00    -0.131 OA
ATOM     30  O   UNL     1       7.188   2.648  -0.357  0.00  0.00    -0.131 OA
ENDBRANCH   3  28
TORSDOF 4
