REMARK  Name = ZINC00471442
REMARK  4 active torsions:
REMARK  status: ('A' for Active; 'I' for Inactive)
REMARK    1  A    between atoms: C_8  and  C_12
REMARK    2  A    between atoms: C_12  and  O_14
REMARK    3  A    between atoms: O_14  and  C_15
REMARK    4  A    between atoms: C_15  and  C_16
REMARK                            x       y       z     vdW  Elec       q    Type
REMARK                         _______ _______ _______ _____ _____    ______ ____
ROOT
ATOM      1  C   UNL     1       4.802   0.252  -0.041  0.00  0.00    +0.001 A 
ATOM      2  C   UNL     1       4.726   1.638  -0.033  0.00  0.00    +0.004 A 
ATOM      3  C   UNL     1       3.504   2.275  -0.019  0.00  0.00    +0.047 A 
ATOM      4  C   UNL     1       2.331   1.528  -0.012  0.00  0.00    +0.139 A 
ATOM      5  C   UNL     1       2.410   0.123  -0.020  0.00  0.00    +0.018 A 
ATOM      6  C   UNL     1       3.665  -0.503  -0.035  0.00  0.00    +0.011 A 
ATOM      7  C   UNL     1       1.225  -0.655  -0.013  0.00  0.00    +0.033 A 
ATOM      8  C   UNL     1       0.002  -0.004   0.002  0.00  0.00    +0.144 A 
ATOM      9  C   UNL     1      -0.018   1.463   0.010  0.00  0.00    +0.351 A 
ATOM     10  O   UNL     1      -1.080   2.056   0.018  0.00  0.00    -0.244 OA
ATOM     11  O   UNL     1       1.135   2.154   0.003  0.00  0.00    -0.422 OA
ENDROOT
BRANCH   8  12
ATOM     12  C   UNL     1      -1.254  -0.770   0.010  0.00  0.00    +0.346 C 
ATOM     13  O   UNL     1      -2.321  -0.188   0.024  0.00  0.00    -0.245 OA
BRANCH  12  14
ATOM     14  O   UNL     1      -1.221  -2.118   0.003  0.00  0.00    -0.456 OA
BRANCH  14  15
ATOM     15  C   UNL     1      -2.499  -2.808   0.012  0.00  0.00    +0.269 C 
BRANCH  15  16
ATOM     16  C   UNL     1      -2.265  -4.297   0.002  0.00  0.00    +0.008 A 
ATOM     17  C   UNL     1      -0.976  -4.794  -0.020  0.00  0.00    +0.008 A 
ATOM     18  C   UNL     1      -0.762  -6.160  -0.025  0.00  0.00    +0.000 A 
ATOM     19  C   UNL     1      -1.837  -7.029  -0.018  0.00  0.00    +0.001 A 
ATOM     20  C   UNL     1      -3.127  -6.533  -0.002  0.00  0.00    +0.020 A 
ATOM     21  C   UNL     1      -3.342  -5.166   0.008  0.00  0.00    +0.047 A 
ATOM     22 CL   UNL     1      -4.962  -4.542   0.027  0.00  0.00    -0.083 Cl
ENDBRANCH  15  16
ENDBRANCH  14  15
ENDBRANCH  12  14
ENDBRANCH   8  12
TORSDOF 4
