REMARK  Name = ZINC20862251
REMARK  5 active torsions:
REMARK  status: ('A' for Active; 'I' for Inactive)
REMARK    1  A    between atoms: C_1  and  C_2
REMARK    2  A    between atoms: C_4  and  C_29
REMARK    3  A    between atoms: N_6  and  C_8
REMARK    4  A    between atoms: N_10  and  C_12
REMARK    5  A    between atoms: C_21  and  O_23
REMARK                            x       y       z     vdW  Elec       q    Type
REMARK                         _______ _______ _______ _____ _____    ______ ____
ROOT
ATOM      1  C   UNL     1      -2.757  -2.547   0.100  0.00  0.00    -0.007 C 
ATOM      2  C   UNL     1      -3.386  -2.196   1.432  0.00  0.00    -0.055 A 
ATOM      3  C   UNL     1      -3.935  -1.005   1.877  0.00  0.00    +0.002 A 
ATOM      4  C   UNL     1      -4.458  -0.914   3.152  0.00  0.00    +0.000 A 
ATOM      5  C   UNL     1      -4.435  -2.016   3.987  0.00  0.00    +0.000 A 
ATOM      6  C   UNL     1      -3.890  -3.205   3.544  0.00  0.00    +0.004 A 
ATOM      7  C   UNL     1      -3.365  -3.299   2.265  0.00  0.00    -0.037 A 
ATOM      8  C   UNL     1      -2.726  -4.463   1.548  0.00  0.00    +0.017 C 
ATOM      9  C   UNL     1      -2.744  -4.091   0.052  0.00  0.00    +0.116 C 
ATOM     10  C   UNL     1      -1.288  -4.658   2.021  0.00  0.00    -0.005 C 
ATOM     11  C   UNL     1      -0.683  -5.874   1.315  0.00  0.00    -0.082 C 
ATOM     12  N   UNL     1      -1.482  -7.067   1.618  0.00  0.00    +0.379 N 
ATOM     13  C   UNL     1      -2.839  -6.910   1.080  0.00  0.00    -0.082 C 
ATOM     14  C   UNL     1      -3.534  -5.738   1.777  0.00  0.00    -0.005 C 
ATOM     15  H   UNL     1      -1.047  -7.876   1.201  0.00  0.00    -0.086 HD
ATOM     16  H   UNL     1      -1.530  -7.192   2.618  0.00  0.00    -0.086 HD
ENDROOT
BRANCH   1  26
ATOM     17  C   UNL     1       0.009   1.500   0.356  0.00  0.00    +0.010 C 
ATOM     18  C   UNL     1       0.016  -0.019   0.172  0.00  0.00    -0.034 C 
ATOM     19  C   UNL     1       0.680  -0.380  -1.163  0.00  0.00    +0.012 C 
ATOM     20  C   UNL     1       0.663  -1.907  -1.308  0.00  0.00    -0.034 C 
ATOM     21  C   UNL     1       1.435  -2.522  -0.137  0.00  0.00    +0.089 C 
ATOM     22  N   UNL     1       0.795  -2.136   1.127  0.00  0.00    -0.304 NA
ATOM     23  C   UNL     1       0.804  -0.678   1.308  0.00  0.00    +0.089 C 
ATOM     24  C   UNL     1       1.431  -2.812   2.267  0.00  0.00    +0.104 C 
ATOM     25  C   UNL     1      -0.790  -2.390  -1.260  0.00  0.00    -0.070 C 
ATOM     26  N   UNL     1      -1.386  -2.023   0.030  0.00  0.00    +0.387 N 
ATOM     27  C   UNL     1      -1.419  -0.553   0.182  0.00  0.00    -0.070 C 
ATOM     28  C   UNL     1       1.314  -2.312  -2.632  0.00  0.00    +0.010 C 
ATOM     29  H   UNL     1      -0.839  -2.422   0.778  0.00  0.00    -0.081 HD
ENDBRANCH   1  26
BRANCH   9  30
ATOM     30  O   UNL     1      -3.922  -4.590  -0.583  0.00  0.00    -0.392 OA
ATOM     31  H   UNL     1      -4.024  -4.307  -1.503  0.00  0.00    +0.210 HD
ENDBRANCH   9  30
TORSDOF 2
