REMARK  Name = ZINC05064298
REMARK  5 active torsions:
REMARK  status: ('A' for Active; 'I' for Inactive)
REMARK    1  A    between atoms: C_1  and  C_2
REMARK    2  A    between atoms: C_2  and  C_3
REMARK    3  A    between atoms: C_6  and  C_18
REMARK    4  A    between atoms: C_9  and  C_11
REMARK    5  A    between atoms: C_22  and  N_24
REMARK                            x       y       z     vdW  Elec       q    Type
REMARK                         _______ _______ _______ _____ _____    ______ ____
ROOT
ATOM      1  C   UNL     1       3.302   3.421   2.126  0.00  0.00    +0.235 C 
ATOM      2  O   UNL     1       3.144   2.383   2.735  0.00  0.00    -0.274 OA
ATOM      3  N   UNL     1       3.558   3.395   0.803  0.00  0.00    -0.185 N 
ATOM      4  C   UNL     1       3.672   2.182  -0.022  0.00  0.00    +0.137 C 
ATOM      5  C   UNL     1       3.970   2.727  -1.433  0.00  0.00    +0.087 C 
ATOM      6  C   UNL     1       3.988   4.231  -1.242  0.00  0.00    +0.069 C 
ATOM      7  N   UNL     1       3.758   4.511  -0.006  0.00  0.00    -0.181 NA
ENDROOT
BRANCH   6   8
ATOM      8  C   UNL     1       4.233   5.221  -2.308  0.00  0.00    -0.002 A 
ATOM      9  C   UNL     1       4.478   4.796  -3.616  0.00  0.00    +0.011 A 
ATOM     10  C   UNL     1       4.701   5.727  -4.609  0.00  0.00    +0.016 A 
ATOM     11  C   UNL     1       4.693   7.079  -4.309  0.00  0.00    +0.018 A 
ATOM     12  C   UNL     1       4.457   7.506  -3.013  0.00  0.00    +0.016 A 
ATOM     13  C   UNL     1       4.227   6.586  -2.012  0.00  0.00    +0.011 A 
ATOM     14 BR   UNL     1       5.008   8.348  -5.675  0.00  0.00    -0.050 Br
ENDBRANCH   6   8
BRANCH   4  15
ATOM     15  C   UNL     1       2.377   1.411  -0.014  0.00  0.00    -0.023 A 
ATOM     16  C   UNL     1       1.171   2.086   0.002  0.00  0.00    +0.005 A 
ATOM     17  C   UNL     1      -0.017   1.378   0.010  0.00  0.00    +0.003 A 
ATOM     18  C   UNL     1       0.002  -0.004   0.002  0.00  0.00    +0.033 A 
ATOM     19  C   UNL     1       1.208  -0.679  -0.014  0.00  0.00    +0.127 A 
ATOM     20  C   UNL     1       2.396   0.029  -0.021  0.00  0.00    +0.038 A 
BRANCH  19  21
ATOM     21  N   UNL     1       1.228  -2.159  -0.022  0.00  0.00    +0.056 N 
ATOM     22  O   UNL     1       0.182  -2.782  -0.015  0.00  0.00    -0.126 OA
ATOM     23  O   UNL     1       2.291  -2.753  -0.036  0.00  0.00    -0.126 OA
ENDBRANCH  19  21
ENDBRANCH   4  15
BRANCH   1  25
ATOM     24  C   UNL     1       2.915   4.490   4.330  0.00  0.00    +0.013 C 
ATOM     25  C   UNL     1       3.211   4.740   2.850  0.00  0.00    +0.094 C 
ENDBRANCH   1  25
TORSDOF 4
