REMARK  Name = ZINC02435630
REMARK  3 active torsions:
REMARK  status: ('A' for Active; 'I' for Inactive)
REMARK    1  A    between atoms: C_1  and  N_2
REMARK    2  A    between atoms: C_6  and  C_7
REMARK    3  A    between atoms: N_13  and  C_14
REMARK                            x       y       z     vdW  Elec       q    Type
REMARK                         _______ _______ _______ _____ _____    ______ ____
ROOT
ATOM      1  C   UNL     1       0.200  -0.512   2.495  0.00  0.00    +0.046 C 
ATOM      2  C   UNL     1       0.097   0.796   2.864  0.00  0.00    +0.079 C 
ATOM      3  C   UNL     1      -0.218   1.976   2.042  0.00  0.00    +0.256 C 
ATOM      4  O   UNL     1      -0.436   1.878   0.848  0.00  0.00    -0.269 OA
ATOM      5  N   UNL     1      -0.255   3.145   2.658  0.00  0.00    -0.260 N 
ATOM      6  C   UNL     1      -0.006   3.235   4.010  0.00  0.00    +0.166 C 
ATOM      7  N   UNL     1      -0.002   4.307   4.771  0.00  0.00    -0.226 NA
ATOM      8  S   UNL     1       0.301   1.539   4.476  0.00  0.00    -0.049 S 
ATOM      9  H   UNL     1      -0.459   3.948   2.152  0.00  0.00    +0.157 HD
ENDROOT
BRANCH   7  10
ATOM     10  C   UNL     1       0.271   4.195   6.107  0.00  0.00    +0.068 A 
ATOM     11  C   UNL     1      -0.321   3.179   6.862  0.00  0.00    +0.028 A 
ATOM     12  C   UNL     1      -0.042   3.072   8.208  0.00  0.00    +0.003 A 
ATOM     13  C   UNL     1       0.823   3.969   8.813  0.00  0.00    +0.015 A 
ATOM     14  C   UNL     1       1.413   4.978   8.071  0.00  0.00    +0.020 A 
ATOM     15  C   UNL     1       1.147   5.093   6.722  0.00  0.00    +0.043 A 
ATOM     16 BR   UNL     1       2.592   6.197   8.908  0.00  0.00    -0.050 Br
ENDBRANCH   7  10
BRANCH   1  22
ATOM     17  C   UNL     1       1.961   0.638   0.260  0.00  0.00    +0.149 C 
ATOM     18  N   UNL     1       0.905  -0.367   0.111  0.00  0.00    -0.350 N 
ATOM     19  C   UNL     1       0.535  -0.962  -1.054  0.00  0.00    +0.086 A 
ATOM     20  C   UNL     1      -0.471  -1.833  -0.802  0.00  0.00    +0.020 A 
ATOM     21  C   UNL     1      -0.747  -1.787   0.568  0.00  0.00    +0.027 A 
ATOM     22  C   UNL     1       0.125  -0.870   1.127  0.00  0.00    +0.043 A 
ENDBRANCH   1  22
TORSDOF 2
