REMARK  Name = ZINC12372405
REMARK  11 active torsions:
REMARK  status: ('A' for Active; 'I' for Inactive)
REMARK    1  A    between atoms: C_1  and  C_2
REMARK    2  A    between atoms: C_3  and  C_22
REMARK    3  A    between atoms: C_5  and  C_7
REMARK    4  A    between atoms: C_9  and  C_20
REMARK    5  A    between atoms: C_10  and  N_19
REMARK    6  A    between atoms: C_12  and  C_18
REMARK    7  A    between atoms: C_13  and  C_14
REMARK    8  A    between atoms: C_14  and  O_16
REMARK    9  A    between atoms: O_16  and  C_17
REMARK   10  A    between atoms: C_22  and  S_23
REMARK   11  A    between atoms: S_23  and  C_24
REMARK                            x       y       z     vdW  Elec       q    Type
REMARK                         _______ _______ _______ _____ _____    ______ ____
ROOT
ATOM      1  C   UNL     1      -3.056  -0.123  -1.030  0.00  0.00    +0.052 C 
ATOM      2  C   UNL     1      -2.339   1.111  -1.513  0.00  0.00    -0.009 A 
ATOM      3  C   UNL     1      -1.301   1.773  -0.946  0.00  0.00    -0.027 A 
ATOM      4  C   UNL     1      -0.794   2.892  -1.578  0.00  0.00    +0.017 A 
ATOM      5  C   UNL     1      -1.353   3.298  -2.745  0.00  0.00    +0.003 A 
ATOM      6  S   UNL     1      -2.637   2.081  -2.982  0.00  0.00    -0.097 S 
ENDROOT
BRANCH   5   7
ATOM      7  C   UNL     1      -0.984   4.471  -3.616  0.00  0.00    +0.111 C 
ATOM      8  C   UNL     1      -2.163   5.400  -3.729  0.00  0.00    +0.099 C 
ATOM      9  C   UNL     1      -2.915   5.431  -4.856  0.00  0.00    +0.198 C 
ATOM     10  O   UNL     1      -2.644   4.641  -5.910  0.00  0.00    -0.445 OA
ATOM     11  C   UNL     1      -1.427   4.090  -6.023  0.00  0.00    +0.115 C 
ATOM     12  C   UNL     1      -0.593   3.977  -4.982  0.00  0.00    +0.087 C 
ATOM     13  C   UNL     1      -0.983   3.578  -7.369  0.00  0.00    +0.087 C 
BRANCH   9  14
ATOM     14  N   UNL     1      -3.982   6.291  -4.924  0.00  0.00    -0.328 N 
ATOM     15  H   UNL     1      -4.529   6.324  -5.724  0.00  0.00    +0.145 HD
ATOM     16  H   UNL     1      -4.189   6.867  -4.171  0.00  0.00    +0.145 HD
ENDBRANCH   9  14
BRANCH  12  17
ATOM     17  C   UNL     1       0.679   3.383  -5.169  0.00  0.00    +0.339 C 
ATOM     18  O   UNL     1       1.678   4.077  -5.186  0.00  0.00    -0.245 OA
BRANCH  17  19
ATOM     19  O   UNL     1       0.783   2.047  -5.329  0.00  0.00    -0.465 OA
ATOM     20  C   UNL     1       2.096   1.516  -5.513  0.00  0.00    +0.280 C 
ENDBRANCH  17  19
ENDBRANCH  12  17
BRANCH   8  21
ATOM     21  C   UNL     1      -2.495   6.260  -2.633  0.00  0.00    +0.101 C 
ATOM     22  N   UNL     1      -2.758   6.943  -1.764  0.00  0.00    -0.191 NA
ENDBRANCH   8  21
ENDBRANCH   5   7
BRANCH   3  23
ATOM     23  C   UNL     1      -0.706   1.292   0.352  0.00  0.00    +0.112 C 
BRANCH  23  24
ATOM     24  S   UNL     1      -1.560   2.084   1.738  0.00  0.00    -0.094 S 
BRANCH  24  25
ATOM     25  C   UNL     1      -0.688   1.362   3.088  0.00  0.00    +0.136 A 
ATOM     26  N   UNL     1       0.297   0.491   3.062  0.00  0.00    -0.233 NA
ATOM     27  C   UNL     1       0.879   0.022   4.187  0.00  0.00    +0.079 A 
ATOM     28  C   UNL     1       1.941  -0.905   4.299  0.00  0.00    +0.029 A 
ATOM     29  C   UNL     1       2.415  -1.282   5.529  0.00  0.00    +0.002 A 
ATOM     30  C   UNL     1       1.876  -0.772   6.701  0.00  0.00    +0.001 A 
ATOM     31  C   UNL     1       0.836   0.137   6.628  0.00  0.00    +0.017 A 
ATOM     32  C   UNL     1       0.355   0.520   5.402  0.00  0.00    +0.040 A 
ATOM     33  S   UNL     1      -0.921   1.621   4.841  0.00  0.00    -0.061 S 
ENDBRANCH  24  25
ENDBRANCH  23  24
ENDBRANCH   3  23
TORSDOF 8
