REMARK  Name = ZINC64103580
REMARK  8 active torsions:
REMARK  status: ('A' for Active; 'I' for Inactive)
REMARK    1  A    between atoms: C_1  and  C_2
REMARK    2  A    between atoms: C_2  and  C_3
REMARK    3  A    between atoms: C_2  and  C_4
REMARK    4  A    between atoms: C_2  and  C_5
REMARK    5  A    between atoms: C_13  and  C_15
REMARK    6  A    between atoms: C_15  and  C_17
REMARK    7  A    between atoms: C_15  and  N_27
REMARK    8  A    between atoms: C_17  and  C_18
REMARK                            x       y       z     vdW  Elec       q    Type
REMARK                         _______ _______ _______ _____ _____    ______ ____
ROOT
ATOM      1  C   UNL     1       0.678  -0.213  -1.355  0.00  0.00    +0.107 C 
ATOM      2  C   UNL     1       0.660  -1.671  -1.734  0.00  0.00    -0.016 C 
ATOM      3  C   UNL     1       1.917  -2.069  -1.847  0.00  0.00    +0.022 C 
ATOM      4  C   UNL     1       2.323  -3.479  -2.222  0.00  0.00    +0.071 C 
ATOM      5  C   UNL     1       1.137  -4.421  -1.985  0.00  0.00    +0.114 C 
ATOM      6  N   UNL     1      -0.080  -3.810  -2.542  0.00  0.00    -0.298 N 
ATOM      7  C   UNL     1      -0.549  -2.545  -1.948  0.00  0.00    +0.141 C 
ATOM      8  C   UNL     1      -0.744  -4.389  -3.562  0.00  0.00    +0.202 C 
ATOM      9  O   UNL     1      -1.746  -3.868  -4.006  0.00  0.00    -0.277 OA
ATOM     10  N   UNL     1       2.788  -1.029  -1.577  0.00  0.00    -0.284 N 
ATOM     11  N   UNL     1       2.115   0.123  -1.275  0.00  0.00    -0.235 NA
ATOM     12  H   UNL     1       3.755  -1.106  -1.600  0.00  0.00    +0.166 HD
ATOM     13  H   UNL     1       2.350   0.862  -1.921  0.00  0.00    +0.145 HD
ENDROOT
BRANCH   1  15
ATOM     14  C   UNL     1       0.255   1.426   0.483  0.00  0.00    +0.012 C 
ATOM     15  C   UNL     1       0.002  -0.004   0.002  0.00  0.00    -0.017 C 
ATOM     16  C   UNL     1       0.579  -0.993   1.017  0.00  0.00    +0.012 C 
ATOM     17  C   UNL     1      -1.504  -0.237  -0.137  0.00  0.00    +0.012 C 
ENDBRANCH   1  15
BRANCH   8  18
ATOM     18  C   UNL     1      -0.242  -5.682  -4.151  0.00  0.00    +0.017 C 
BRANCH  18  19
ATOM     19  N   UNL     1      -0.806  -5.859  -5.496  0.00  0.00    +0.386 N 
ATOM     20  H   UNL     1      -0.523  -5.089  -6.083  0.00  0.00    -0.089 HD
ATOM     21  H   UNL     1      -0.470  -6.724  -5.890  0.00  0.00    -0.089 HD
ATOM     22  H   UNL     1      -1.813  -5.884  -5.437  0.00  0.00    -0.089 HD
ENDBRANCH  18  19
BRANCH  18  23
ATOM     23  C   UNL     1      -0.672  -6.849  -3.260  0.00  0.00    +0.026 C 
BRANCH  23  24
ATOM     24  C   UNL     1      -0.068  -8.127  -3.781  0.00  0.00    -0.043 C 
ATOM     25  C   UNL     1       1.080  -8.712  -3.367  0.00  0.00    -0.001 A 
ATOM     26  C   UNL     1       2.071  -8.347  -2.348  0.00  0.00    +0.010 A 
ATOM     27  C   UNL     1       3.142  -9.149  -2.157  0.00  0.00    +0.001 A 
ATOM     28  C   UNL     1       3.330 -10.319  -2.907  0.00  0.00    +0.002 A 
ATOM     29  C   UNL     1       2.463 -10.720  -3.860  0.00  0.00    +0.026 A 
ATOM     30  C   UNL     1       1.300  -9.952  -4.144  0.00  0.00    +0.043 A 
ATOM     31  N   UNL     1       0.328 -10.127  -5.006  0.00  0.00    -0.380 N 
ATOM     32  C   UNL     1      -0.625  -9.020  -4.867  0.00  0.00    +0.144 C 
ATOM     33  H   UNL     1       0.249 -10.867  -5.628  0.00  0.00    +0.160 HD
ENDBRANCH  23  24
ENDBRANCH  18  23
ENDBRANCH   8  18
TORSDOF 5
