REMARK  Name = ZINC08253622
REMARK  7 active torsions:
REMARK  status: ('A' for Active; 'I' for Inactive)
REMARK    1  A    between atoms: C_1  and  N_2
REMARK    2  A    between atoms: N_2  and  C_3
REMARK    3  A    between atoms: N_2  and  C_4
REMARK    4  A    between atoms: C_7  and  N_10
REMARK    5  A    between atoms: C_16  and  O_36
REMARK    6  A    between atoms: N_22  and  C_25
REMARK    7  A    between atoms: C_25  and  C_26
REMARK                            x       y       z     vdW  Elec       q    Type
REMARK                         _______ _______ _______ _____ _____    ______ ____
ROOT
ATOM      1  N   UNL     1       1.271   0.211   6.247  0.00  0.00    -0.277 N 
ATOM      2  C   UNL     1       0.742   0.703   7.528  0.00  0.00    +0.118 C 
ATOM      3  C   UNL     1       0.949   2.222   7.607  0.00  0.00    +0.123 C 
ATOM      4  C   UNL     1       0.498   2.694   8.998  0.00  0.00    +0.051 C 
ATOM      5  C   UNL     1       1.403   2.017  10.056  0.00  0.00    +0.158 C 
ATOM      6  C   UNL     1       2.407   1.086   9.367  0.00  0.00    +0.227 C 
ATOM      7  C   UNL     1       1.636   0.021   8.581  0.00  0.00    +0.140 C 
ATOM      8  N   UNL     1       2.579  -0.776   7.782  0.00  0.00    -0.299 N 
ATOM      9  C   UNL     1       2.297  -0.616   6.482  0.00  0.00    +0.141 C 
ATOM     10  S   UNL     1       3.174  -1.395   5.235  0.00  0.00    -0.018 S 
ATOM     11  O   UNL     1       3.204   1.874   8.428  0.00  0.00    -0.457 OA
ATOM     12  C   UNL     1       2.443   2.486   7.484  0.00  0.00    +0.313 C 
ATOM     13  O   UNL     1       2.914   3.183   6.616  0.00  0.00    -0.250 OA
ENDROOT
BRANCH   1  17
ATOM     14  C   UNL     1      -0.204   1.220   2.478  0.00  0.00    +0.029 A 
ATOM     15  C   UNL     1      -0.985   0.477   3.353  0.00  0.00    +0.025 A 
ATOM     16  C   UNL     1      -0.494   0.138   4.598  0.00  0.00    +0.025 A 
ATOM     17  C   UNL     1       0.775   0.550   4.980  0.00  0.00    +0.036 A 
ATOM     18  C   UNL     1       1.554   1.298   4.107  0.00  0.00    +0.025 A 
ATOM     19  C   UNL     1       1.067   1.632   2.859  0.00  0.00    +0.025 A 
BRANCH  14  21
ATOM     20  C   UNL     1       0.124   2.347   0.292  0.00  0.00    +0.129 C 
ATOM     21  N   UNL     1      -0.698   1.558   1.213  0.00  0.00    -0.336 N 
ATOM     22  C   UNL     1      -2.038   1.124   0.811  0.00  0.00    +0.129 C 
ENDBRANCH  14  21
ENDBRANCH   1  17
BRANCH   5  23
ATOM     23  O   UNL     1       0.586   1.256  10.948  0.00  0.00    -0.388 OA
ATOM     24  H   UNL     1      -0.075   1.782  11.421  0.00  0.00    +0.210 HD
ENDBRANCH   5  23
BRANCH   8  25
ATOM     25  C   UNL     1       3.651  -1.615   8.321  0.00  0.00    +0.142 C 
BRANCH  25  26
ATOM     26  C   UNL     1       3.128  -3.009   8.557  0.00  0.00    -0.030 A 
ATOM     27  C   UNL     1       2.575  -3.341   9.780  0.00  0.00    +0.008 A 
ATOM     28  C   UNL     1       2.089  -4.617   9.995  0.00  0.00    +0.038 A 
ATOM     29  C   UNL     1       2.168  -5.566   8.990  0.00  0.00    +0.123 A 
ATOM     30  C   UNL     1       2.728  -5.234   7.768  0.00  0.00    +0.038 A 
ATOM     31  C   UNL     1       3.207  -3.955   7.553  0.00  0.00    +0.008 A 
ATOM     32  F   UNL     1       1.700  -6.815   9.201  0.00  0.00    -0.205 F 
ENDBRANCH  25  26
ENDBRANCH   8  25
TORSDOF 5
