REMARK  Name = ZINC09515094
REMARK  5 active torsions:
REMARK  status: ('A' for Active; 'I' for Inactive)
REMARK    1  A    between atoms: C_1  and  O_2
REMARK    2  A    between atoms: O_2  and  C_3
REMARK    3  A    between atoms: C_3  and  C_5
REMARK    4  A    between atoms: N_8  and  C_16
REMARK    5  A    between atoms: C_16  and  C_17
REMARK                            x       y       z     vdW  Elec       q    Type
REMARK                         _______ _______ _______ _____ _____    ______ ____
ROOT
ATOM      1  C   UNL     1      -0.013   1.086   0.008  0.00  0.00    +0.161 C 
ENDROOT
BRANCH   1   2
ATOM      2  C   UNL     1      -0.725   1.588  -1.221  0.00  0.00    +0.067 A 
ATOM      3  C   UNL     1      -1.678   0.757  -1.852  0.00  0.00    +0.006 A 
ATOM      4  C   UNL     1      -1.988  -0.518  -1.361  0.00  0.00    +0.010 A 
ATOM      5  C   UNL     1      -2.920  -1.279  -2.004  0.00  0.00    +0.001 A 
ATOM      6  C   UNL     1      -3.573  -0.807  -3.137  0.00  0.00    +0.001 A 
ATOM      7  C   UNL     1      -3.296   0.435  -3.638  0.00  0.00    +0.009 A 
ATOM      8  C   UNL     1      -2.349   1.235  -3.003  0.00  0.00    -0.007 A 
ATOM      9  C   UNL     1      -2.001   2.576  -3.482  0.00  0.00    +0.008 A 
ATOM     10  C   UNL     1      -2.601   3.135  -4.609  0.00  0.00    +0.010 A 
ATOM     11  C   UNL     1      -2.242   4.389  -5.016  0.00  0.00    +0.001 A 
ATOM     12  C   UNL     1      -1.284   5.112  -4.316  0.00  0.00    +0.002 A 
ATOM     13  C   UNL     1      -0.680   4.591  -3.209  0.00  0.00    +0.028 A 
ATOM     14  C   UNL     1      -1.025   3.307  -2.765  0.00  0.00    +0.072 A 
ATOM     15  N   UNL     1      -0.442   2.775  -1.677  0.00  0.00    -0.249 NA
ENDBRANCH   1   2
BRANCH   1  18
ATOM     16  C   UNL     1      -1.860   3.018   2.652  0.00  0.00    +0.298 C 
ATOM     17  C   UNL     1      -1.106   2.788   1.336  0.00  0.00    +0.162 C 
ATOM     18  N   UNL     1      -0.836   1.353   1.195  0.00  0.00    -0.317 N 
ATOM     19  C   UNL     1      -0.250   0.812   2.344  0.00  0.00    +0.072 A 
ATOM     20  C   UNL     1       0.441  -0.391   2.236  0.00  0.00    +0.027 A 
ATOM     21  C   UNL     1       1.029  -0.957   3.349  0.00  0.00    +0.002 A 
ATOM     22  C   UNL     1       0.935  -0.331   4.578  0.00  0.00    +0.004 A 
ATOM     23  C   UNL     1       0.252   0.864   4.694  0.00  0.00    +0.047 A 
ATOM     24  C   UNL     1      -0.342   1.441   3.579  0.00  0.00    +0.143 A 
ATOM     25  O   UNL     1      -0.999   2.624   3.726  0.00  0.00    -0.474 OA
BRANCH  16  26
ATOM     26  C   UNL     1      -2.212   4.476   2.790  0.00  0.00    +0.350 C 
ATOM     27  O   UNL     1      -1.703   5.141   3.661  0.00  0.00    -0.247 OA
BRANCH  26  29
ATOM     28  C   UNL     1      -3.385   6.446   2.138  0.00  0.00    +0.280 C 
ATOM     29  O   UNL     1      -3.093   5.037   1.946  0.00  0.00    -0.465 OA
ENDBRANCH  26  29
ENDBRANCH  16  26
ENDBRANCH   1  18
TORSDOF 4
