REMARK  Name = ZINC36269513
REMARK  4 active torsions:
REMARK  status: ('A' for Active; 'I' for Inactive)
REMARK    1  A    between atoms: C_5  and  C_6
REMARK    2  A    between atoms: C_6  and  C_7
REMARK    3  A    between atoms: N_9  and  C_10
REMARK    4  A    between atoms: C_11  and  C_19
REMARK                            x       y       z     vdW  Elec       q    Type
REMARK                         _______ _______ _______ _____ _____    ______ ____
ROOT
ATOM      1  C   UNL     1      -3.273  -1.959  -2.952  0.00  0.00    +0.090 A 
ATOM      2  C   UNL     1      -4.404  -2.635  -3.383  0.00  0.00    +0.083 A 
ATOM      3  C   UNL     1      -4.605  -2.742  -4.814  0.00  0.00    -0.022 A 
ATOM      4  C   UNL     1      -3.638  -2.155  -5.557  0.00  0.00    -0.021 A 
ATOM      5  S   UNL     1      -2.513  -1.481  -4.372  0.00  0.00    -0.079 S 
ATOM      6  C   UNL     1      -3.577  -2.111  -7.051  0.00  0.00    -0.039 C 
ATOM      7  N   UNL     1      -4.514  -3.118  -7.582  0.00  0.00    +0.382 N 
ATOM      8  C   UNL     1      -5.828  -2.953  -6.948  0.00  0.00    -0.077 C 
ATOM      9  C   UNL     1      -5.778  -3.434  -5.494  0.00  0.00    +0.018 C 
ATOM     10  H   UNL     1      -4.605  -2.998  -8.580  0.00  0.00    -0.085 HD
ATOM     11  H   UNL     1      -4.160  -4.042  -7.386  0.00  0.00    -0.085 HD
ENDROOT
BRANCH   1  14
ATOM     12  C   UNL     1      -1.729  -1.040  -1.407  0.00  0.00    +0.222 C 
ATOM     13  O   UNL     1      -1.065  -0.625  -2.334  0.00  0.00    -0.275 OA
ATOM     14  N   UNL     1      -2.864  -1.726  -1.646  0.00  0.00    -0.279 N 
ATOM     15  H   UNL     1      -3.396  -2.057  -0.905  0.00  0.00    +0.155 HD
BRANCH  12  16
ATOM     16  C   UNL     1      -1.286  -0.786   0.011  0.00  0.00    +0.131 C 
BRANCH  16  21
ATOM     17  C   UNL     1      -0.017   1.378   0.010  0.00  0.00    +0.011 A 
ATOM     18  C   UNL     1       1.160   2.051   0.002  0.00  0.00    +0.045 A 
ATOM     19  S   UNL     1       2.348   0.719  -0.017  0.00  0.00    -0.105 S 
ATOM     20  C   UNL     1       1.196  -0.645  -0.013  0.00  0.00    +0.049 A 
ATOM     21  C   UNL     1       0.002  -0.004   0.002  0.00  0.00    -0.032 A 
ENDBRANCH  16  21
ENDBRANCH  12  16
ENDBRANCH   1  14
BRANCH   2  22
ATOM     22  C   UNL     1      -5.334  -3.203  -2.454  0.00  0.00    +0.102 C 
ATOM     23  N   UNL     1      -6.071  -3.654  -1.717  0.00  0.00    -0.191 NA
ENDBRANCH   2  22
TORSDOF 4
