REMARK  Name = ZINC51213887
REMARK  8 active torsions:
REMARK  status: ('A' for Active; 'I' for Inactive)
REMARK    1  A    between atoms: C_1  and  C_2
REMARK    2  A    between atoms: C_2  and  C_4
REMARK    3  A    between atoms: C_2  and  N_12
REMARK    4  A    between atoms: C_13  and  C_15
REMARK    5  A    between atoms: C_15  and  N_16
REMARK    6  A    between atoms: N_16  and  C_17
REMARK    7  A    between atoms: C_17  and  C_18
REMARK    8  A    between atoms: C_17  and  C_24
REMARK                            x       y       z     vdW  Elec       q    Type
REMARK                         _______ _______ _______ _____ _____    ______ ____
ROOT
ATOM      1  N   UNL     1      -3.809  -1.573  -2.574  0.00  0.00    +0.392 N 
ATOM      2  H   UNL     1      -3.953  -0.620  -2.872  0.00  0.00    -0.084 HD
ATOM      3  H   UNL     1      -3.155  -2.025  -3.196  0.00  0.00    -0.084 HD
ENDROOT
BRANCH   1   4
ATOM      4  C   UNL     1      -3.269  -1.582  -1.207  0.00  0.00    +0.016 C 
BRANCH   4   6
ATOM      5  N   UNL     1      -1.274  -0.723  -0.024  0.00  0.00    -0.306 N 
ATOM      6  C   UNL     1      -1.956  -0.843  -1.180  0.00  0.00    +0.197 C 
ATOM      7  O   UNL     1      -1.513  -0.357  -2.199  0.00  0.00    -0.278 OA
ATOM      8  H   UNL     1      -1.629  -1.111   0.791  0.00  0.00    +0.149 HD
BRANCH   5  10
ATOM      9  C   UNL     1      -0.259   1.494   0.170  0.00  0.00    +0.038 C 
ATOM     10  C   UNL     1       0.002  -0.004   0.002  0.00  0.00    +0.156 C 
BRANCH  10  11
ATOM     11  C   UNL     1       0.835  -0.501   1.155  0.00  0.00    +0.236 C 
ATOM     12  O   UNL     1       0.295  -0.973   2.134  0.00  0.00    -0.274 OA
ATOM     13  N   UNL     1       2.179  -0.423   1.099  0.00  0.00    -0.300 N 
ATOM     14  C   UNL     1       2.843   0.249  -0.026  0.00  0.00    +0.108 C 
ATOM     15  C   UNL     1       3.799   1.311   0.527  0.00  0.00    +0.019 C 
ATOM     16  C   UNL     1       4.758   0.658   1.525  0.00  0.00    +0.003 C 
ATOM     17  C   UNL     1       3.962   0.069   2.691  0.00  0.00    +0.019 C 
ATOM     18  C   UNL     1       3.008  -1.002   2.165  0.00  0.00    +0.108 C 
ENDBRANCH  10  11
ENDBRANCH   5  10
ENDBRANCH   4   6
ENDBRANCH   1   4
BRANCH   1  19
ATOM     19  C   UNL     1      -5.089  -2.293  -2.600  0.00  0.00    -0.009 C 
BRANCH  19  20
ATOM     20  C   UNL     1      -5.701  -2.179  -3.972  0.00  0.00    -0.057 A 
ATOM     21  C   UNL     1      -4.902  -2.273  -5.096  0.00  0.00    +0.002 A 
ATOM     22  C   UNL     1      -5.463  -2.169  -6.355  0.00  0.00    +0.000 A 
ATOM     23  C   UNL     1      -6.825  -1.971  -6.489  0.00  0.00    +0.000 A 
ATOM     24  C   UNL     1      -7.625  -1.878  -5.366  0.00  0.00    +0.000 A 
ATOM     25  C   UNL     1      -7.063  -1.987  -4.107  0.00  0.00    +0.002 A 
ENDBRANCH  19  20
BRANCH  19  26
ATOM     26  C   UNL     1      -4.854  -3.746  -2.273  0.00  0.00    -0.057 A 
ATOM     27  C   UNL     1      -3.745  -4.398  -2.779  0.00  0.00    +0.002 A 
ATOM     28  C   UNL     1      -3.531  -5.730  -2.479  0.00  0.00    +0.000 A 
ATOM     29  C   UNL     1      -4.425  -6.410  -1.673  0.00  0.00    +0.000 A 
ATOM     30  C   UNL     1      -5.533  -5.758  -1.167  0.00  0.00    +0.000 A 
ATOM     31  C   UNL     1      -5.746  -4.424  -1.463  0.00  0.00    +0.002 A 
ENDBRANCH  19  26
ENDBRANCH   1  19
TORSDOF 7
