REMARK  Name = ZINC63374483
REMARK  11 active torsions:
REMARK  status: ('A' for Active; 'I' for Inactive)
REMARK    1  A    between atoms: C_1  and  C_2
REMARK    2  A    between atoms: C_2  and  C_3
REMARK    3  A    between atoms: C_3  and  C_5
REMARK    4  A    between atoms: C_3  and  N_6
REMARK    5  A    between atoms: C_12  and  C_28
REMARK    6  A    between atoms: C_24  and  C_27
REMARK    7  A    between atoms: C_32  and  O_37
REMARK    8  A    between atoms: C_33  and  O_34
REMARK    9  A    between atoms: O_34  and  C_35
REMARK   10  A    between atoms: C_35  and  C_36
REMARK   11  A    between atoms: O_37  and  C_38
REMARK                            x       y       z     vdW  Elec       q    Type
REMARK                         _______ _______ _______ _____ _____    ______ ____
ROOT
ATOM      1  N   UNL     1       2.125  -0.091  -1.209  0.00  0.00    -0.288 N 
ATOM      2  C   UNL     1       2.942  -0.571  -0.107  0.00  0.00    +0.204 C 
ATOM      3  C   UNL     1       4.342  -0.059  -0.179  0.00  0.00    +0.234 C 
ATOM      4  O   UNL     1       5.110  -0.397   0.697  0.00  0.00    -0.274 OA
ATOM      5  N   UNL     1       4.813   0.745  -1.139  0.00  0.00    -0.283 N 
ATOM      6  C   UNL     1       6.216   1.193  -1.043  0.00  0.00    +0.121 C 
ATOM      7  C   UNL     1       6.979   0.749  -2.304  0.00  0.00    +0.069 C 
ATOM      8  C   UNL     1       6.111   1.106  -3.484  0.00  0.00    -0.027 C 
ATOM      9  C   UNL     1       6.367   1.790  -4.592  0.00  0.00    -0.000 A 
ATOM     10  C   UNL     1       7.617   2.349  -5.132  0.00  0.00    +0.010 A 
ATOM     11  C   UNL     1       7.513   3.024  -6.307  0.00  0.00    +0.001 A 
ATOM     12  C   UNL     1       6.306   3.197  -6.991  0.00  0.00    +0.002 A 
ATOM     13  C   UNL     1       5.111   2.710  -6.572  0.00  0.00    +0.026 A 
ATOM     14  C   UNL     1       5.093   1.973  -5.353  0.00  0.00    +0.043 A 
ATOM     15  N   UNL     1       4.110   1.381  -4.741  0.00  0.00    -0.375 N 
ATOM     16  C   UNL     1       4.643   0.701  -3.561  0.00  0.00    +0.139 C 
ATOM     17  C   UNL     1       3.991   1.193  -2.265  0.00  0.00    +0.135 C 
ATOM     18  C   UNL     1       2.587   0.693  -2.181  0.00  0.00    +0.242 C 
ATOM     19  O   UNL     1       1.814   1.027  -3.055  0.00  0.00    -0.273 OA
ATOM     20  C   UNL     1       3.960   2.722  -2.277  0.00  0.00    +0.044 C 
ATOM     21  H   UNL     1       3.181   1.390  -5.020  0.00  0.00    +0.160 HD
ENDROOT
BRANCH   7  22
ATOM     22  C   UNL     1       7.216  -0.739  -2.266  0.00  0.00    +0.007 A 
ATOM     23  C   UNL     1       6.142  -1.608  -2.218  0.00  0.00    +0.008 A 
ATOM     24  C   UNL     1       6.355  -2.973  -2.183  0.00  0.00    +0.004 A 
ATOM     25  C   UNL     1       7.644  -3.475  -2.196  0.00  0.00    +0.049 A 
ATOM     26  C   UNL     1       8.724  -2.610  -2.245  0.00  0.00    +0.162 A 
ATOM     27  C   UNL     1       8.509  -1.235  -2.286  0.00  0.00    +0.166 A 
BRANCH  26  28
ATOM     28  O   UNL     1       9.992  -3.102  -2.258  0.00  0.00    -0.491 OA
ATOM     29  C   UNL     1      10.136  -4.523  -2.220  0.00  0.00    +0.277 C 
ENDBRANCH  26  28
BRANCH  27  30
ATOM     30  O   UNL     1       9.566  -0.381  -2.339  0.00  0.00    -0.488 OA
BRANCH  30  31
ATOM     31  C   UNL     1      10.104   0.063  -1.092  0.00  0.00    +0.226 C 
ATOM     32  C   UNL     1      11.278   1.010  -1.352  0.00  0.00    +0.048 C 
ENDBRANCH  30  31
ENDBRANCH  27  30
ENDBRANCH   7  22
BRANCH   1  33
ATOM     33  C   UNL     1       0.718  -0.497  -1.257  0.00  0.00    +0.073 C 
ATOM     34  C   UNL     1       0.630  -2.023  -1.329  0.00  0.00    +0.028 C 
BRANCH  33  36
ATOM     35  C   UNL     1      -0.019   1.526   0.010  0.00  0.00    +0.005 C 
ATOM     36  C   UNL     1       0.002  -0.004   0.002  0.00  0.00    +0.019 C 
ENDBRANCH  33  36
ENDBRANCH   1  33
TORSDOF 6
