REMARK  Name = ZINC08932678
REMARK  11 active torsions:
REMARK  status: ('A' for Active; 'I' for Inactive)
REMARK    1  A    between atoms: C_1  and  C_2
REMARK    2  A    between atoms: C_7  and  C_8
REMARK    3  A    between atoms: C_8  and  N_53
REMARK    4  A    between atoms: C_9  and  C_10
REMARK    5  A    between atoms: C_9  and  N_53
REMARK    6  A    between atoms: C_11  and  C_26
REMARK    7  A    between atoms: N_12  and  C_18
REMARK    8  A    between atoms: C_13  and  C_17
REMARK    9  A    between atoms: C_14  and  C_15
REMARK   10  A    between atoms: C_18  and  C_19
REMARK   11  A    between atoms: C_24  and  C_25
REMARK                            x       y       z     vdW  Elec       q    Type
REMARK                         _______ _______ _______ _____ _____    ______ ____
ROOT
ATOM      1  C   UNL     1      -0.344  -2.414   0.318  0.00  0.00    -0.030 A 
ATOM      2  C   UNL     1       0.254  -1.256   0.647  0.00  0.00    +0.018 A 
ATOM      3  N   UNL     1      -0.574  -0.220   0.327  0.00  0.00    -0.343 N 
ATOM      4  C   UNL     1      -1.713  -0.682  -0.222  0.00  0.00    +0.031 A 
ATOM      5  C   UNL     1      -1.644  -2.058  -0.262  0.00  0.00    +0.085 A 
ATOM      6  C   UNL     1      -2.865   0.160  -0.707  0.00  0.00    +0.064 C 
ATOM      7  C   UNL     1       1.618  -1.123   1.273  0.00  0.00    +0.064 C 
ENDROOT
BRANCH   5   8
ATOM      8  C   UNL     1      -2.666  -2.981  -0.780  0.00  0.00    +0.388 C 
ATOM      9  O   UNL     1      -2.648  -3.313  -1.949  0.00  0.00    -0.241 OA
ATOM     10  O   UNL     1      -3.621  -3.459   0.042  0.00  0.00    -0.241 OA
ENDBRANCH   5   8
BRANCH   1  11
ATOM     11  C   UNL     1       0.213  -3.802   0.501  0.00  0.00    -0.044 C 
BRANCH  11  12
ATOM     12  N   UNL     1       0.974  -4.181  -0.705  0.00  0.00    +0.384 N 
ATOM     13  H   UNL     1       0.349  -4.161  -1.519  0.00  0.00    -0.085 HD
ATOM     14  H   UNL     1       1.741  -3.513  -0.846  0.00  0.00    -0.085 HD
BRANCH  12  15
ATOM     15  C   UNL     1       1.532  -5.538  -0.553  0.00  0.00    -0.046 C 
BRANCH  15  22
ATOM     16  C   UNL     1       4.218  -4.543  -0.928  0.00  0.00    +0.044 C 
ATOM     17  C   UNL     1       3.587  -5.422  -1.977  0.00  0.00    -0.049 A 
ATOM     18  C   UNL     1       4.293  -5.752  -3.119  0.00  0.00    +0.003 A 
ATOM     19  C   UNL     1       3.714  -6.558  -4.080  0.00  0.00    +0.000 A 
ATOM     20  C   UNL     1       2.429  -7.034  -3.901  0.00  0.00    +0.000 A 
ATOM     21  C   UNL     1       1.724  -6.708  -2.757  0.00  0.00    +0.002 A 
ATOM     22  C   UNL     1       2.302  -5.897  -1.798  0.00  0.00    -0.061 A 
ENDBRANCH  15  22
ENDBRANCH  12  15
ENDBRANCH  11  12
ENDBRANCH   1  11
BRANCH   3  23
ATOM     23  C   UNL     1      -0.264   1.196   0.544  0.00  0.00    +0.157 C 
BRANCH  23  24
ATOM     24  C   UNL     1      -0.611   1.575   1.960  0.00  0.00    -0.025 A 
ATOM     25  C   UNL     1      -1.928   1.546   2.381  0.00  0.00    +0.005 A 
ATOM     26  C   UNL     1      -2.246   1.894   3.680  0.00  0.00    +0.000 A 
ATOM     27  C   UNL     1      -1.247   2.269   4.560  0.00  0.00    +0.000 A 
ATOM     28  C   UNL     1       0.069   2.296   4.140  0.00  0.00    +0.004 A 
ATOM     29  C   UNL     1       0.388   1.945   2.841  0.00  0.00    -0.046 A 
ATOM     30  C   UNL     1       1.824   1.970   2.385  0.00  0.00    +0.044 C 
ENDBRANCH  23  24
ENDBRANCH   3  23
TORSDOF 7
