REMARK  Name = ZINC08635155
REMARK  11 active torsions:
REMARK  status: ('A' for Active; 'I' for Inactive)
REMARK    1  A    between atoms: C_1  and  C_2
REMARK    2  A    between atoms: C_2  and  C_4
REMARK    3  A    between atoms: C_2  and  N_14
REMARK    4  A    between atoms: C_7  and  C_10
REMARK    5  A    between atoms: C_10  and  C_11
REMARK    6  A    between atoms: C_11  and  C_12
REMARK    7  A    between atoms: C_11  and  C_13
REMARK    8  A    between atoms: C_15  and  C_17
REMARK    9  A    between atoms: C_17  and  N_18
REMARK   10  A    between atoms: C_21  and  C_25
REMARK   11  A    between atoms: C_21  and  C_26
REMARK                            x       y       z     vdW  Elec       q    Type
REMARK                         _______ _______ _______ _____ _____    ______ ____
ROOT
ATOM      1  C   UNL     1      -3.465  -1.164  -1.134  0.00  0.00    +0.213 C 
ENDROOT
BRANCH   1   2
ATOM      2  N   UNL     1      -3.978  -1.213  -2.505  0.00  0.00    -0.215 N 
ATOM      3  C   UNL     1      -4.621  -0.195  -3.109  0.00  0.00    +0.251 C 
ATOM      4  O   UNL     1      -4.876   0.893  -2.638  0.00  0.00    -0.272 OA
ATOM      5  C   UNL     1      -4.961  -0.692  -4.501  0.00  0.00    +0.135 C 
ATOM      6  N   UNL     1      -4.418  -2.061  -4.521  0.00  0.00    -0.281 N 
ATOM      7  C   UNL     1      -3.860  -2.272  -3.315  0.00  0.00    +0.310 C 
ATOM      8  O   UNL     1      -3.313  -3.309  -2.995  0.00  0.00    -0.252 OA
ATOM      9  C   UNL     1      -4.279   0.173  -5.563  0.00  0.00    +0.047 C 
ATOM     10  H   UNL     1      -4.453  -2.688  -5.260  0.00  0.00    +0.152 HD
BRANCH   5  11
ATOM     11  C   UNL     1      -6.453  -0.711  -4.708  0.00  0.00    -0.014 A 
ATOM     12  C   UNL     1      -7.254   0.205  -4.050  0.00  0.00    +0.006 A 
ATOM     13  C   UNL     1      -8.623   0.188  -4.240  0.00  0.00    +0.001 A 
ATOM     14  C   UNL     1      -9.192  -0.744  -5.087  0.00  0.00    +0.015 A 
ATOM     15  C   UNL     1      -8.392  -1.660  -5.745  0.00  0.00    +0.018 A 
ATOM     16  C   UNL     1      -7.021  -1.639  -5.559  0.00  0.00    +0.021 A 
ATOM     17 BR   UNL     1      -9.170  -2.935  -6.904  0.00  0.00    -0.050 Br
ENDBRANCH   5  11
ENDBRANCH   1   2
BRANCH   1  19
ATOM     18  N   UNL     1      -1.372  -0.511   0.012  0.00  0.00    -0.307 N 
ATOM     19  C   UNL     1      -2.051  -0.643  -1.145  0.00  0.00    +0.231 C 
ATOM     20  O   UNL     1      -1.524  -0.341  -2.194  0.00  0.00    -0.274 OA
ATOM     21  H   UNL     1      -1.794  -0.752   0.852  0.00  0.00    +0.149 HD
BRANCH  18  23
ATOM     22  C   UNL     1      -0.019   1.526   0.010  0.00  0.00    +0.033 C 
ATOM     23  C   UNL     1       0.002  -0.004   0.002  0.00  0.00    +0.100 C 
BRANCH  23  24
ATOM     24  C   UNL     1       0.731  -0.503   1.223  0.00  0.00    -0.027 A 
ATOM     25  C   UNL     1       0.081  -0.558   2.442  0.00  0.00    +0.006 A 
ATOM     26  C   UNL     1       0.749  -1.016   3.562  0.00  0.00    +0.004 A 
ATOM     27  C   UNL     1       2.068  -1.420   3.463  0.00  0.00    -0.047 A 
ATOM     28  C   UNL     1       2.718  -1.365   2.244  0.00  0.00    +0.004 A 
ATOM     29  C   UNL     1       2.048  -0.911   1.123  0.00  0.00    +0.006 A 
BRANCH  27  30
ATOM     30  C   UNL     1       2.797  -1.918   4.684  0.00  0.00    +0.038 C 
BRANCH  30  31
ATOM     31  C   UNL     1       2.611  -3.432   4.807  0.00  0.00    -0.013 C 
ATOM     32  C   UNL     1       3.284  -4.126   3.622  0.00  0.00    +0.007 C 
ATOM     33  C   UNL     1       3.245  -3.919   6.111  0.00  0.00    +0.007 C 
ENDBRANCH  30  31
ENDBRANCH  27  30
ENDBRANCH  23  24
ENDBRANCH  18  23
ENDBRANCH   1  19
TORSDOF 7
