REMARK  Name = ZINC33838827
REMARK  11 active torsions:
REMARK  status: ('A' for Active; 'I' for Inactive)
REMARK    1  A    between atoms: C_1  and  C_2
REMARK    2  A    between atoms: C_9  and  O_43
REMARK    3  A    between atoms: C_11  and  C_42
REMARK    4  A    between atoms: C_12  and  C_41
REMARK    5  A    between atoms: C_16  and  O_25
REMARK    6  A    between atoms: C_20  and  C_23
REMARK    7  A    between atoms: C_20  and  O_24
REMARK    8  A    between atoms: O_25  and  C_26
REMARK    9  A    between atoms: C_26  and  C_28
REMARK   10  A    between atoms: C_32  and  C_34
REMARK   11  A    between atoms: C_34  and  C_35
REMARK                            x       y       z     vdW  Elec       q    Type
REMARK                         _______ _______ _______ _____ _____    ______ ____
ROOT
ATOM      1  C   UNL     1      -2.691   5.051  -0.812  0.00  0.00    +0.016 C 
ATOM      2  C   UNL     1      -1.871   4.288  -1.839  0.00  0.00    +0.059 C 
ATOM      3  C   UNL     1      -0.616   5.047  -2.265  0.00  0.00    +0.037 C 
ATOM      4  C   UNL     1      -0.059   5.926  -1.183  0.00  0.00    -0.030 C 
ATOM      5  C   UNL     1       1.186   5.962  -0.811  0.00  0.00    -0.024 C 
ATOM      6  C   UNL     1       2.350   5.182  -1.338  0.00  0.00    +0.064 C 
ATOM      7  C   UNL     1       2.579   5.370  -2.816  0.00  0.00    +0.148 C 
ATOM      8  C   UNL     1       2.452   4.135  -3.656  0.00  0.00    -0.045 C 
ATOM      9  C   UNL     1       2.591   2.943  -3.144  0.00  0.00    -0.065 C 
ATOM     10  C   UNL     1       2.800   2.674  -1.702  0.00  0.00    +0.055 C 
ATOM     11  C   UNL     1       2.429   3.795  -0.751  0.00  0.00    +0.104 C 
ATOM     12  C   UNL     1       1.117   3.463  -0.035  0.00  0.00    +0.215 C 
ATOM     13  C   UNL     1       0.913   1.992   0.158  0.00  0.00    +0.017 C 
ATOM     14  C   UNL     1      -0.296   1.482   0.151  0.00  0.00    +0.014 C 
ATOM     15  C   UNL     1      -1.505   2.388  -0.007  0.00  0.00    +0.139 C 
ATOM     16  C   UNL     1      -1.549   2.890  -1.415  0.00  0.00    +0.171 C 
ATOM     17  O   UNL     1      -1.297   2.083  -2.305  0.00  0.00    -0.294 OA
ATOM     18  C   UNL     1      -2.763   1.557   0.278  0.00  0.00    +0.054 C 
ATOM     19  C   UNL     1       3.527   3.769   0.307  0.00  0.00    +0.225 C 
ATOM     20  O   UNL     1       3.535   4.449   1.308  0.00  0.00    -0.275 OA
ATOM     21  N   UNL     1       4.497   2.912  -0.029  0.00  0.00    -0.311 N 
ATOM     22  C   UNL     1       4.272   2.360  -1.371  0.00  0.00    +0.085 C 
ATOM     23  C   UNL     1       2.518   1.769  -4.096  0.00  0.00    +0.039 C 
ATOM     24  C   UNL     1       2.204   4.257  -5.149  0.00  0.00    +0.041 C 
ATOM     25  H   UNL     1       5.377   2.603   0.553  0.00  0.00    +0.149 HD
ENDROOT
BRANCH  15  26
ATOM     26  O   UNL     1      -1.402   3.430   0.957  0.00  0.00    -0.377 OA
ATOM     27  H   UNL     1      -2.182   4.204   1.016  0.00  0.00    +0.211 HD
ENDBRANCH  15  26
BRANCH   7  28
ATOM     28  O   UNL     1       1.707   6.395  -3.328  0.00  0.00    -0.387 OA
ATOM     29  H   UNL     1       1.741   6.664  -4.394  0.00  0.00    +0.210 HD
ENDBRANCH   7  28
BRANCH  12  30
ATOM     30  O   UNL     1       1.093   4.119   1.264  0.00  0.00    -0.456 OA
BRANCH  30  31
ATOM     31  C   UNL     1       1.531   3.407   2.315  0.00  0.00    +0.305 C 
ATOM     32  O   UNL     1       2.014   2.313   2.144  0.00  0.00    -0.251 OA
ATOM     33  C   UNL     1       1.419   3.972   3.707  0.00  0.00    +0.136 C 
ENDBRANCH  30  31
ENDBRANCH  12  30
BRANCH  22  34
ATOM     34  C   UNL     1       5.227   3.024  -2.360  0.00  0.00    +0.058 C 
BRANCH  34  35
ATOM     35  C   UNL     1       6.644   2.629  -2.032  0.00  0.00    -0.046 A 
ATOM     36  C   UNL     1       7.391   3.397  -1.159  0.00  0.00    +0.004 A 
ATOM     37  C   UNL     1       8.689   3.033  -0.855  0.00  0.00    +0.000 A 
ATOM     38  C   UNL     1       9.243   1.905  -1.431  0.00  0.00    +0.000 A 
ATOM     39  C   UNL     1       8.498   1.140  -2.309  0.00  0.00    +0.000 A 
ATOM     40  C   UNL     1       7.198   1.502  -2.609  0.00  0.00    +0.004 A 
ENDBRANCH  34  35
ENDBRANCH  22  34
TORSDOF 6
