REMARK  Name = ZINC03416559
REMARK  9 active torsions:
REMARK  status: ('A' for Active; 'I' for Inactive)
REMARK    1  A    between atoms: C_1  and  C_2
REMARK    2  A    between atoms: C_2  and  C_3
REMARK    3  A    between atoms: C_2  and  C_4
REMARK    4  A    between atoms: C_4  and  N_5
REMARK    5  A    between atoms: C_15  and  S_16
REMARK    6  A    between atoms: S_16  and  C_17
REMARK    7  A    between atoms: C_17  and  C_18
REMARK    8  A    between atoms: C_30  and  C_31
REMARK    9  A    between atoms: C_30  and  C_32
REMARK                            x       y       z     vdW  Elec       q    Type
REMARK                         _______ _______ _______ _____ _____    ______ ____
ROOT
ATOM      1  C   UNL     1      -2.621   0.079  -0.298  0.00  0.00    +0.173 C 
ENDROOT
BRANCH   1   2
ATOM      2  C   UNL     1      -2.509   1.438   0.343  0.00  0.00    +0.231 C 
ATOM      3  O   UNL     1      -3.505   2.008   0.734  0.00  0.00    -0.274 OA
ATOM      4  N   UNL     1      -1.301   2.020   0.482  0.00  0.00    -0.255 N 
ATOM      5  C   UNL     1      -1.182   3.339   0.946  0.00  0.00    +0.059 A 
ATOM      6  C   UNL     1      -2.179   4.270   0.717  0.00  0.00    +0.025 A 
ATOM      7  C   UNL     1      -2.028   5.565   1.178  0.00  0.00    +0.002 A 
ATOM      8  C   UNL     1      -0.885   5.929   1.866  0.00  0.00    +0.002 A 
ATOM      9  C   UNL     1       0.115   5.004   2.100  0.00  0.00    +0.025 A 
ATOM     10  C   UNL     1      -0.029   3.703   1.644  0.00  0.00    +0.055 A 
ATOM     11  N   UNL     1       0.966   2.748   1.879  0.00  0.00    -0.282 N 
ATOM     12  C   UNL     1       0.970   1.579   1.210  0.00  0.00    +0.241 C 
ATOM     13  O   UNL     1       1.816   0.747   1.462  0.00  0.00    -0.273 OA
ATOM     14  C   UNL     1      -0.066   1.292   0.153  0.00  0.00    +0.113 C 
ATOM     15  C   UNL     1       0.452   1.753  -1.210  0.00  0.00    +0.042 C 
ATOM     16  C   UNL     1      -0.353  -0.210   0.113  0.00  0.00    +0.042 C 
ATOM     17  H   UNL     1       1.661   2.930   2.531  0.00  0.00    +0.155 HD
ENDBRANCH   1   2
BRANCH   1  18
ATOM     18  S   UNL     1      -4.366  -0.323  -0.559  0.00  0.00    -0.078 S 
BRANCH  18  29
ATOM     19  N   UNL     1      -5.343  -2.582  -1.658  0.00  0.00    -0.287 N 
ATOM     20  C   UNL     1      -5.267  -3.807  -2.228  0.00  0.00    +0.262 A 
ATOM     21  O   UNL     1      -6.270  -4.415  -2.554  0.00  0.00    -0.267 OA
ATOM     22  C   UNL     1      -3.929  -4.376  -2.438  0.00  0.00    +0.065 A 
ATOM     23  C   UNL     1      -3.744  -5.630  -3.018  0.00  0.00    +0.015 A 
ATOM     24  C   UNL     1      -2.477  -6.112  -3.191  0.00  0.00    +0.001 A 
ATOM     25  C   UNL     1      -1.373  -5.367  -2.796  0.00  0.00    +0.002 A 
ATOM     26  C   UNL     1      -1.525  -4.135  -2.225  0.00  0.00    +0.028 A 
ATOM     27  C   UNL     1      -2.809  -3.614  -2.035  0.00  0.00    +0.079 A 
ATOM     28  N   UNL     1      -3.004  -2.401  -1.480  0.00  0.00    -0.223 NA
ATOM     29  C   UNL     1      -4.207  -1.915  -1.298  0.00  0.00    +0.173 A 
BRANCH  19  30
ATOM     30  C   UNL     1      -6.652  -1.967  -1.425  0.00  0.00    +0.130 C 
BRANCH  30  32
ATOM     31  C   UNL     1      -8.472  -0.603  -2.458  0.00  0.00    +0.009 C 
ATOM     32  C   UNL     1      -7.053  -1.142  -2.649  0.00  0.00    +0.003 C 
ATOM     33  C   UNL     1      -6.081   0.028  -2.817  0.00  0.00    +0.009 C 
ENDBRANCH  30  32
ENDBRANCH  19  30
ENDBRANCH  18  29
ENDBRANCH   1  18
TORSDOF 5
