REMARK  Name = ZINC02152200
REMARK  6 active torsions:
REMARK  status: ('A' for Active; 'I' for Inactive)
REMARK    1  A    between atoms: C_1  and  C_2
REMARK    2  A    between atoms: C_5  and  C_8
REMARK    3  A    between atoms: C_8  and  N_9
REMARK    4  A    between atoms: C_29  and  C_31
REMARK    5  A    between atoms: C_31  and  C_32
REMARK    6  A    between atoms: C_32  and  C_33
REMARK                            x       y       z     vdW  Elec       q    Type
REMARK                         _______ _______ _______ _____ _____    ______ ____
ROOT
ATOM      1  N   UNL     1       1.260   8.189   0.653  0.00  0.00    -0.287 N 
ATOM      2  C   UNL     1       2.492   8.101   1.420  0.00  0.00    +0.204 C 
ATOM      3  C   UNL     1       3.255   6.854   1.115  0.00  0.00    +0.234 C 
ATOM      4  O   UNL     1       4.315   6.687   1.681  0.00  0.00    -0.274 OA
ATOM      5  N   UNL     1       2.850   5.911   0.262  0.00  0.00    -0.280 N 
ATOM      6  C   UNL     1       1.558   5.954  -0.422  0.00  0.00    +0.167 C 
ATOM      7  C   UNL     1       0.835   7.238  -0.176  0.00  0.00    +0.237 C 
ATOM      8  O   UNL     1      -0.207   7.426  -0.768  0.00  0.00    -0.274 OA
ATOM      9  C   UNL     1       0.695   4.777   0.054  0.00  0.00    +0.069 C 
ATOM     10  C   UNL     1       1.539   3.527   0.067  0.00  0.00    -0.015 A 
ATOM     11  C   UNL     1       1.100   2.148   0.114  0.00  0.00    +0.003 A 
ATOM     12  C   UNL     1      -0.167   1.557   0.150  0.00  0.00    +0.010 A 
ATOM     13  C   UNL     1      -0.211   0.186   0.195  0.00  0.00    +0.001 A 
ATOM     14  C   UNL     1       0.938  -0.588   0.205  0.00  0.00    +0.002 A 
ATOM     15  C   UNL     1       2.204  -0.030   0.168  0.00  0.00    +0.026 A 
ATOM     16  C   UNL     1       2.280   1.361   0.121  0.00  0.00    +0.047 A 
ATOM     17  N   UNL     1       3.341   2.219   0.076  0.00  0.00    -0.356 N 
ATOM     18  H   UNL     1       4.273   1.953   0.069  0.00  0.00    +0.166 HD
ATOM     19  C   UNL     1       2.889   3.511   0.043  0.00  0.00    +0.041 A 
ATOM     20  C   UNL     1       3.738   4.761  -0.011  0.00  0.00    +0.124 C 
ENDROOT
BRANCH   1  21
ATOM     21  C   UNL     1       0.441   9.395   0.799  0.00  0.00    +0.143 C 
BRANCH  21  26
ATOM     22  C   UNL     1      -3.359   8.633   5.086  0.00  0.00    +0.044 C 
ATOM     23  C   UNL     1      -2.368   8.832   3.968  0.00  0.00    -0.050 A 
ATOM     24  C   UNL     1      -1.121   9.366   4.236  0.00  0.00    +0.003 A 
ATOM     25  C   UNL     1      -0.213   9.548   3.211  0.00  0.00    +0.005 A 
ATOM     26  C   UNL     1      -0.550   9.196   1.917  0.00  0.00    -0.030 A 
ATOM     27  C   UNL     1      -1.798   8.666   1.648  0.00  0.00    +0.005 A 
ATOM     28  C   UNL     1      -2.706   8.480   2.674  0.00  0.00    +0.003 A 
ENDBRANCH  21  26
ENDBRANCH   1  21
BRANCH  20  29
ATOM     29  C   UNL     1       4.839   4.689   1.049  0.00  0.00    +0.033 C 
BRANCH  29  30
ATOM     30  C   UNL     1       4.206   4.488   2.428  0.00  0.00    +0.037 C 
BRANCH  30  31
ATOM     31  C   UNL     1       5.278   4.549   3.486  0.00  0.00    -0.047 A 
ATOM     32  C   UNL     1       5.929   3.394   3.878  0.00  0.00    +0.003 A 
ATOM     33  C   UNL     1       6.915   3.451   4.844  0.00  0.00    +0.000 A 
ATOM     34  C   UNL     1       7.243   4.661   5.427  0.00  0.00    +0.000 A 
ATOM     35  C   UNL     1       6.588   5.815   5.039  0.00  0.00    +0.000 A 
ATOM     36  C   UNL     1       5.606   5.759   4.068  0.00  0.00    +0.003 A 
ENDBRANCH  30  31
ENDBRANCH  29  30
ENDBRANCH  20  29
TORSDOF 5
