REMARK  Name = ZINC03625040
REMARK  12 active torsions:
REMARK  status: ('A' for Active; 'I' for Inactive)
REMARK    1  A    between atoms: C_1  and  C_2
REMARK    2  A    between atoms: C_2  and  O_3
REMARK    3  A    between atoms: O_3  and  C_4
REMARK    4  A    between atoms: C_4  and  C_6
REMARK    5  A    between atoms: C_10  and  N_11
REMARK    6  A    between atoms: C_12  and  C_14
REMARK    7  A    between atoms: C_14  and  S_15
REMARK    8  A    between atoms: S_15  and  C_16
REMARK    9  A    between atoms: C_21  and  N_31
REMARK   10  A    between atoms: N_22  and  C_23
REMARK   11  A    between atoms: C_23  and  C_24
REMARK   12  A    between atoms: C_24  and  C_25
REMARK                            x       y       z     vdW  Elec       q    Type
REMARK                         _______ _______ _______ _____ _____    ______ ____
ROOT
ATOM      1  C   UNL     1      -1.331   2.079   0.020  0.00  0.00    +0.173 C 
ENDROOT
BRANCH   1   3
ATOM      2  N   UNL     1       0.002  -0.004   0.002  0.00  0.00    -0.279 N 
ATOM      3  C   UNL     1      -0.016   1.344   0.009  0.00  0.00    +0.228 C 
ATOM      4  O   UNL     1       1.026   1.964   0.003  0.00  0.00    -0.275 OA
ATOM      5  H   UNL     1      -0.831  -0.500   0.007  0.00  0.00    +0.155 HD
BRANCH   2  10
ATOM      6  C   UNL     1       1.434  -2.052  -0.017  0.00  0.00    +0.091 A 
ATOM      7  C   UNL     1       2.813  -2.508  -0.039  0.00  0.00    -0.021 A 
ATOM      8  C   UNL     1       3.743  -1.528  -0.042  0.00  0.00    -0.004 A 
ATOM      9  S   UNL     1       2.814  -0.021  -0.024  0.00  0.00    -0.077 S 
ATOM     10  C   UNL     1       1.212  -0.681  -0.013  0.00  0.00    +0.086 A 
ATOM     11  C   UNL     1       5.231  -1.696  -0.055  0.00  0.00    +0.043 C 
ATOM     12  C   UNL     1       5.558  -3.151   0.312  0.00  0.00    +0.005 C 
ATOM     13  C   UNL     1       4.672  -4.081  -0.522  0.00  0.00    +0.005 C 
ATOM     14  C   UNL     1       3.220  -3.976  -0.051  0.00  0.00    +0.037 C 
BRANCH   6  15
ATOM     15  C   UNL     1       0.319  -3.002  -0.004  0.00  0.00    +0.342 C 
ATOM     16  O   UNL     1      -0.156  -3.396  -1.052  0.00  0.00    -0.245 OA
BRANCH  15  17
ATOM     17  O   UNL     1      -0.179  -3.440   1.170  0.00  0.00    -0.461 OA
BRANCH  17  19
ATOM     18  C   UNL     1      -1.711  -4.761   2.526  0.00  0.00    +0.048 C 
ATOM     19  C   UNL     1      -1.284  -4.380   1.107  0.00  0.00    +0.229 C 
ENDBRANCH  17  19
ENDBRANCH  15  17
ENDBRANCH   6  15
ENDBRANCH   2  10
ENDBRANCH   1   3
BRANCH   1  20
ATOM     20  S   UNL     1      -1.025   3.863   0.028  0.00  0.00    -0.078 S 
BRANCH  20  21
ATOM     21  C   UNL     1      -2.683   4.458   0.039  0.00  0.00    +0.174 A 
ATOM     22  N   UNL     1      -3.679   3.598   0.034  0.00  0.00    -0.185 NA
ATOM     23  C   UNL     1      -4.954   4.017   0.046  0.00  0.00    +0.276 A 
ATOM     24  O   UNL     1      -5.868   3.205   0.046  0.00  0.00    -0.266 OA
ATOM     25  C   UNL     1      -5.235   5.398   0.055  0.00  0.00    +0.113 A 
ATOM     26  C   UNL     1      -4.195   6.283   0.056  0.00  0.00    +0.103 A 
ATOM     27  N   UNL     1      -2.912   5.802   0.047  0.00  0.00    -0.308 N 
BRANCH  26  28
ATOM     28  N   UNL     1      -4.432   7.638   0.064  0.00  0.00    -0.344 N 
ATOM     29  H   UNL     1      -3.688   8.260   0.064  0.00  0.00    +0.144 HD
ATOM     30  H   UNL     1      -5.343   7.971   0.070  0.00  0.00    +0.144 HD
ENDBRANCH  26  28
BRANCH  27  31
ATOM     31  C   UNL     1      -1.782   6.735   0.047  0.00  0.00    +0.130 C 
BRANCH  31  32
ATOM     32  C   UNL     1      -1.396   7.067  -1.395  0.00  0.00    +0.057 C 
BRANCH  32  33
ATOM     33  C   UNL     1      -0.234   8.027  -1.396  0.00  0.00    -0.046 A 
ATOM     34  C   UNL     1      -0.463   9.390  -1.393  0.00  0.00    +0.004 A 
ATOM     35  C   UNL     1       0.602  10.270  -1.388  0.00  0.00    +0.000 A 
ATOM     36  C   UNL     1       1.898   9.787  -1.397  0.00  0.00    +0.000 A 
ATOM     37  C   UNL     1       2.127   8.424  -1.405  0.00  0.00    +0.000 A 
ATOM     38  C   UNL     1       1.061   7.544  -1.405  0.00  0.00    +0.004 A 
ENDBRANCH  32  33
ENDBRANCH  31  32
ENDBRANCH  27  31
ENDBRANCH  20  21
ENDBRANCH   1  20
TORSDOF 11
