REMARK  Name = ZINC09160722
REMARK  10 active torsions:
REMARK  status: ('A' for Active; 'I' for Inactive)
REMARK    1  A    between atoms: C_1  and  C_2
REMARK    2  A    between atoms: C_2  and  O_3
REMARK    3  A    between atoms: O_3  and  C_4
REMARK    4  A    between atoms: C_6  and  C_12
REMARK    5  A    between atoms: C_9  and  O_10
REMARK    6  A    between atoms: C_15  and  C_26
REMARK    7  A    between atoms: C_21  and  N_25
REMARK    8  A    between atoms: C_22  and  C_23
REMARK    9  A    between atoms: C_30  and  O_32
REMARK   10  A    between atoms: O_32  and  C_33
REMARK                            x       y       z     vdW  Elec       q    Type
REMARK                         _______ _______ _______ _____ _____    ______ ____
ROOT
ATOM      1  C   UNL     1       0.655  -4.954  -0.020  0.00  0.00    +0.102 C 
ATOM      2  C   UNL     1       0.637  -5.843   1.196  0.00  0.00    +0.054 A 
ATOM      3  C   UNL     1       0.880  -5.517   2.534  0.00  0.00    +0.100 A 
ATOM      4  N   UNL     1       0.751  -6.618   3.250  0.00  0.00    -0.171 NA
ATOM      5  N   UNL     1       0.423  -7.673   2.384  0.00  0.00    -0.246 N 
ATOM      6  H   UNL     1       0.269  -8.595   2.641  0.00  0.00    +0.192 HD
ATOM      7  C   UNL     1       0.358  -7.177   1.130  0.00  0.00    +0.223 A 
ATOM      8  O   UNL     1       0.079  -7.810  -0.036  0.00  0.00    -0.423 OA
ATOM      9  C   UNL     1       0.346  -7.153  -1.183  0.00  0.00    +0.200 C 
ATOM     10  C   UNL     1       0.625  -5.831  -1.246  0.00  0.00    +0.098 C 
ENDROOT
BRANCH   1  13
ATOM     11  C   UNL     1      -1.498  -1.849   0.006  0.00  0.00    +0.163 A 
ATOM     12  C   UNL     1      -0.389  -2.680  -0.003  0.00  0.00    +0.054 A 
ATOM     13  C   UNL     1      -0.553  -4.052  -0.009  0.00  0.00    -0.030 A 
ATOM     14  C   UNL     1      -1.822  -4.600  -0.006  0.00  0.00    +0.023 A 
ATOM     15  C   UNL     1      -2.934  -3.777   0.003  0.00  0.00    +0.063 A 
ATOM     16  C   UNL     1      -2.776  -2.400   0.016  0.00  0.00    +0.173 A 
ATOM     17 BR   UNL     1      -4.668  -4.531   0.006  0.00  0.00    -0.046 Br
BRANCH  16  18
ATOM     18  O   UNL     1      -3.868  -1.589   0.030  0.00  0.00    -0.503 OA
ATOM     19  H   UNL     1      -4.192  -1.350  -0.849  0.00  0.00    +0.292 HD
ENDBRANCH  16  18
BRANCH  11  20
ATOM     20  O   UNL     1      -1.339  -0.499   0.012  0.00  0.00    -0.489 OA
BRANCH  20  22
ATOM     21  C   UNL     1      -0.019   1.526   0.010  0.00  0.00    +0.048 C 
ATOM     22  C   UNL     1       0.002  -0.004   0.002  0.00  0.00    +0.226 C 
ENDBRANCH  20  22
ENDBRANCH  11  20
ENDBRANCH   1  13
BRANCH   3  23
ATOM     23  C   UNL     1       1.222  -4.171   3.057  0.00  0.00    +0.006 A 
ATOM     24  C   UNL     1       2.005  -3.304   2.296  0.00  0.00    +0.010 A 
ATOM     25  C   UNL     1       2.321  -2.052   2.784  0.00  0.00    +0.004 A 
ATOM     26  C   UNL     1       1.865  -1.655   4.027  0.00  0.00    +0.045 A 
ATOM     27  C   UNL     1       1.086  -2.512   4.791  0.00  0.00    +0.121 A 
ATOM     28  C   UNL     1       0.758  -3.768   4.306  0.00  0.00    +0.055 A 
BRANCH  27  29
ATOM     29  O   UNL     1       0.640  -2.118   6.012  0.00  0.00    -0.495 OA
ATOM     30  C   UNL     1       1.011  -0.808   6.447  0.00  0.00    +0.277 C 
ENDBRANCH  27  29
ENDBRANCH   3  23
BRANCH   9  31
ATOM     31  N   UNL     1       0.337  -7.868  -2.355  0.00  0.00    -0.328 N 
ATOM     32  H   UNL     1       0.142  -8.818  -2.342  0.00  0.00    +0.145 HD
ATOM     33  H   UNL     1       0.526  -7.423  -3.196  0.00  0.00    +0.145 HD
ENDBRANCH   9  31
BRANCH  10  34
ATOM     34  C   UNL     1       0.899  -5.242  -2.523  0.00  0.00    +0.101 C 
ATOM     35  N   UNL     1       1.116  -4.775  -3.535  0.00  0.00    -0.191 NA
ENDBRANCH  10  34
TORSDOF 8
