REMARK  Name = ZINC61823056
REMARK  7 active torsions:
REMARK  status: ('A' for Active; 'I' for Inactive)
REMARK    1  A    between atoms: C_1  and  C_2
REMARK    2  A    between atoms: C_2  and  C_19
REMARK    3  A    between atoms: N_5  and  S_8
REMARK    4  A    between atoms: S_8  and  C_11
REMARK    5  A    between atoms: C_14  and  C_16
REMARK    6  A    between atoms: C_16  and  C_17
REMARK    7  A    between atoms: C_17  and  N_18
REMARK                            x       y       z     vdW  Elec       q    Type
REMARK                         _______ _______ _______ _____ _____    ______ ____
ROOT
ATOM      1  S   UNL     1      -1.173  -3.668   2.148  0.00  0.00    +0.067 S 
ATOM      2  O   UNL     1      -0.421  -3.521   3.344  0.00  0.00    -0.152 OA
ATOM      3  O   UNL     1      -2.589  -3.544   2.119  0.00  0.00    -0.152 OA
ENDROOT
BRANCH   1   8
ATOM      4  C   UNL     1      -0.019   1.526   0.010  0.00  0.00    +0.011 C 
ATOM      5  C   UNL     1       0.002  -0.004   0.002  0.00  0.00    -0.032 C 
ATOM      6  C   UNL     1      -1.434  -0.533   0.011  0.00  0.00    +0.023 C 
ATOM      7  C   UNL     1      -1.409  -2.065  -0.032  0.00  0.00    +0.110 C 
ATOM      8  N   UNL     1      -0.578  -2.556   1.075  0.00  0.00    -0.176 NA
ATOM      9  C   UNL     1       0.791  -2.042   1.212  0.00  0.00    +0.110 C 
ATOM     10  C   UNL     1       0.742  -0.511   1.242  0.00  0.00    +0.023 C 
ATOM     11  C   UNL     1       0.719  -0.497  -1.256  0.00  0.00    +0.011 C 
ENDBRANCH   1   8
BRANCH   1  12
ATOM     12  C   UNL     1      -0.795  -5.265   1.507  0.00  0.00    +0.143 A 
ATOM     13  C   UNL     1       0.303  -6.032   1.719  0.00  0.00    +0.036 A 
ATOM     14  C   UNL     1       0.386  -7.267   1.105  0.00  0.00    +0.013 A 
ATOM     15  C   UNL     1      -0.632  -7.676   0.309  0.00  0.00    -0.010 A 
ATOM     16  S   UNL     1      -1.760  -6.297   0.416  0.00  0.00    -0.074 S 
BRANCH  15  17
ATOM     17  C   UNL     1      -0.776  -8.963  -0.461  0.00  0.00    +0.023 C 
BRANCH  17  18
ATOM     18  C   UNL     1      -1.470 -10.007   0.416  0.00  0.00    -0.081 C 
BRANCH  18  19
ATOM     19  N   UNL     1      -1.611 -11.262  -0.336  0.00  0.00    +0.378 N 
ATOM     20  H   UNL     1      -2.163 -11.098  -1.164  0.00  0.00    -0.090 HD
ATOM     21  H   UNL     1      -0.698 -11.599  -0.601  0.00  0.00    -0.090 HD
ATOM     22  H   UNL     1      -2.069 -11.950   0.243  0.00  0.00    -0.090 HD
ENDBRANCH  18  19
ENDBRANCH  17  18
ENDBRANCH  15  17
ENDBRANCH   1  12
TORSDOF 5
