REMARK  Name = ZINC34762550
REMARK  11 active torsions:
REMARK  status: ('A' for Active; 'I' for Inactive)
REMARK    1  A    between atoms: C_1  and  C_2
REMARK    2  A    between atoms: C_2  and  C_3
REMARK    3  A    between atoms: C_4  and  C_32
REMARK    4  A    between atoms: C_8  and  N_22
REMARK    5  A    between atoms: C_10  and  S_12
REMARK    6  A    between atoms: S_12  and  C_13
REMARK    7  A    between atoms: C_13  and  C_14
REMARK    8  A    between atoms: N_25  and  C_28
REMARK    9  A    between atoms: C_28  and  C_29
REMARK   10  A    between atoms: C_29  and  C_30
REMARK   11  A    between atoms: C_29  and  C_31
REMARK                            x       y       z     vdW  Elec       q    Type
REMARK                         _______ _______ _______ _____ _____    ______ ____
ROOT
ATOM      1  C   UNL     1       0.680  -1.020   1.573  0.00  0.00    -0.025 A 
ATOM      2  C   UNL     1       2.000  -1.250   1.526  0.00  0.00    -0.007 A 
ATOM      3  S   UNL     1       2.373  -1.870   3.156  0.00  0.00    -0.073 S 
ATOM      4  C   UNL     1       0.745  -1.802   3.856  0.00  0.00    +0.115 A 
ATOM      5  C   UNL     1      -0.045  -1.294   2.802  0.00  0.00    +0.051 A 
ATOM      6  C   UNL     1      -1.427  -1.129   3.096  0.00  0.00    +0.134 A 
ATOM      7  N   UNL     1      -1.875  -1.448   4.299  0.00  0.00    -0.206 NA
ATOM      8  C   UNL     1      -1.075  -1.918   5.248  0.00  0.00    +0.191 A 
ATOM      9  N   UNL     1       0.220  -2.101   5.028  0.00  0.00    -0.214 NA
ATOM     10  C   UNL     1       2.945  -1.036   0.371  0.00  0.00    +0.052 C 
ENDROOT
BRANCH   6  11
ATOM     11  N   UNL     1      -2.293  -0.642   2.134  0.00  0.00    -0.318 N 
ATOM     12  C   UNL     1      -3.039  -1.555   1.255  0.00  0.00    +0.088 C 
ATOM     13  C   UNL     1      -4.519  -1.160   1.287  0.00  0.00    -0.060 C 
ATOM     14  N   UNL     1      -4.653   0.260   0.939  0.00  0.00    +0.382 N 
ATOM     15  C   UNL     1      -4.001   1.089   1.961  0.00  0.00    -0.060 C 
ATOM     16  C   UNL     1      -2.499   0.805   1.966  0.00  0.00    +0.088 C 
ATOM     17  H   UNL     1      -4.219   0.428   0.044  0.00  0.00    -0.082 HD
BRANCH  14  18
ATOM     18  C   UNL     1      -6.077   0.611   0.863  0.00  0.00    -0.076 C 
BRANCH  18  19
ATOM     19  C   UNL     1      -6.720  -0.121  -0.318  0.00  0.00    -0.034 C 
ATOM     20  C   UNL     1      -8.230   0.127  -0.310  0.00  0.00    +0.005 C 
ATOM     21  C   UNL     1      -6.125   0.402  -1.627  0.00  0.00    +0.005 C 
ENDBRANCH  18  19
ENDBRANCH  14  18
ENDBRANCH   6  11
BRANCH   1  23
ATOM     22  C   UNL     1       0.098   1.046   0.331  0.00  0.00    +0.009 C 
ATOM     23  C   UNL     1      -0.041  -0.477   0.366  0.00  0.00    +0.033 C 
ENDBRANCH   1  23
BRANCH   8  24
ATOM     24  S   UNL     1      -1.749  -2.319   6.826  0.00  0.00    -0.077 S 
BRANCH  24  25
ATOM     25  C   UNL     1      -0.321  -2.909   7.776  0.00  0.00    +0.173 C 
BRANCH  25  26
ATOM     26  C   UNL     1      -0.764  -3.291   9.165  0.00  0.00    +0.226 C 
ATOM     27  O   UNL     1      -1.929  -3.176   9.483  0.00  0.00    -0.275 OA
ATOM     28  N   UNL     1       0.134  -3.760  10.054  0.00  0.00    -0.301 N 
ATOM     29  C   UNL     1       1.549  -3.899   9.686  0.00  0.00    +0.108 C 
ATOM     30  C   UNL     1       2.403  -3.156  10.719  0.00  0.00    +0.019 C 
ATOM     31  C   UNL     1       2.064  -3.671  12.119  0.00  0.00    +0.003 C 
ATOM     32  C   UNL     1       0.590  -3.396  12.423  0.00  0.00    +0.019 C 
ATOM     33  C   UNL     1      -0.283  -4.136  11.412  0.00  0.00    +0.108 C 
ENDBRANCH  25  26
ENDBRANCH  24  25
ENDBRANCH   8  24
TORSDOF 7
