REMARK  Name = ZINC13330033
REMARK  9 active torsions:
REMARK  status: ('A' for Active; 'I' for Inactive)
REMARK    1  A    between atoms: C_1  and  C_2
REMARK    2  A    between atoms: C_2  and  C_3
REMARK    3  A    between atoms: C_3  and  C_5
REMARK    4  A    between atoms: C_3  and  C_6
REMARK    5  A    between atoms: C_9  and  S_12
REMARK    6  A    between atoms: S_12  and  N_15
REMARK    7  A    between atoms: N_15  and  C_16
REMARK    8  A    between atoms: C_16  and  C_18
REMARK    9  A    between atoms: C_16  and  C_19
REMARK                            x       y       z     vdW  Elec       q    Type
REMARK                         _______ _______ _______ _____ _____    ______ ____
ROOT
ATOM      1  S   UNL     1       2.561   0.387   0.457  0.00  0.00    +0.059 S 
ATOM      2  O   UNL     1       3.820   0.896   0.038  0.00  0.00    -0.153 OA
ATOM      3  O   UNL     1       2.217   0.239   1.827  0.00  0.00    -0.153 OA
ENDROOT
BRANCH   1   7
ATOM      4  C   UNL     1       2.123  -3.701  -1.437  0.00  0.00    -0.044 A 
ATOM      5  C   UNL     1       2.960  -2.761  -2.008  0.00  0.00    +0.006 A 
ATOM      6  C   UNL     1       3.094  -1.512  -1.430  0.00  0.00    +0.029 A 
ATOM      7  C   UNL     1       2.391  -1.204  -0.281  0.00  0.00    +0.105 A 
ATOM      8  C   UNL     1       1.558  -2.146   0.294  0.00  0.00    +0.029 A 
ATOM      9  C   UNL     1       1.420  -3.393  -0.287  0.00  0.00    +0.006 A 
BRANCH   4  10
ATOM     10  C   UNL     1       1.978  -5.062  -2.067  0.00  0.00    +0.016 C 
ATOM     11  C   UNL     1       2.413  -6.136  -1.069  0.00  0.00    +0.012 C 
BRANCH  10  13
ATOM     12  C   UNL     1       0.388  -6.617  -3.207  0.00  0.00    +0.004 C 
ATOM     13  C   UNL     1       0.515  -5.290  -2.456  0.00  0.00    +0.004 C 
ENDBRANCH  10  13
ENDBRANCH   4  10
ENDBRANCH   1   7
BRANCH   1  14
ATOM     14  N   UNL     1       1.408   1.365  -0.217  0.00  0.00    -0.183 NA
ATOM     15  H   UNL     1       1.672   2.123  -0.762  0.00  0.00    +0.149 HD
BRANCH  14  16
ATOM     16  C   UNL     1      -0.013   1.086   0.008  0.00  0.00    +0.105 C 
ATOM     17  C   UNL     1      -0.526   1.951   1.161  0.00  0.00    +0.031 C 
BRANCH  16  18
ATOM     18  C   UNL     1      -0.792   1.402  -1.243  0.00  0.00    -0.011 A 
ATOM     19  C   UNL     1      -0.316   2.347  -2.132  0.00  0.00    +0.008 A 
ATOM     20  C   UNL     1      -1.030   2.638  -3.280  0.00  0.00    +0.020 A 
ATOM     21  C   UNL     1      -2.221   1.982  -3.538  0.00  0.00    +0.042 A 
ATOM     22  C   UNL     1      -2.697   1.037  -2.648  0.00  0.00    +0.040 A 
ATOM     23  C   UNL     1      -1.979   0.742  -1.503  0.00  0.00    +0.047 A 
ATOM     24 CL   UNL     1      -2.572  -0.451  -0.390  0.00  0.00    -0.083 Cl
ATOM     25 CL   UNL     1      -3.118   2.347  -4.979  0.00  0.00    -0.083 Cl
ENDBRANCH  16  18
ENDBRANCH  14  16
ENDBRANCH   1  14
TORSDOF 6
