REMARK  Name = ZINC08232654
REMARK  3 active torsions:
REMARK  status: ('A' for Active; 'I' for Inactive)
REMARK    1  A    between atoms: C_8  and  C_10
REMARK    2  A    between atoms: C_11  and  C_12
REMARK    3  A    between atoms: C_19  and  C_21
REMARK                            x       y       z     vdW  Elec       q    Type
REMARK                         _______ _______ _______ _____ _____    ______ ____
ROOT
ATOM      1  C   UNL     1      -4.491   5.283   0.662  0.00  0.00    +0.240 C 
ATOM      2  O   UNL     1      -4.247   6.475   0.686  0.00  0.00    -0.271 OA
ATOM      3  N   UNL     1      -5.722   4.854   0.320  0.00  0.00    -0.289 N 
ATOM      4  C   UNL     1      -6.058   3.424   0.373  0.00  0.00    +0.109 C 
ATOM      5  C   UNL     1      -6.618   2.994  -0.981  0.00  0.00    +0.019 C 
ATOM      6  C   UNL     1      -7.791   3.902  -1.358  0.00  0.00    +0.004 C 
ATOM      7  C   UNL     1      -7.302   5.348  -1.473  0.00  0.00    +0.029 C 
ATOM      8  C   UNL     1      -6.752   5.806  -0.118  0.00  0.00    +0.132 C 
ENDROOT
BRANCH   8   9
ATOM      9  C   UNL     1      -6.145   7.178  -0.257  0.00  0.00    +0.100 A 
ATOM     10  N   UNL     1      -5.217   7.572  -1.083  0.00  0.00    -0.242 NA
ATOM     11  C   UNL     1      -4.761   8.841  -1.108  0.00  0.00    +0.079 A 
ATOM     12  C   UNL     1      -3.773   9.416  -1.939  0.00  0.00    +0.029 A 
ATOM     13  C   UNL     1      -3.437  10.728  -1.813  0.00  0.00    +0.002 A 
ATOM     14  C   UNL     1      -4.046  11.549  -0.873  0.00  0.00    +0.001 A 
ATOM     15  C   UNL     1      -5.017  11.024  -0.042  0.00  0.00    +0.017 A 
ATOM     16  C   UNL     1      -5.363   9.700  -0.161  0.00  0.00    +0.039 A 
ATOM     17  S   UNL     1      -6.509   8.613   0.650  0.00  0.00    -0.070 S 
ENDBRANCH   8   9
BRANCH   1  19
ATOM     18  C   UNL     1      -2.185   4.735   1.237  0.00  0.00    +0.040 C 
ATOM     19  C   UNL     1      -3.445   4.313   1.003  0.00  0.00    +0.070 C 
BRANCH  18  27
ATOM     20  C   UNL     1       0.997  -0.361   2.515  0.00  0.00    +0.002 A 
ATOM     21  C   UNL     1       2.187   0.332   2.704  0.00  0.00    +0.001 A 
ATOM     22  C   UNL     1       2.203   1.705   2.555  0.00  0.00    +0.017 A 
ATOM     23  C   UNL     1       1.042   2.362   2.223  0.00  0.00    +0.040 A 
ATOM     24  C   UNL     1      -0.187   1.684   2.024  0.00  0.00    +0.079 A 
ATOM     25  C   UNL     1      -0.157   0.276   2.188  0.00  0.00    +0.029 A 
ATOM     26  N   UNL     1      -1.231   2.455   1.700  0.00  0.00    -0.240 NA
ATOM     27  C   UNL     1      -1.138   3.764   1.579  0.00  0.00    +0.102 A 
ATOM     28  S   UNL     1       0.590   4.055   1.933  0.00  0.00    -0.068 S 
ENDBRANCH  18  27
ENDBRANCH   1  19
TORSDOF 3
