REMARK  Name = ZINC03445398
REMARK  6 active torsions:
REMARK  status: ('A' for Active; 'I' for Inactive)
REMARK    1  A    between atoms: C_1  and  C_2
REMARK    2  A    between atoms: C_6  and  N_8
REMARK    3  A    between atoms: C_12  and  C_27
REMARK    4  A    between atoms: C_13  and  C_26
REMARK    5  A    between atoms: C_17  and  S_18
REMARK    6  A    between atoms: S_18  and  C_19
REMARK                            x       y       z     vdW  Elec       q    Type
REMARK                         _______ _______ _______ _____ _____    ______ ____
ROOT
ATOM      1  N   UNL     1       0.062  -2.798   2.394  0.00  0.00    -0.255 N 
ATOM      2  C   UNL     1       0.166  -2.123   3.554  0.00  0.00    +0.268 A 
ATOM      3  O   UNL     1       0.242  -0.907   3.556  0.00  0.00    -0.267 OA
ATOM      4  C   UNL     1       0.186  -2.852   4.785  0.00  0.00    +0.076 A 
ATOM      5  C   UNL     1       0.290  -2.356   6.146  0.00  0.00    -0.026 A 
ATOM      6  C   UNL     1       0.290  -3.229   7.164  0.00  0.00    -0.008 A 
ATOM      7  S   UNL     1       0.148  -4.810   6.353  0.00  0.00    -0.073 S 
ATOM      8  C   UNL     1       0.093  -4.252   4.669  0.00  0.00    +0.117 A 
ATOM      9  N   UNL     1      -0.008  -4.857   3.492  0.00  0.00    -0.215 NA
ATOM     10  C   UNL     1      -0.029  -4.162   2.373  0.00  0.00    +0.178 A 
ATOM     11  C   UNL     1       0.386  -2.942   8.640  0.00  0.00    +0.052 C 
ATOM     12  C   UNL     1       0.395  -0.876   6.411  0.00  0.00    +0.045 C 
ENDROOT
BRANCH   1  18
ATOM     13  C   UNL     1       2.493  -0.815  -1.393  0.00  0.00    +0.044 C 
ATOM     14  C   UNL     1       1.205  -1.114  -0.670  0.00  0.00    -0.048 A 
ATOM     15  C   UNL     1       0.002  -0.683  -1.196  0.00  0.00    +0.003 A 
ATOM     16  C   UNL     1      -1.183  -0.960  -0.539  0.00  0.00    +0.002 A 
ATOM     17  C   UNL     1      -1.166  -1.659   0.652  0.00  0.00    +0.026 A 
ATOM     18  C   UNL     1       0.042  -2.089   1.186  0.00  0.00    +0.052 A 
ATOM     19  C   UNL     1       1.229  -1.813   0.520  0.00  0.00    +0.029 A 
ENDBRANCH   1  18
BRANCH  10  20
ATOM     20  S   UNL     1      -0.170  -5.000   0.830  0.00  0.00    -0.072 S 
BRANCH  20  21
ATOM     21  C   UNL     1      -0.251  -6.713   1.409  0.00  0.00    +0.166 C 
ATOM     22  C   UNL     1      -0.294  -7.685   0.209  0.00  0.00    +0.067 C 
ATOM     23  C   UNL     1      -1.428  -8.655   0.620  0.00  0.00    +0.234 C 
ATOM     24  O   UNL     1      -2.281  -7.867   1.502  0.00  0.00    -0.464 OA
ATOM     25  C   UNL     1      -1.545  -6.957   2.155  0.00  0.00    +0.321 C 
ATOM     26  O   UNL     1      -1.867  -6.412   3.184  0.00  0.00    -0.250 OA
ENDBRANCH  20  21
ENDBRANCH  10  20
TORSDOF 3
