REMARK  Name = ZINC09290382
REMARK  8 active torsions:
REMARK  status: ('A' for Active; 'I' for Inactive)
REMARK    1  A    between atoms: C_1  and  C_2
REMARK    2  A    between atoms: C_3  and  C_31
REMARK    3  A    between atoms: C_4  and  N_8
REMARK    4  A    between atoms: C_11  and  C_18
REMARK    5  A    between atoms: C_13  and  C_16
REMARK    6  A    between atoms: C_14  and  N_15
REMARK    7  A    between atoms: C_21  and  O_24
REMARK    8  A    between atoms: O_24  and  C_25
REMARK                            x       y       z     vdW  Elec       q    Type
REMARK                         _______ _______ _______ _____ _____    ______ ____
ROOT
ATOM      1  N   UNL     1       2.374  -2.769   2.219  0.00  0.00    -0.244 N 
ATOM      2  C   UNL     1       2.917  -3.765   2.989  0.00  0.00    +0.026 C 
ATOM      3  C   UNL     1       3.112  -3.584   4.312  0.00  0.00    +0.025 C 
ATOM      4  C   UNL     1       2.727  -2.289   4.981  0.00  0.00    +0.097 C 
ATOM      5  C   UNL     1       2.554  -1.189   3.976  0.00  0.00    +0.077 C 
ATOM      6  C   UNL     1       2.388  -1.463   2.655  0.00  0.00    +0.108 C 
ATOM      7  C   UNL     1       3.684  -4.594   5.105  0.00  0.00    +0.162 C 
ATOM      8  O   UNL     1       3.840  -4.401   6.295  0.00  0.00    -0.292 OA
ATOM      9  C   UNL     1       4.106  -5.909   4.510  0.00  0.00    +0.080 C 
ATOM     10  C   UNL     1       4.481  -5.694   3.040  0.00  0.00    +0.014 C 
ATOM     11  C   UNL     1       3.284  -5.068   2.321  0.00  0.00    +0.052 C 
ENDROOT
BRANCH   1  15
ATOM     12  C   UNL     1       1.722  -3.408  -2.709  0.00  0.00    +0.068 C 
ATOM     13  C   UNL     1       1.491  -3.376  -1.220  0.00  0.00    +0.069 A 
ATOM     14  C   UNL     1       2.415  -2.940  -0.252  0.00  0.00    +0.045 A 
ATOM     15  C   UNL     1       1.811  -3.079   0.985  0.00  0.00    +0.134 A 
ATOM     16  N   UNL     1       0.569  -3.570   0.771  0.00  0.00    -0.263 N 
ATOM     17  H   UNL     1      -0.111  -3.772   1.476  0.00  0.00    +0.190 HD
ATOM     18  N   UNL     1       0.399  -3.748  -0.607  0.00  0.00    -0.177 NA
BRANCH  14  19
ATOM     19  C   UNL     1       3.785  -2.433  -0.509  0.00  0.00    -0.013 A 
ATOM     20  C   UNL     1       3.968  -1.205  -1.142  0.00  0.00    +0.008 A 
ATOM     21  C   UNL     1       5.245  -0.737  -1.378  0.00  0.00    +0.001 A 
ATOM     22  C   UNL     1       6.341  -1.485  -0.988  0.00  0.00    +0.000 A 
ATOM     23  C   UNL     1       6.165  -2.704  -0.359  0.00  0.00    +0.001 A 
ATOM     24  C   UNL     1       4.893  -3.182  -0.118  0.00  0.00    +0.008 A 
ENDBRANCH  14  19
ENDBRANCH   1  15
BRANCH   4  25
ATOM     25  C   UNL     1       1.431  -2.485   5.726  0.00  0.00    -0.034 A 
ATOM     26  C   UNL     1       0.291  -2.861   5.041  0.00  0.00    +0.008 A 
ATOM     27  C   UNL     1      -0.896  -3.046   5.722  0.00  0.00    +0.046 A 
ATOM     28  C   UNL     1      -0.947  -2.844   7.094  0.00  0.00    +0.120 A 
ATOM     29  C   UNL     1       0.198  -2.462   7.779  0.00  0.00    +0.046 A 
ATOM     30  C   UNL     1       1.384  -2.284   7.093  0.00  0.00    +0.008 A 
BRANCH  28  31
ATOM     31  O   UNL     1      -2.115  -3.020   7.766  0.00  0.00    -0.495 OA
ATOM     32  C   UNL     1      -3.253  -3.414   6.996  0.00  0.00    +0.277 C 
ENDBRANCH  28  31
ENDBRANCH   4  25
BRANCH   6  33
ATOM     33  N   UNL     1       2.230  -0.437   1.754  0.00  0.00    -0.345 N 
ATOM     34  H   UNL     1       2.019  -0.634   0.827  0.00  0.00    +0.144 HD
ATOM     35  H   UNL     1       2.330   0.483   2.044  0.00  0.00    +0.144 HD
ENDBRANCH   6  33
BRANCH   5  36
ATOM     36  C   UNL     1       2.569   0.174   4.415  0.00  0.00    +0.099 C 
ATOM     37  N   UNL     1       2.581   1.256   4.763  0.00  0.00    -0.191 NA
ENDBRANCH   5  36
TORSDOF 6
