REMARK  Name = ZINC12434264
REMARK  7 active torsions:
REMARK  status: ('A' for Active; 'I' for Inactive)
REMARK    1  A    between atoms: C_3  and  C_7
REMARK    2  A    between atoms: C_7  and  N_59
REMARK    3  A    between atoms: C_8  and  C_9
REMARK    4  A    between atoms: C_8  and  N_59
REMARK    5  A    between atoms: C_15  and  C_16
REMARK    6  A    between atoms: C_15  and  N_59
REMARK    7  A    between atoms: C_22  and  N_61
REMARK                            x       y       z     vdW  Elec       q    Type
REMARK                         _______ _______ _______ _____ _____    ______ ____
ROOT
ATOM      1  N   UNL     1      -0.704   1.561  -3.403  0.00  0.00    +0.386 N 
ATOM      2  H   UNL     1      -0.833   2.579  -3.417  0.00  0.00    -0.081 HD
ENDROOT
BRANCH   1   3
ATOM      3  C   UNL     1      -0.367   1.101  -4.766  0.00  0.00    -0.041 C 
BRANCH   3   6
ATOM      4  C   UNL     1      -1.969   3.578  -7.119  0.00  0.00    +0.020 A 
ATOM      5  C   UNL     1      -1.070   3.024  -6.221  0.00  0.00    +0.005 A 
ATOM      6  C   UNL     1      -1.315   1.746  -5.744  0.00  0.00    -0.046 A 
ATOM      7  C   UNL     1      -2.438   1.068  -6.181  0.00  0.00    +0.112 A 
ATOM      8  N   UNL     1      -3.275   1.628  -7.032  0.00  0.00    -0.263 NA
ATOM      9  C   UNL     1      -3.073   2.842  -7.506  0.00  0.00    +0.111 A 
ENDBRANCH   3   6
ENDBRANCH   1   3
BRANCH   1  10
ATOM     10  C   UNL     1      -1.960   0.924  -2.951  0.00  0.00    -0.020 C 
BRANCH  10  11
ATOM     11  C   UNL     1      -1.777  -0.565  -2.813  0.00  0.00    +0.046 A 
ATOM     12  C   UNL     1      -1.462  -1.247  -1.634  0.00  0.00    +0.042 A 
ATOM     13  C   UNL     1      -1.389  -2.567  -1.923  0.00  0.00    +0.105 A 
ATOM     14  N   UNL     1      -1.640  -2.714  -3.240  0.00  0.00    -0.285 N 
ATOM     15  H   UNL     1      -1.652  -3.578  -3.744  0.00  0.00    +0.188 HD
ATOM     16  N   UNL     1      -1.881  -1.443  -3.778  0.00  0.00    -0.181 NA
ENDBRANCH  10  11
ENDBRANCH   1  10
BRANCH   1  17
ATOM     17  C   UNL     1       0.394   1.228  -2.471  0.00  0.00    -0.076 C 
BRANCH  17  18
ATOM     18  C   UNL     1       0.200   2.023  -1.179  0.00  0.00    -0.044 C 
ATOM     19  C   UNL     1       1.275   1.622  -0.165  0.00  0.00    -0.002 C 
ATOM     20  C   UNL     1       1.112   2.465   1.103  0.00  0.00    -0.018 C 
ATOM     21  C   UNL     1       1.204   3.948   0.739  0.00  0.00    -0.078 C 
ATOM     22  C   UNL     1       0.320   3.520  -1.477  0.00  0.00    -0.077 C 
ATOM     23  N   UNL     1       0.128   4.276  -0.221  0.00  0.00    +0.382 N 
ATOM     24  H   UNL     1      -0.776   4.014   0.191  0.00  0.00    -0.081 HD
BRANCH  23  25
ATOM     25  C   UNL     1       0.125   5.727  -0.501  0.00  0.00    -0.069 C 
ATOM     26  C   UNL     1       1.438   6.149  -1.164  0.00  0.00    -0.015 C 
ATOM     27  C   UNL     1       1.407   7.653  -1.443  0.00  0.00    -0.002 C 
ATOM     28  C   UNL     1       1.234   8.412  -0.126  0.00  0.00    -0.000 C 
ATOM     29  C   UNL     1      -0.078   7.990   0.537  0.00  0.00    -0.002 C 
ATOM     30  C   UNL     1      -0.048   6.486   0.816  0.00  0.00    -0.015 C 
ENDBRANCH  23  25
ENDBRANCH  17  18
ENDBRANCH   1  17
TORSDOF 7
