REMARK  Name = ZINC21793247
REMARK  6 active torsions:
REMARK  status: ('A' for Active; 'I' for Inactive)
REMARK    1  A    between atoms: C_1  and  C_2
REMARK    2  A    between atoms: C_8  and  C_13
REMARK    3  A    between atoms: C_9  and  C_12
REMARK    4  A    between atoms: C_13  and  C_15
REMARK    5  A    between atoms: C_13  and  O_26
REMARK    6  A    between atoms: C_15  and  N_16
REMARK                            x       y       z     vdW  Elec       q    Type
REMARK                         _______ _______ _______ _____ _____    ______ ____
ROOT
ATOM      1  C   UNL     1       0.007  -0.039   0.454  0.00  0.00    +0.130 C 
ENDROOT
BRANCH   1   9
ATOM      2  C   UNL     1       4.487   3.531   0.485  0.00  0.00    +0.044 C 
ATOM      3  C   UNL     1       2.982   3.584   0.441  0.00  0.00    -0.050 A 
ATOM      4  C   UNL     1       2.337   4.813   0.388  0.00  0.00    +0.005 A 
ATOM      5  C   UNL     1       0.962   4.884   0.346  0.00  0.00    +0.026 A 
ATOM      6  C   UNL     1       0.209   3.714   0.357  0.00  0.00    +0.047 A 
ATOM      7  C   UNL     1       0.867   2.472   0.416  0.00  0.00    +0.006 A 
ATOM      8  C   UNL     1       2.262   2.423   0.452  0.00  0.00    +0.013 A 
ATOM      9  C   UNL     1      -0.188   1.455   0.408  0.00  0.00    +0.007 A 
ATOM     10  C   UNL     1      -1.360   2.106   0.356  0.00  0.00    +0.019 A 
ATOM     11  N   UNL     1      -1.143   3.457   0.325  0.00  0.00    -0.358 N 
ATOM     12  H   UNL     1      -1.860   4.290   0.282  0.00  0.00    +0.166 HD
ATOM     13  C   UNL     1      -2.716   1.447   0.336  0.00  0.00    +0.063 C 
ENDBRANCH   1   9
BRANCH   1  14
ATOM     14  O   UNL     1       0.975  -0.362   1.455  0.00  0.00    -0.389 OA
ATOM     15  H   UNL     1       1.250  -1.411   1.635  0.00  0.00    +0.210 HD
ENDBRANCH   1  14
BRANCH   1  16
ATOM     16  C   UNL     1       0.498  -0.532  -0.908  0.00  0.00    -0.042 C 
BRANCH  16  17
ATOM     17  N   UNL     1       0.573  -1.999  -0.900  0.00  0.00    +0.384 N 
ATOM     18  C   UNL     1       1.242  -2.499  -2.112  0.00  0.00    -0.074 C 
ATOM     19  C   UNL     1       1.620  -3.964  -1.887  0.00  0.00    +0.017 C 
ATOM     20  C   UNL     1       0.423  -4.733  -1.388  0.00  0.00    -0.048 A 
ATOM     21  C   UNL     1       0.451  -6.117  -1.459  0.00  0.00    +0.004 A 
ATOM     22  C   UNL     1      -0.622  -6.860  -1.009  0.00  0.00    +0.000 A 
ATOM     23  C   UNL     1      -1.730  -6.220  -0.484  0.00  0.00    +0.000 A 
ATOM     24  C   UNL     1      -1.758  -4.842  -0.414  0.00  0.00    +0.002 A 
ATOM     25  C   UNL     1      -0.681  -4.094  -0.868  0.00  0.00    -0.061 A 
ATOM     26  C   UNL     1      -0.761  -2.593  -0.774  0.00  0.00    -0.043 C 
ATOM     27  H   UNL     1       1.167  -2.297  -0.024  0.00  0.00    -0.081 HD
ENDBRANCH  16  17
ENDBRANCH   1  16
TORSDOF 4
