REMARK  Name = ZINC00645675
REMARK  7 active torsions:
REMARK  status: ('A' for Active; 'I' for Inactive)
REMARK    1  A    between atoms: C_1  and  C_2
REMARK    2  A    between atoms: C_5  and  S_8
REMARK    3  A    between atoms: S_8  and  C_9
REMARK    4  A    between atoms: C_11  and  N_20
REMARK    5  A    between atoms: C_18  and  O_19
REMARK    6  A    between atoms: N_20  and  S_21
REMARK    7  A    between atoms: S_21  and  C_24
REMARK                            x       y       z     vdW  Elec       q    Type
REMARK                         _______ _______ _______ _____ _____    ______ ____
ROOT
ATOM      1  C   UNL     1       5.345   2.279  -2.846  0.00  0.00    +0.057 A 
ATOM      2  C   UNL     1       5.220   1.141  -2.044  0.00  0.00    +0.043 A 
ATOM      3  C   UNL     1       4.587   0.014  -2.515  0.00  0.00    +0.057 A 
ATOM      4  C   UNL     1       4.062   0.002  -3.825  0.00  0.00    +0.008 A 
ATOM      5  C   UNL     1       3.406  -1.131  -4.333  0.00  0.00    +0.010 A 
ATOM      6  C   UNL     1       2.904  -1.109  -5.598  0.00  0.00    +0.001 A 
ATOM      7  C   UNL     1       3.028   0.024  -6.400  0.00  0.00    +0.001 A 
ATOM      8  C   UNL     1       3.653   1.142  -5.940  0.00  0.00    +0.012 A 
ATOM      9  C   UNL     1       4.183   1.157  -4.638  0.00  0.00    +0.026 A 
ATOM     10  C   UNL     1       4.836   2.296  -4.131  0.00  0.00    +0.138 A 
ENDROOT
BRANCH  10  11
ATOM     11  O   UNL     1       4.964   3.410  -4.902  0.00  0.00    -0.505 OA
ATOM     12  H   UNL     1       5.771   3.429  -5.435  0.00  0.00    +0.292 HD
ENDBRANCH  10  11
BRANCH   3  13
ATOM     13  N   UNL     1       4.468  -1.115  -1.702  0.00  0.00    -0.216 N 
ATOM     14  H   UNL     1       4.522  -2.002  -2.092  0.00  0.00    +0.174 HD
BRANCH  13  15
ATOM     15  S   UNL     1       4.235  -0.941  -0.071  0.00  0.00    +0.072 S 
ATOM     16  O   UNL     1       5.275  -0.095   0.399  0.00  0.00    -0.150 OA
ATOM     17  O   UNL     1       4.020  -2.246   0.450  0.00  0.00    -0.150 OA
BRANCH  15  18
ATOM     18  C   UNL     1       2.727  -0.057   0.148  0.00  0.00    +0.108 A 
ATOM     19  C   UNL     1       1.533  -0.743   0.258  0.00  0.00    +0.029 A 
ATOM     20  C   UNL     1       0.350  -0.049   0.430  0.00  0.00    +0.002 A 
ATOM     21  C   UNL     1       0.361   1.332   0.492  0.00  0.00    +0.000 A 
ATOM     22  C   UNL     1       1.556   2.018   0.382  0.00  0.00    +0.002 A 
ATOM     23  C   UNL     1       2.739   1.324   0.210  0.00  0.00    +0.029 A 
ENDBRANCH  15  18
ENDBRANCH  13  15
ENDBRANCH   3  13
BRANCH   1  24
ATOM     24  S   UNL     1       6.162   3.706  -2.213  0.00  0.00    -0.086 S 
BRANCH  24  29
ATOM     25  C   UNL     1       1.654   7.492  -0.875  0.00  0.00    +0.044 C 
ATOM     26  C   UNL     1       2.780   6.547  -1.209  0.00  0.00    -0.050 A 
ATOM     27  C   UNL     1       4.083   6.887  -0.895  0.00  0.00    +0.004 A 
ATOM     28  C   UNL     1       5.116   6.024  -1.200  0.00  0.00    +0.015 A 
ATOM     29  C   UNL     1       4.846   4.811  -1.823  0.00  0.00    +0.013 A 
ATOM     30  C   UNL     1       3.535   4.475  -2.141  0.00  0.00    +0.015 A 
ATOM     31  C   UNL     1       2.506   5.341  -1.829  0.00  0.00    +0.004 A 
ENDBRANCH  24  29
ENDBRANCH   1  24
TORSDOF 6
