REMARK  Name = ZINC05429349
REMARK  8 active torsions:
REMARK  status: ('A' for Active; 'I' for Inactive)
REMARK    1  A    between atoms: C_1  and  C_2
REMARK    2  A    between atoms: C_2  and  C_3
REMARK    3  A    between atoms: C_2  and  C_4
REMARK    4  A    between atoms: C_7  and  N_10
REMARK    5  A    between atoms: C_14  and  N_52
REMARK    6  A    between atoms: C_18  and  C_19
REMARK    7  A    between atoms: C_18  and  N_52
REMARK    8  A    between atoms: C_19  and  C_20
REMARK                            x       y       z     vdW  Elec       q    Type
REMARK                         _______ _______ _______ _____ _____    ______ ____
ROOT
ATOM      1  N   UNL     1       3.586   2.125  -0.020  0.00  0.00    -0.212 N 
ATOM      2  C   UNL     1       4.782   1.531   0.070  0.00  0.00    +0.225 C 
ATOM      3  O   UNL     1       4.968   0.337   0.166  0.00  0.00    -0.275 OA
ATOM      4  C   UNL     1       5.866   2.586   0.029  0.00  0.00    +0.090 C 
ATOM      5  C   UNL     1       5.080   3.907  -0.092  0.00  0.00    +0.026 C 
ATOM      6  C   UNL     1       3.635   3.460  -0.112  0.00  0.00    +0.213 C 
ATOM      7  O   UNL     1       2.674   4.194  -0.198  0.00  0.00    -0.277 OA
ENDROOT
BRANCH   1  11
ATOM      8  C   UNL     1       0.003  -0.005   0.002  0.00  0.00    -0.045 A 
ATOM      9  C   UNL     1       0.321   0.822   1.064  0.00  0.00    +0.006 A 
ATOM     10  C   UNL     1       1.507   1.528   1.059  0.00  0.00    +0.024 A 
ATOM     11  C   UNL     1       2.381   1.409  -0.013  0.00  0.00    +0.044 A 
ATOM     12  C   UNL     1       2.059   0.578  -1.078  0.00  0.00    +0.024 A 
ATOM     13  C   UNL     1       0.871  -0.126  -1.068  0.00  0.00    +0.006 A 
BRANCH   8  15
ATOM     14  C   UNL     1      -2.136  -0.367  -1.200  0.00  0.00    +0.012 C 
ATOM     15  C   UNL     1      -1.293  -0.775   0.009  0.00  0.00    +0.013 C 
ATOM     16  C   UNL     1      -0.995  -2.274  -0.058  0.00  0.00    +0.012 C 
ENDBRANCH   8  15
ENDBRANCH   1  11
BRANCH   5  17
ATOM     17  N   UNL     1       5.428   4.600  -1.347  0.00  0.00    +0.387 N 
ATOM     18  H   UNL     1       4.902   4.179  -2.123  0.00  0.00    -0.085 HD
ATOM     19  H   UNL     1       6.434   4.499  -1.522  0.00  0.00    -0.085 HD
BRANCH  17  20
ATOM     20  C   UNL     1       5.091   6.032  -1.252  0.00  0.00    -0.077 C 
BRANCH  20  21
ATOM     21  C   UNL     1       5.461   6.723  -2.566  0.00  0.00    +0.018 C 
BRANCH  21  22
ATOM     22  C   UNL     1       5.120   8.188  -2.477  0.00  0.00    -0.024 A 
ATOM     23  C   UNL     1       3.989   8.772  -2.902  0.00  0.00    +0.087 A 
ATOM     24  N   UNL     1       4.035  10.117  -2.653  0.00  0.00    -0.360 N 
ATOM     25  H   UNL     1       3.333  10.749  -2.872  0.00  0.00    +0.165 HD
ATOM     26  C   UNL     1       5.229  10.440  -2.047  0.00  0.00    +0.047 A 
ATOM     27  C   UNL     1       5.958   9.245  -1.905  0.00  0.00    +0.003 A 
ATOM     28  C   UNL     1       7.226   9.268  -1.320  0.00  0.00    +0.010 A 
ATOM     29  C   UNL     1       7.747  10.452  -0.878  0.00  0.00    +0.001 A 
ATOM     30  C   UNL     1       7.029  11.632  -1.011  0.00  0.00    +0.002 A 
ATOM     31  C   UNL     1       5.779  11.633  -1.590  0.00  0.00    +0.026 A 
ENDBRANCH  21  22
ENDBRANCH  20  21
ENDBRANCH  17  20
ENDBRANCH   5  17
TORSDOF 6
