REMARK  Name = ZINC08014247
REMARK  5 active torsions:
REMARK  status: ('A' for Active; 'I' for Inactive)
REMARK    1  A    between atoms: C_1  and  C_2
REMARK    2  A    between atoms: C_9  and  N_14
REMARK    3  A    between atoms: C_15  and  C_17
REMARK    4  A    between atoms: C_17  and  C_18
REMARK    5  A    between atoms: C_17  and  C_24
REMARK                            x       y       z     vdW  Elec       q    Type
REMARK                         _______ _______ _______ _____ _____    ______ ____
ROOT
ATOM      1  N   UNL     1       0.688   1.001   2.438  0.00  0.00    -0.285 N 
ATOM      2  C   UNL     1      -0.024   1.653   1.497  0.00  0.00    +0.229 C 
ATOM      3  O   UNL     1      -0.740   2.580   1.812  0.00  0.00    -0.274 OA
ATOM      4  H   UNL     1       1.316   0.310   2.179  0.00  0.00    +0.155 HD
ENDROOT
BRANCH   1  12
ATOM      5  C   UNL     1      -0.368   4.657   7.684  0.00  0.00    +0.062 C 
ATOM      6  C   UNL     1      -0.935   3.292   8.078  0.00  0.00    +0.256 C 
ATOM      7  C   UNL     1      -2.202   3.032   7.304  0.00  0.00    +0.258 C 
ATOM      8  O   UNL     1      -3.275   3.359   7.765  0.00  0.00    -0.271 OA
ATOM      9  N   UNL     1      -2.137   2.434   6.094  0.00  0.00    -0.279 N 
ATOM     10  C   UNL     1      -0.888   2.035   5.599  0.00  0.00    +0.077 A 
ATOM     11  C   UNL     1      -0.726   1.718   4.261  0.00  0.00    +0.050 A 
ATOM     12  C   UNL     1       0.519   1.323   3.792  0.00  0.00    +0.035 A 
ATOM     13  C   UNL     1       1.597   1.241   4.663  0.00  0.00    +0.027 A 
ATOM     14  C   UNL     1       1.438   1.564   5.998  0.00  0.00    +0.049 A 
ATOM     15  C   UNL     1       0.198   1.958   6.471  0.00  0.00    +0.143 A 
ATOM     16  O   UNL     1       0.025   2.274   7.783  0.00  0.00    -0.478 OA
ATOM     17  H   UNL     1      -2.943   2.284   5.575  0.00  0.00    +0.155 HD
ENDBRANCH   1  12
BRANCH   2  18
ATOM     18  C   UNL     1       0.069   1.229   0.054  0.00  0.00    +0.135 C 
BRANCH  18  19
ATOM     19  C   UNL     1       1.496   1.355  -0.415  0.00  0.00    -0.031 A 
ATOM     20  C   UNL     1       2.195   2.527  -0.194  0.00  0.00    +0.005 A 
ATOM     21  C   UNL     1       3.505   2.642  -0.620  0.00  0.00    +0.000 A 
ATOM     22  C   UNL     1       4.112   1.588  -1.278  0.00  0.00    +0.000 A 
ATOM     23  C   UNL     1       3.411   0.418  -1.504  0.00  0.00    +0.000 A 
ATOM     24  C   UNL     1       2.103   0.302  -1.073  0.00  0.00    +0.005 A 
ENDBRANCH  18  19
BRANCH  18  25
ATOM     25  C   UNL     1      -0.817   2.111  -0.787  0.00  0.00    -0.031 A 
ATOM     26  C   UNL     1      -0.693   3.486  -0.713  0.00  0.00    +0.005 A 
ATOM     27  C   UNL     1      -1.503   4.295  -1.488  0.00  0.00    +0.000 A 
ATOM     28  C   UNL     1      -2.443   3.730  -2.329  0.00  0.00    +0.000 A 
ATOM     29  C   UNL     1      -2.570   2.355  -2.399  0.00  0.00    +0.000 A 
ATOM     30  C   UNL     1      -1.757   1.546  -1.628  0.00  0.00    +0.005 A 
ENDBRANCH  18  25
ENDBRANCH   2  18
TORSDOF 4
