REMARK  Name = ZINC03653379
REMARK  5 active torsions:
REMARK  status: ('A' for Active; 'I' for Inactive)
REMARK    1  A    between atoms: C_10  and  S_13
REMARK    2  A    between atoms: S_13  and  C_14
REMARK    3  A    between atoms: C_14  and  C_15
REMARK    4  A    between atoms: C_23  and  C_26
REMARK    5  A    between atoms: C_30  and  O_32
REMARK                            x       y       z     vdW  Elec       q    Type
REMARK                         _______ _______ _______ _____ _____    ______ ____
ROOT
ATOM      1  C   UNL     1      11.381  -3.751   0.342  0.00  0.00    +0.001 A 
ATOM      2  C   UNL     1      11.662  -4.956  -0.279  0.00  0.00    +0.002 A 
ATOM      3  C   UNL     1      10.759  -5.515  -1.164  0.00  0.00    +0.024 A 
ATOM      4  C   UNL     1       9.567  -4.868  -1.433  0.00  0.00    +0.039 A 
ATOM      5  C   UNL     1       9.273  -3.648  -0.795  0.00  0.00    +0.028 A 
ATOM      6  C   UNL     1      10.192  -3.095   0.088  0.00  0.00    +0.012 A 
ATOM      7  C   UNL     1       7.975  -2.998  -1.069  0.00  0.00    +0.156 A 
ATOM      8  C   UNL     1       7.535  -2.853  -2.404  0.00  0.00    +0.248 A 
ATOM      9  N   UNL     1       6.366  -2.278  -2.629  0.00  0.00    -0.184 NA
ATOM     10  C   UNL     1       5.642  -1.850  -1.598  0.00  0.00    +0.213 A 
ATOM     11  N   UNL     1       6.078  -1.987  -0.352  0.00  0.00    -0.122 NA
ATOM     12  N   UNL     1       7.207  -2.548  -0.088  0.00  0.00    -0.141 NA
ATOM     13  O   UNL     1       8.310  -3.297  -3.421  0.00  0.00    -0.449 OA
ATOM     14  C   UNL     1       8.414  -4.705  -3.599  0.00  0.00    +0.294 C 
ATOM     15  N   UNL     1       8.638  -5.396  -2.333  0.00  0.00    -0.305 N 
ATOM     16  H   UNL     1       8.151  -6.208  -2.121  0.00  0.00    +0.150 HD
ENDROOT
BRANCH  14  17
ATOM     17  C   UNL     1       9.563  -4.999  -4.529  0.00  0.00    +0.015 A 
ATOM     18  C   UNL     1      10.147  -6.253  -4.532  0.00  0.00    +0.009 A 
ATOM     19  C   UNL     1      11.200  -6.526  -5.384  0.00  0.00    +0.004 A 
ATOM     20  C   UNL     1      11.673  -5.546  -6.236  0.00  0.00    +0.045 A 
ATOM     21  C   UNL     1      11.090  -4.288  -6.235  0.00  0.00    +0.117 A 
ATOM     22  C   UNL     1      10.029  -4.018  -5.382  0.00  0.00    +0.054 A 
BRANCH  21  23
ATOM     23  O   UNL     1      11.553  -3.322  -7.072  0.00  0.00    -0.507 OA
ATOM     24  H   UNL     1      11.116  -3.307  -7.935  0.00  0.00    +0.292 HD
ENDBRANCH  21  23
ENDBRANCH  14  17
BRANCH  10  25
ATOM     25  S   UNL     1       4.083  -1.084  -1.892  0.00  0.00    -0.080 S 
BRANCH  25  26
ATOM     26  C   UNL     1       3.582  -0.728  -0.190  0.00  0.00    +0.112 C 
BRANCH  26  27
ATOM     27  C   UNL     1       2.236  -0.051  -0.193  0.00  0.00    -0.037 A 
ATOM     28  C   UNL     1       1.081  -0.808  -0.129  0.00  0.00    +0.006 A 
ATOM     29  C   UNL     1      -0.154  -0.188  -0.133  0.00  0.00    +0.020 A 
ATOM     30  C   UNL     1      -0.235   1.191  -0.200  0.00  0.00    +0.041 A 
ATOM     31  C   UNL     1       0.921   1.949  -0.265  0.00  0.00    +0.020 A 
ATOM     32  C   UNL     1       2.155   1.328  -0.261  0.00  0.00    +0.006 A 
ATOM     33 CL   UNL     1      -1.786   1.971  -0.212  0.00  0.00    -0.084 Cl
ENDBRANCH  26  27
ENDBRANCH  25  26
ENDBRANCH  10  25
TORSDOF 5
