REMARK  Name = ZINC64024014
REMARK  11 active torsions:
REMARK  status: ('A' for Active; 'I' for Inactive)
REMARK    1  A    between atoms: C_1  and  C_2
REMARK    2  A    between atoms: C_7  and  C_13
REMARK    3  A    between atoms: C_9  and  C_12
REMARK    4  A    between atoms: C_13  and  N_14
REMARK    5  A    between atoms: N_17  and  C_24
REMARK    6  A    between atoms: C_18  and  C_21
REMARK    7  A    between atoms: C_21  and  C_22
REMARK    8  A    between atoms: C_22  and  O_23
REMARK    9  A    between atoms: N_27  and  C_30
REMARK   10  A    between atoms: C_30  and  C_31
REMARK   11  A    between atoms: C_30  and  C_32
REMARK                            x       y       z     vdW  Elec       q    Type
REMARK                         _______ _______ _______ _____ _____    ______ ____
ROOT
ATOM      1  N   UNL     1      -1.158  -6.373   1.125  0.00  0.00    -0.297 NA
ATOM      2  C   UNL     1      -1.151  -5.955  -0.284  0.00  0.00    +0.100 C 
ATOM      3  C   UNL     1      -1.044  -7.190  -1.180  0.00  0.00    +0.100 C 
ATOM      4  N   UNL     1      -2.174  -8.090  -0.907  0.00  0.00    -0.294 NA
ATOM      5  C   UNL     1      -2.181  -8.508   0.502  0.00  0.00    +0.073 C 
ATOM      6  C   UNL     1      -2.288  -7.273   1.398  0.00  0.00    +0.103 C 
ENDROOT
BRANCH   4   7
ATOM      7  C   UNL     1      -2.148  -9.254  -1.802  0.00  0.00    +0.054 C 
ATOM      8  C   UNL     1      -0.805  -9.977  -1.664  0.00  0.00    +0.000 C 
ATOM      9  C   UNL     1      -0.754 -11.141  -2.656  0.00  0.00    -0.077 C 
ATOM     10  N   UNL     1      -0.898 -10.629  -4.024  0.00  0.00    +0.381 N 
ATOM     11  C   UNL     1      -2.213  -9.998  -4.185  0.00  0.00    -0.077 C 
ATOM     12  C   UNL     1      -2.320  -8.790  -3.251  0.00  0.00    +0.000 C 
ATOM     13  H   UNL     1      -0.175  -9.949  -4.206  0.00  0.00    -0.081 HD
BRANCH  10  14
ATOM     14  C   UNL     1      -0.771 -11.740  -4.977  0.00  0.00    -0.075 C 
ATOM     15  C   UNL     1      -0.920 -11.208  -6.404  0.00  0.00    -0.014 C 
ATOM     16  C   UNL     1       0.604 -12.393  -4.818  0.00  0.00    -0.014 C 
ENDBRANCH  10  14
ENDBRANCH   4   7
BRANCH   1  17
ATOM     17  C   UNL     1      -1.183  -5.209   2.020  0.00  0.00    +0.113 C 
BRANCH  17  24
ATOM     18  C   UNL     1       3.627  -2.722   6.550  0.00  0.00    +0.044 C 
ATOM     19  C   UNL     1       2.834  -3.669   5.687  0.00  0.00    -0.050 A 
ATOM     20  C   UNL     1       3.486  -4.759   5.093  0.00  0.00    +0.005 A 
ATOM     21  C   UNL     1       2.847  -5.651   4.307  0.00  0.00    +0.026 A 
ATOM     22  C   UNL     1       1.456  -5.513   4.047  0.00  0.00    +0.043 A 
ATOM     23  N   UNL     1       0.625  -6.232   3.332  0.00  0.00    -0.376 N 
ATOM     24  C   UNL     1      -0.708  -5.626   3.413  0.00  0.00    +0.120 C 
ATOM     25  C   UNL     1      -0.558  -4.411   4.301  0.00  0.00    -0.040 C 
ATOM     26  C   UNL     1       0.744  -4.370   4.663  0.00  0.00    -0.001 A 
ATOM     27  C   UNL     1       1.512  -3.449   5.509  0.00  0.00    +0.013 A 
ATOM     28  C   UNL     1      -1.641  -3.441   4.699  0.00  0.00    +0.042 C 
ATOM     29  H   UNL     1       0.855  -7.031   2.833  0.00  0.00    +0.160 HD
ENDBRANCH  17  24
ENDBRANCH   1  17
BRANCH   5  30
ATOM     30  C   UNL     1      -3.377  -9.428   0.755  0.00  0.00    +0.048 C 
BRANCH  30  31
ATOM     31  C   UNL     1      -3.346  -9.918   2.204  0.00  0.00    +0.157 C 
BRANCH  31  32
ATOM     32  O   UNL     1      -4.394 -10.868   2.408  0.00  0.00    -0.395 OA
ATOM     33  H   UNL     1      -4.434 -11.222   3.307  0.00  0.00    +0.209 HD
ENDBRANCH  31  32
ENDBRANCH  30  31
ENDBRANCH   5  30
TORSDOF 7
