REMARK  Name = ZINC13070694
REMARK  10 active torsions:
REMARK  status: ('A' for Active; 'I' for Inactive)
REMARK    1  A    between atoms: C_1  and  C_2
REMARK    2  A    between atoms: C_2  and  C_3
REMARK    3  A    between atoms: C_3  and  C_5
REMARK    4  A    between atoms: C_3  and  C_6
REMARK    5  A    between atoms: C_9  and  N_12
REMARK    6  A    between atoms: N_24  and  C_27
REMARK    7  A    between atoms: C_27  and  N_64
REMARK    8  A    between atoms: C_28  and  N_64
REMARK    9  A    between atoms: C_29  and  C_30
REMARK   10  A    between atoms: C_29  and  N_64
REMARK                            x       y       z     vdW  Elec       q    Type
REMARK                         _______ _______ _______ _____ _____    ______ ____
ROOT
ATOM      1  N   UNL     1      -2.893   2.509   7.164  0.00  0.00    -0.245 N 
ATOM      2  C   UNL     1      -3.432   1.542   7.934  0.00  0.00    +0.268 A 
ATOM      3  O   UNL     1      -3.299   0.370   7.637  0.00  0.00    -0.267 OA
ATOM      4  C   UNL     1      -4.180   1.927   9.144  0.00  0.00    +0.064 A 
ATOM      5  C   UNL     1      -4.751   0.966   9.977  0.00  0.00    +0.015 A 
ATOM      6  C   UNL     1      -5.448   1.364  11.099  0.00  0.00    +0.001 A 
ATOM      7  C   UNL     1      -5.582   2.710  11.400  0.00  0.00    +0.002 A 
ATOM      8  C   UNL     1      -5.021   3.672  10.583  0.00  0.00    +0.027 A 
ATOM      9  C   UNL     1      -4.317   3.290   9.451  0.00  0.00    +0.064 A 
ATOM     10  N   UNL     1      -3.741   4.241   8.611  0.00  0.00    -0.256 N 
ATOM     11  C   UNL     1      -3.043   3.851   7.489  0.00  0.00    +0.243 A 
ATOM     12  N   UNL     1      -2.610   4.922   6.881  0.00  0.00    -0.133 NA
ATOM     13  N   UNL     1      -3.029   6.040   7.614  0.00  0.00    -0.255 N 
ATOM     14  C   UNL     1      -3.725   5.589   8.676  0.00  0.00    +0.182 A 
ATOM     15  S   UNL     1      -4.456   6.551   9.889  0.00  0.00    -0.011 S 
ENDROOT
BRANCH   1  19
ATOM     16  C   UNL     1      -0.760   1.453   3.744  0.00  0.00    -0.044 A 
ATOM     17  C   UNL     1      -2.122   1.680   3.665  0.00  0.00    +0.006 A 
ATOM     18  C   UNL     1      -2.833   2.025   4.798  0.00  0.00    +0.026 A 
ATOM     19  C   UNL     1      -2.177   2.154   6.015  0.00  0.00    +0.053 A 
ATOM     20  C   UNL     1      -0.808   1.931   6.089  0.00  0.00    +0.026 A 
ATOM     21  C   UNL     1      -0.104   1.581   4.954  0.00  0.00    +0.006 A 
BRANCH  16  22
ATOM     22  C   UNL     1       0.011   1.072   2.506  0.00  0.00    +0.016 C 
ATOM     23  C   UNL     1      -0.126   2.179   1.459  0.00  0.00    +0.012 C 
BRANCH  22  25
ATOM     24  C   UNL     1       0.316  -0.688   0.760  0.00  0.00    +0.004 C 
ATOM     25  C   UNL     1      -0.545  -0.236   1.941  0.00  0.00    +0.004 C 
ENDBRANCH  22  25
ENDBRANCH  16  22
ENDBRANCH   1  19
BRANCH  13  26
ATOM     26  C   UNL     1      -2.759   7.442   7.286  0.00  0.00    +0.072 C 
BRANCH  26  28
ATOM     27  C   UNL     1      -3.841   7.292   5.125  0.00  0.00    -0.093 C 
ATOM     28  N   UNL     1      -3.861   7.956   6.446  0.00  0.00    +0.394 N 
ATOM     29  H   UNL     1      -4.755   7.753   6.908  0.00  0.00    -0.079 HD
BRANCH  28  30
ATOM     30  C   UNL     1      -3.728   9.418   6.278  0.00  0.00    -0.041 C 
BRANCH  30  31
ATOM     31  C   UNL     1      -4.972   9.946   5.610  0.00  0.00    -0.064 A 
ATOM     32  C   UNL     1      -5.030  10.041   4.232  0.00  0.00    +0.002 A 
ATOM     33  C   UNL     1      -6.173  10.520   3.619  0.00  0.00    +0.000 A 
ATOM     34  C   UNL     1      -7.254  10.913   4.385  0.00  0.00    +0.000 A 
ATOM     35  C   UNL     1      -7.195  10.823   5.763  0.00  0.00    +0.000 A 
ATOM     36  C   UNL     1      -6.054  10.339   6.376  0.00  0.00    +0.002 A 
ENDBRANCH  30  31
ENDBRANCH  28  30
ENDBRANCH  26  28
ENDBRANCH  13  26
TORSDOF 7
