REMARK  Name = ZINC09078959
REMARK  11 active torsions:
REMARK  status: ('A' for Active; 'I' for Inactive)
REMARK    1  A    between atoms: C_1  and  C_2
REMARK    2  A    between atoms: C_2  and  O_3
REMARK    3  A    between atoms: O_3  and  C_4
REMARK    4  A    between atoms: C_4  and  C_5
REMARK    5  A    between atoms: C_5  and  N_6
REMARK    6  A    between atoms: N_15  and  C_16
REMARK    7  A    between atoms: C_16  and  C_18
REMARK    8  A    between atoms: C_21  and  S_24
REMARK    9  A    between atoms: S_24  and  N_27
REMARK   10  A    between atoms: C_29  and  C_36
REMARK   11  A    between atoms: C_32  and  C_35
REMARK                            x       y       z     vdW  Elec       q    Type
REMARK                         _______ _______ _______ _____ _____    ______ ____
ROOT
ATOM      1  C   UNL     1      -1.357  -4.474  -0.011  0.00  0.00    +0.269 C 
ATOM      2  O   UNL     1      -0.168  -4.740  -0.023  0.00  0.00    -0.268 OA
ENDROOT
BRANCH   1  12
ATOM      3  N   UNL     1      -1.071  -0.877   0.007  0.00  0.00    -0.317 N 
ATOM      4  C   UNL     1       0.002  -0.004   0.002  0.00  0.00    +0.093 A 
ATOM      5  C   UNL     1      -0.017   1.402   0.010  0.00  0.00    +0.148 A 
ATOM      6  C   UNL     1       1.157   2.121   0.002  0.00  0.00    +0.040 A 
ATOM      7  C   UNL     1       2.387   1.485  -0.012  0.00  0.00    +0.004 A 
ATOM      8  C   UNL     1       2.434   0.102  -0.020  0.00  0.00    +0.017 A 
ATOM      9  C   UNL     1       1.262  -0.618  -0.013  0.00  0.00    +0.042 A 
ATOM     10  S   UNL     1       0.872  -2.349  -0.019  0.00  0.00    -0.052 S 
ATOM     11  C   UNL     1      -0.857  -2.220  -0.003  0.00  0.00    +0.167 A 
ATOM     12  N   UNL     1      -1.757  -3.198   0.000  0.00  0.00    -0.152 NA
ATOM     13  F   UNL     1      -1.200   2.054   0.019  0.00  0.00    -0.203 F 
BRANCH   3  14
ATOM     14  C   UNL     1      -2.440  -0.354   0.023  0.00  0.00    +0.152 C 
BRANCH  14  15
ATOM     15  C   UNL     1      -2.930  -0.164  -1.414  0.00  0.00    +0.181 C 
BRANCH  15  16
ATOM     16  O   UNL     1      -4.265   0.346  -1.398  0.00  0.00    -0.378 OA
BRANCH  16  18
ATOM     17  C   UNL     1      -6.243   1.104  -2.560  0.00  0.00    +0.034 C 
ATOM     18  C   UNL     1      -4.820   0.560  -2.697  0.00  0.00    +0.156 C 
ENDBRANCH  16  18
ENDBRANCH  15  16
ENDBRANCH  14  15
ENDBRANCH   3  14
ENDBRANCH   1  12
BRANCH   1  19
ATOM     19  C   UNL     1      -2.360  -5.564  -0.008  0.00  0.00    +0.039 A 
ATOM     20  C   UNL     1      -3.722  -5.263   0.012  0.00  0.00    +0.015 A 
ATOM     21  C   UNL     1      -4.651  -6.283   0.009  0.00  0.00    +0.029 A 
ATOM     22  C   UNL     1      -4.234  -7.602  -0.002  0.00  0.00    +0.106 A 
ATOM     23  C   UNL     1      -2.885  -7.907  -0.016  0.00  0.00    +0.029 A 
ATOM     24  C   UNL     1      -1.946  -6.896  -0.019  0.00  0.00    +0.015 A 
BRANCH  22  25
ATOM     25  S   UNL     1      -5.427  -8.899   0.001  0.00  0.00    +0.061 S 
ATOM     26  O   UNL     1      -6.623  -8.351  -0.536  0.00  0.00    -0.153 OA
ATOM     27  O   UNL     1      -4.790 -10.037  -0.563  0.00  0.00    -0.153 OA
BRANCH  25  28
ATOM     28  N   UNL     1      -5.744  -9.269   1.583  0.00  0.00    -0.176 NA
ATOM     29  C   UNL     1      -4.961 -10.296   2.283  0.00  0.00    +0.112 C 
ATOM     30  C   UNL     1      -4.400  -9.686   3.576  0.00  0.00    +0.002 C 
ATOM     31  C   UNL     1      -5.551  -9.104   4.400  0.00  0.00    +0.009 C 
ATOM     32  C   UNL     1      -6.239  -7.993   3.604  0.00  0.00    +0.002 C 
ATOM     33  C   UNL     1      -6.818  -8.580   2.312  0.00  0.00    +0.112 C 
ATOM     34  C   UNL     1      -7.369  -7.389   4.441  0.00  0.00    +0.009 C 
ATOM     35  C   UNL     1      -3.405  -8.575   3.232  0.00  0.00    +0.009 C 
ENDBRANCH  25  28
ENDBRANCH  22  25
ENDBRANCH   1  19
TORSDOF 8
