REMARK  Name = ZINC22074130
REMARK  13 active torsions:
REMARK  status: ('A' for Active; 'I' for Inactive)
REMARK    1  A    between atoms: C_1  and  C_2
REMARK    2  A    between atoms: C_2  and  O_3
REMARK    3  A    between atoms: O_3  and  C_4
REMARK    4  A    between atoms: C_6  and  C_20
REMARK    5  A    between atoms: C_9  and  O_10
REMARK    6  A    between atoms: O_10  and  C_11
REMARK    7  A    between atoms: C_11  and  C_12
REMARK    8  A    between atoms: C_20  and  N_21
REMARK    9  A    between atoms: N_21  and  C_22
REMARK   10  A    between atoms: C_22  and  C_23
REMARK   11  A    between atoms: C_22  and  C_24
REMARK   12  A    between atoms: C_22  and  C_25
REMARK   13  A    between atoms: C_25  and  O_26
REMARK                            x       y       z     vdW  Elec       q    Type
REMARK                         _______ _______ _______ _____ _____    ______ ____
ROOT
ATOM      1  C   UNL     1       0.002  -0.004   0.002  0.00  0.00    +0.163 A 
ATOM      2  C   UNL     1      -0.017   1.382   0.010  0.00  0.00    +0.051 A 
ATOM      3  C   UNL     1       1.171   2.089   0.002  0.00  0.00    -0.060 A 
ATOM      4  C   UNL     1       2.379   1.418  -0.013  0.00  0.00    +0.021 A 
ATOM      5  C   UNL     1       2.405   0.035  -0.021  0.00  0.00    +0.063 A 
ATOM      6  C   UNL     1       1.218  -0.680  -0.013  0.00  0.00    +0.176 A 
ATOM      7 BR   UNL     1       4.060  -0.879  -0.041  0.00  0.00    -0.046 Br
ENDROOT
BRANCH   1   8
ATOM      8  O   UNL     1      -1.165  -0.701   0.009  0.00  0.00    -0.489 OA
BRANCH   8  10
ATOM      9  C   UNL     1      -3.575  -0.891   0.030  0.00  0.00    +0.048 C 
ATOM     10  C   UNL     1      -2.375   0.059   0.024  0.00  0.00    +0.226 C 
ENDBRANCH   8  10
ENDBRANCH   1   8
BRANCH   6  11
ATOM     11  O   UNL     1       1.241  -2.040  -0.021  0.00  0.00    -0.483 OA
BRANCH  11  12
ATOM     12  C   UNL     1       1.240  -2.682  -1.298  0.00  0.00    +0.264 C 
BRANCH  12  13
ATOM     13  C   UNL     1       1.268  -4.176  -1.109  0.00  0.00    -0.010 A 
ATOM     14  C   UNL     1       2.478  -4.842  -1.040  0.00  0.00    +0.008 A 
ATOM     15  C   UNL     1       2.504  -6.212  -0.861  0.00  0.00    +0.020 A 
ATOM     16  C   UNL     1       1.319  -6.919  -0.763  0.00  0.00    +0.041 A 
ATOM     17  C   UNL     1       0.108  -6.254  -0.839  0.00  0.00    +0.020 A 
ATOM     18  C   UNL     1       0.084  -4.883  -1.012  0.00  0.00    +0.008 A 
ATOM     19 CL   UNL     1       1.351  -8.641  -0.545  0.00  0.00    -0.084 Cl
ENDBRANCH  12  13
ENDBRANCH  11  12
ENDBRANCH   6  11
BRANCH   3  20
ATOM     20  C   UNL     1       1.148   3.596   0.010  0.00  0.00    -0.046 C 
BRANCH  20  21
ATOM     21  N   UNL     1       1.154   4.078   1.398  0.00  0.00    +0.387 N 
ATOM     22  H   UNL     1       0.266   3.695   1.923  0.00  0.00    -0.085 HD
ATOM     23  H   UNL     1       2.062   3.723   1.906  0.00  0.00    -0.085 HD
BRANCH  21  24
ATOM     24  C   UNL     1       1.132   5.546   1.445  0.00  0.00    -0.050 C 
ATOM     25  C   UNL     1       2.366   6.098   0.729  0.00  0.00    -0.008 C 
ATOM     26  C   UNL     1      -0.132   6.060   0.753  0.00  0.00    -0.008 C 
BRANCH  24  27
ATOM     27  C   UNL     1       1.139   6.010   2.903  0.00  0.00    +0.143 C 
BRANCH  27  28
ATOM     28  O   UNL     1       1.117   7.438   2.949  0.00  0.00    -0.396 OA
ATOM     29  H   UNL     1       1.118   7.957   3.919  0.00  0.00    +0.209 HD
ENDBRANCH  27  28
ENDBRANCH  24  27
ENDBRANCH  21  24
ENDBRANCH  20  21
ENDBRANCH   3  20
TORSDOF 10
