REMARK  Name = ZINC10001423
REMARK  12 active torsions:
REMARK  status: ('A' for Active; 'I' for Inactive)
REMARK    1  A    between atoms: C_1  and  C_2
REMARK    2  A    between atoms: C_2  and  C_3
REMARK    3  A    between atoms: C_2  and  C_4
REMARK    4  A    between atoms: C_4  and  C_6
REMARK    5  A    between atoms: C_4  and  N_27
REMARK    6  A    between atoms: N_8  and  N_9
REMARK    7  A    between atoms: C_10  and  C_11
REMARK    8  A    between atoms: C_16  and  O_17
REMARK    9  A    between atoms: O_17  and  C_18
REMARK   10  A    between atoms: C_18  and  C_19
REMARK   11  A    between atoms: C_24  and  C_25
REMARK   12  A    between atoms: C_28  and  C_30
REMARK                            x       y       z     vdW  Elec       q    Type
REMARK                         _______ _______ _______ _____ _____    ______ ____
ROOT
ATOM      1  C   UNL     1      -3.725   5.820  -1.537  0.00  0.00    +0.253 C 
ATOM      2  O   UNL     1      -2.979   6.766  -1.393  0.00  0.00    -0.272 OA
ATOM      3  N   UNL     1      -3.226   4.568  -1.575  0.00  0.00    -0.205 N 
ATOM      4  H   UNL     1      -3.812   3.818  -1.760  0.00  0.00    +0.177 HD
ENDROOT
BRANCH   3   5
ATOM      5  N   UNL     1      -1.860   4.351  -1.348  0.00  0.00    -0.188 NA
ATOM      6  C   UNL     1      -1.360   3.162  -1.488  0.00  0.00    +0.142 C 
BRANCH   6   7
ATOM      7  C   UNL     1       0.061   2.919  -1.182  0.00  0.00    +0.036 A 
ATOM      8  C   UNL     1       0.630   1.668  -1.432  0.00  0.00    +0.013 A 
ATOM      9  C   UNL     1       1.959   1.446  -1.138  0.00  0.00    +0.001 A 
ATOM     10  C   UNL     1       2.735   2.462  -0.607  0.00  0.00    +0.004 A 
ATOM     11  C   UNL     1       2.186   3.706  -0.360  0.00  0.00    +0.046 A 
ATOM     12  C   UNL     1       0.851   3.944  -0.644  0.00  0.00    +0.130 A 
BRANCH  12  13
ATOM     13  O   UNL     1       0.310   5.166  -0.401  0.00  0.00    -0.487 OA
BRANCH  13  14
ATOM     14  C   UNL     1       1.201   6.196   0.031  0.00  0.00    +0.265 C 
BRANCH  14  15
ATOM     15  C   UNL     1       0.411   7.432   0.377  0.00  0.00    +0.007 A 
ATOM     16  C   UNL     1      -0.968   7.400   0.353  0.00  0.00    +0.008 A 
ATOM     17  C   UNL     1      -1.695   8.532   0.674  0.00  0.00    +0.000 A 
ATOM     18  C   UNL     1      -1.046   9.707   1.011  0.00  0.00    +0.001 A 
ATOM     19  C   UNL     1       0.332   9.754   1.034  0.00  0.00    +0.019 A 
ATOM     20  C   UNL     1       1.073   8.613   0.716  0.00  0.00    +0.058 A 
BRANCH  20  21
ATOM     21  C   UNL     1       2.504   8.655   0.737  0.00  0.00    +0.100 C 
ATOM     22  N   UNL     1       3.639   8.689   0.754  0.00  0.00    -0.191 NA
ENDBRANCH  20  21
ENDBRANCH  14  15
ENDBRANCH  13  14
ENDBRANCH  12  13
ENDBRANCH   6   7
ENDBRANCH   3   5
BRANCH   1  23
ATOM     23  C   UNL     1      -5.209   6.043  -1.673  0.00  0.00    +0.163 C 
BRANCH  23  24
ATOM     24  N   UNL     1      -5.459   7.431  -2.071  0.00  0.00    -0.300 N 
ATOM     25  C   UNL     1      -6.591   7.750  -2.728  0.00  0.00    +0.245 C 
ATOM     26  O   UNL     1      -7.405   6.886  -2.991  0.00  0.00    -0.270 OA
ATOM     27  H   UNL     1      -4.809   8.120  -1.861  0.00  0.00    +0.150 HD
BRANCH  25  28
ATOM     28  C   UNL     1      -6.843   9.149  -3.129  0.00  0.00    +0.037 A 
ATOM     29  C   UNL     1      -5.913  10.144  -2.823  0.00  0.00    +0.016 A 
ATOM     30  C   UNL     1      -6.150  11.447  -3.206  0.00  0.00    +0.039 A 
ATOM     31  C   UNL     1      -7.316  11.773  -3.882  0.00  0.00    +0.123 A 
ATOM     32  C   UNL     1      -8.246  10.790  -4.183  0.00  0.00    +0.039 A 
ATOM     33  C   UNL     1      -8.016   9.482  -3.811  0.00  0.00    +0.016 A 
ATOM     34  F   UNL     1      -7.546  13.052  -4.249  0.00  0.00    -0.205 F 
ENDBRANCH  25  28
ENDBRANCH  23  24
BRANCH  23  36
ATOM     35  C   UNL     1      -7.405   5.928  -0.487  0.00  0.00    +0.009 C 
ATOM     36  C   UNL     1      -5.891   5.766  -0.332  0.00  0.00    +0.012 C 
ATOM     37  C   UNL     1      -5.574   4.338   0.116  0.00  0.00    +0.009 C 
ENDBRANCH  23  36
ENDBRANCH   1  23
TORSDOF 10
