REMARK  Name = ZINC66643273
REMARK  3 active torsions:
REMARK  status: ('A' for Active; 'I' for Inactive)
REMARK    1  A    between atoms: C_13  and  C_16
REMARK    2  A    between atoms: C_23  and  C_25
REMARK    3  A    between atoms: C_25  and  C_26
REMARK                            x       y       z     vdW  Elec       q    Type
REMARK                         _______ _______ _______ _____ _____    ______ ____
ROOT
ATOM      1  C   UNL     1      -1.532   0.386  -0.501  0.00  0.00    +0.002 A 
ATOM      2  C   UNL     1      -0.604   1.382  -0.230  0.00  0.00    +0.001 A 
ATOM      3  C   UNL     1       0.714   1.034   0.003  0.00  0.00    +0.017 A 
ATOM      4  C   UNL     1       1.083  -0.287  -0.037  0.00  0.00    +0.041 A 
ATOM      5  C   UNL     1       0.167  -1.328  -0.310  0.00  0.00    +0.080 A 
ATOM      6  C   UNL     1      -1.171  -0.936  -0.543  0.00  0.00    +0.029 A 
ATOM      7  N   UNL     1       0.683  -2.576  -0.315  0.00  0.00    -0.225 NA
ATOM      8  C   UNL     1       1.954  -2.815  -0.083  0.00  0.00    +0.162 A 
ATOM      9  S   UNL     1       2.606  -1.174   0.189  0.00  0.00    -0.052 S 
ATOM     10  N   UNL     1       2.616  -4.026  -0.055  0.00  0.00    -0.310 N 
ATOM     11  C   UNL     1       1.895  -5.279  -0.314  0.00  0.00    +0.108 C 
ATOM     12  C   UNL     1       2.152  -6.244   0.848  0.00  0.00    +0.032 C 
ATOM     13  C   UNL     1       3.660  -6.415   1.041  0.00  0.00    +0.078 C 
ATOM     14  C   UNL     1       4.288  -5.063   1.388  0.00  0.00    +0.032 C 
ATOM     15  C   UNL     1       4.057  -4.084   0.227  0.00  0.00    +0.108 C 
ENDROOT
BRANCH  13  16
ATOM     16  C   UNL     1       3.916  -7.389   2.162  0.00  0.00    +0.219 C 
ATOM     17  O   UNL     1       3.087  -7.543   3.033  0.00  0.00    -0.275 OA
ATOM     18  N   UNL     1       5.067  -8.091   2.195  0.00  0.00    -0.298 N 
ATOM     19  C   UNL     1       6.146  -7.805   1.240  0.00  0.00    +0.108 C 
ATOM     20  C   UNL     1       7.440  -7.550   2.019  0.00  0.00    +0.019 C 
ATOM     21  C   UNL     1       7.716  -8.739   2.942  0.00  0.00    +0.003 C 
ATOM     22  C   UNL     1       6.570  -8.886   3.945  0.00  0.00    +0.023 C 
ATOM     23  C   UNL     1       5.268  -9.151   3.192  0.00  0.00    +0.085 C 
BRANCH  23  24
ATOM     24  C   UNL     1       4.099  -9.157   4.178  0.00  0.00    +0.118 C 
BRANCH  24  25
ATOM     25  C   UNL     1       2.866  -9.687   3.493  0.00  0.00    +0.212 C 
ATOM     26  O   UNL     1       2.917 -10.028   2.330  0.00  0.00    -0.276 OA
ATOM     27  N   UNL     1       1.706  -9.784   4.172  0.00  0.00    -0.329 N 
ATOM     28  H   UNL     1       1.665  -9.512   5.103  0.00  0.00    +0.145 HD
ATOM     29  H   UNL     1       0.912 -10.126   3.731  0.00  0.00    +0.145 HD
ENDBRANCH  24  25
ENDBRANCH  23  24
ENDBRANCH  13  16
TORSDOF 3
