REMARK  Name = ZINC59224341
REMARK  6 active torsions:
REMARK  status: ('A' for Active; 'I' for Inactive)
REMARK    1  A    between atoms: C_1  and  C_2
REMARK    2  A    between atoms: C_7  and  N_8
REMARK    3  A    between atoms: C_14  and  C_15
REMARK    4  A    between atoms: C_19  and  O_21
REMARK    5  A    between atoms: O_21  and  C_22
REMARK    6  A    between atoms: C_22  and  C_23
REMARK                            x       y       z     vdW  Elec       q    Type
REMARK                         _______ _______ _______ _____ _____    ______ ____
ROOT
ATOM      1  N   UNL     1       1.369  -0.233   2.383  0.00  0.00    -0.225 NA
ATOM      2  C   UNL     1       0.941  -0.816   3.480  0.00  0.00    +0.166 C 
ATOM      3  N   UNL     1       0.601  -2.137   3.671  0.00  0.00    -0.260 N 
ATOM      4  C   UNL     1       0.185  -2.562   4.852  0.00  0.00    +0.256 C 
ATOM      5  O   UNL     1      -0.120  -3.726   5.038  0.00  0.00    -0.269 OA
ATOM      6  C   UNL     1       0.107  -1.560   5.934  0.00  0.00    +0.078 C 
ATOM      7  C   UNL     1      -0.280  -1.715   7.225  0.00  0.00    +0.028 C 
ATOM      8  S   UNL     1       0.668  -0.089   5.088  0.00  0.00    -0.049 S 
ATOM      9  H   UNL     1       0.667  -2.762   2.932  0.00  0.00    +0.157 HD
ENDROOT
BRANCH   1  16
ATOM     10  C   UNL     1       3.679   0.076   0.758  0.00  0.00    +0.046 C 
ATOM     11  C   UNL     1       2.532  -0.822   0.372  0.00  0.00    -0.025 A 
ATOM     12  C   UNL     1       2.581  -1.538  -0.806  0.00  0.00    +0.007 A 
ATOM     13  C   UNL     1       1.530  -2.364  -1.161  0.00  0.00    +0.020 A 
ATOM     14  C   UNL     1       0.421  -2.478  -0.339  0.00  0.00    +0.043 A 
ATOM     15  C   UNL     1       0.359  -1.767   0.843  0.00  0.00    +0.048 A 
ATOM     16  C   UNL     1       1.420  -0.936   1.210  0.00  0.00    +0.071 A 
ATOM     17 CL   UNL     1      -0.893  -3.516  -0.795  0.00  0.00    -0.083 Cl
ENDBRANCH   1  16
BRANCH   7  18
ATOM     18  C   UNL     1      -0.455  -0.537   8.086  0.00  0.00    -0.020 A 
ATOM     19  C   UNL     1      -0.427   0.749   7.534  0.00  0.00    +0.008 A 
ATOM     20  C   UNL     1      -0.592   1.850   8.346  0.00  0.00    +0.004 A 
ATOM     21  C   UNL     1      -0.786   1.690   9.707  0.00  0.00    +0.046 A 
ATOM     22  C   UNL     1      -0.816   0.419  10.265  0.00  0.00    +0.122 A 
ATOM     23  C   UNL     1      -0.657  -0.696   9.461  0.00  0.00    +0.053 A 
BRANCH  22  24
ATOM     24  O   UNL     1      -1.007   0.269  11.603  0.00  0.00    -0.487 OA
BRANCH  24  25
ATOM     25  C   UNL     1      -1.169   1.462  12.372  0.00  0.00    +0.264 C 
BRANCH  25  26
ATOM     26  C   UNL     1      -1.367   1.102  13.822  0.00  0.00    -0.010 A 
ATOM     27  C   UNL     1      -2.641   0.883  14.311  0.00  0.00    +0.008 A 
ATOM     28  C   UNL     1      -2.824   0.552  15.641  0.00  0.00    +0.015 A 
ATOM     29  C   UNL     1      -1.731   0.440  16.482  0.00  0.00    +0.018 A 
ATOM     30  C   UNL     1      -0.456   0.660  15.992  0.00  0.00    +0.015 A 
ATOM     31  C   UNL     1      -0.275   0.986  14.661  0.00  0.00    +0.008 A 
ATOM     32 BR   UNL     1      -1.980  -0.012  18.301  0.00  0.00    -0.050 Br
ENDBRANCH  25  26
ENDBRANCH  24  25
ENDBRANCH  22  24
ENDBRANCH   7  18
TORSDOF 5
