REMARK  Name = ZINC15226014
REMARK  7 active torsions:
REMARK  status: ('A' for Active; 'I' for Inactive)
REMARK    1  A    between atoms: C_1  and  O_2
REMARK    2  A    between atoms: O_2  and  C_3
REMARK    3  A    between atoms: N_13  and  N_14
REMARK    4  A    between atoms: C_15  and  C_17
REMARK    5  A    between atoms: C_17  and  N_18
REMARK    6  A    between atoms: N_18  and  S_19
REMARK    7  A    between atoms: S_19  and  C_22
REMARK                            x       y       z     vdW  Elec       q    Type
REMARK                         _______ _______ _______ _____ _____    ______ ____
ROOT
ATOM      1  N   UNL     1       3.431  -2.448  -6.501  0.00  0.00    -0.206 N 
ATOM      2  C   UNL     1       3.779  -1.741  -7.595  0.00  0.00    +0.248 C 
ATOM      3  O   UNL     1       3.558  -0.549  -7.641  0.00  0.00    -0.273 OA
ATOM      4  H   UNL     1       3.608  -3.401  -6.464  0.00  0.00    +0.177 HD
ENDROOT
BRANCH   1  15
ATOM      5  C   UNL     1       0.606  -0.607  -1.055  0.00  0.00    +0.120 A 
ATOM      6  C   UNL     1       1.172   0.166  -2.061  0.00  0.00    +0.046 A 
ATOM      7  C   UNL     1       1.782  -0.444  -3.135  0.00  0.00    +0.013 A 
ATOM      8  C   UNL     1       1.830  -1.838  -3.208  0.00  0.00    +0.001 A 
ATOM      9  C   UNL     1       1.265  -2.615  -2.196  0.00  0.00    -0.035 A 
ATOM     10  C   UNL     1       0.658  -1.992  -1.123  0.00  0.00    +0.050 A 
ATOM     11  C   UNL     1       1.311  -4.118  -2.238  0.00  0.00    +0.036 C 
ATOM     12  C   UNL     1       1.498  -4.628  -3.664  0.00  0.00    +0.011 C 
ATOM     13  C   UNL     1       2.744  -3.978  -4.279  0.00  0.00    +0.058 C 
ATOM     14  C   UNL     1       2.481  -2.488  -4.365  0.00  0.00    +0.067 C 
ATOM     15  N   UNL     1       2.816  -1.807  -5.418  0.00  0.00    -0.184 NA
BRANCH   5  17
ATOM     16  C   UNL     1      -0.017   1.425   0.010  0.00  0.00    +0.277 C 
ATOM     17  O   UNL     1       0.002  -0.004   0.002  0.00  0.00    -0.495 OA
ENDBRANCH   5  17
ENDBRANCH   1  15
BRANCH   2  18
ATOM     18  C   UNL     1       4.441  -2.431  -8.759  0.00  0.00    +0.203 C 
BRANCH  18  19
ATOM     19  N   UNL     1       4.716  -1.452  -9.814  0.00  0.00    -0.181 NA
ATOM     20  H   UNL     1       4.287  -0.582  -9.792  0.00  0.00    +0.149 HD
BRANCH  19  21
ATOM     21  S   UNL     1       5.758  -1.831 -11.044  0.00  0.00    +0.059 S 
ATOM     22  O   UNL     1       5.793  -0.704 -11.909  0.00  0.00    -0.153 OA
ATOM     23  O   UNL     1       6.928  -2.362 -10.436  0.00  0.00    -0.153 OA
BRANCH  21  24
ATOM     24  C   UNL     1       5.026  -3.146 -11.961  0.00  0.00    +0.105 A 
ATOM     25  C   UNL     1       5.280  -4.458 -11.609  0.00  0.00    +0.030 A 
ATOM     26  C   UNL     1       4.706  -5.490 -12.328  0.00  0.00    +0.022 A 
ATOM     27  C   UNL     1       3.877  -5.209 -13.399  0.00  0.00    +0.041 A 
ATOM     28  C   UNL     1       3.623  -3.895 -13.751  0.00  0.00    +0.022 A 
ATOM     29  C   UNL     1       4.193  -2.864 -13.028  0.00  0.00    +0.030 A 
ATOM     30 CL   UNL     1       3.156  -6.504 -14.303  0.00  0.00    -0.084 Cl
ENDBRANCH  21  24
ENDBRANCH  19  21
ENDBRANCH  18  19
ENDBRANCH   2  18
TORSDOF 6
