REMARK  Name = ZINC21531640
REMARK  5 active torsions:
REMARK  status: ('A' for Active; 'I' for Inactive)
REMARK    1  A    between atoms: C_4  and  C_7
REMARK    2  A    between atoms: C_7  and  N_8
REMARK    3  A    between atoms: C_23  and  C_24
REMARK    4  A    between atoms: C_24  and  N_25
REMARK    5  A    between atoms: N_28  and  C_31
REMARK                            x       y       z     vdW  Elec       q    Type
REMARK                         _______ _______ _______ _____ _____    ______ ____
ROOT
ATOM      1  N   UNL     1       0.022  -0.501   1.384  0.00  0.00    -0.295 NA
ATOM      2  C   UNL     1       1.279  -0.141   2.055  0.00  0.00    +0.103 C 
ATOM      3  C   UNL     1       1.227  -0.606   3.513  0.00  0.00    +0.122 C 
ATOM      4  N   UNL     1       1.009  -2.059   3.553  0.00  0.00    -0.306 N 
ATOM      5  C   UNL     1      -0.248  -2.419   2.882  0.00  0.00    +0.122 C 
ATOM      6  C   UNL     1      -0.196  -1.954   1.425  0.00  0.00    +0.103 C 
ATOM      7  C   UNL     1       1.028  -2.529   4.859  0.00  0.00    +0.186 A 
ATOM      8  N   UNL     1       0.113  -3.210   5.533  0.00  0.00    -0.124 NA
ATOM      9  N   UNL     1       0.293  -3.567   6.729  0.00  0.00    -0.121 NA
ATOM     10  C   UNL     1       1.402  -3.274   7.388  0.00  0.00    +0.202 A 
ATOM     11  S   UNL     1       2.293  -2.381   6.118  0.00  0.00    -0.013 S 
ATOM     12  N   UNL     1       1.772  -3.576   8.700  0.00  0.00    -0.300 N 
ATOM     13  C   UNL     1       2.953  -3.231   9.294  0.00  0.00    +0.093 A 
ATOM     14  C   UNL     1       2.938  -3.695  10.561  0.00  0.00    +0.020 A 
ATOM     15  C   UNL     1       1.709  -4.357  10.755  0.00  0.00    +0.021 A 
ATOM     16  C   UNL     1       1.015  -4.270   9.601  0.00  0.00    +0.009 A 
ENDROOT
BRANCH   1  17
ATOM     17  C   UNL     1       0.002  -0.004   0.002  0.00  0.00    +0.119 C 
BRANCH  17  21
ATOM     18  C   UNL     1      -0.056   4.267   0.025  0.00  0.00    +0.000 A 
ATOM     19  C   UNL     1       1.151   3.592   0.010  0.00  0.00    +0.000 A 
ATOM     20  C   UNL     1       1.169   2.210   0.003  0.00  0.00    +0.005 A 
ATOM     21  C   UNL     1      -0.018   1.503   0.010  0.00  0.00    -0.033 A 
ATOM     22  C   UNL     1      -1.225   2.178   0.020  0.00  0.00    +0.005 A 
ATOM     23  C   UNL     1      -1.244   3.560   0.032  0.00  0.00    +0.000 A 
ENDBRANCH  17  21
ENDBRANCH   1  17
BRANCH  16  24
ATOM     24  C   UNL     1      -0.357  -4.839   9.351  0.00  0.00    -0.024 C 
BRANCH  24  25
ATOM     25  N   UNL     1      -1.369  -3.801   9.588  0.00  0.00    +0.385 N 
ATOM     26  C   UNL     1      -1.407  -3.417  11.006  0.00  0.00    -0.059 C 
ATOM     27  C   UNL     1      -2.414  -2.281  11.197  0.00  0.00    +0.086 C 
ATOM     28  N   UNL     1      -3.739  -2.722  10.738  0.00  0.00    -0.333 N 
ATOM     29  C   UNL     1      -3.701  -3.106   9.320  0.00  0.00    +0.086 C 
ATOM     30  C   UNL     1      -2.694  -4.242   9.129  0.00  0.00    -0.059 C 
ATOM     31  H   UNL     1      -1.085  -2.914   9.003  0.00  0.00    -0.081 HD
BRANCH  28  32
ATOM     32  C   UNL     1      -4.702  -1.733  10.964  0.00  0.00    +0.030 A 
ATOM     33  C   UNL     1      -5.462  -1.248   9.908  0.00  0.00    +0.026 A 
ATOM     34  C   UNL     1      -6.415  -0.275  10.134  0.00  0.00    +0.040 A 
ATOM     35  C   UNL     1      -6.608   0.224  11.411  0.00  0.00    +0.124 A 
ATOM     36  C   UNL     1      -5.848  -0.255  12.465  0.00  0.00    +0.040 A 
ATOM     37  C   UNL     1      -4.896  -1.232  12.245  0.00  0.00    +0.026 A 
ATOM     38  F   UNL     1      -7.538   1.178  11.630  0.00  0.00    -0.205 F 
ENDBRANCH  28  32
ENDBRANCH  24  25
ENDBRANCH  16  24
TORSDOF 5
