REMARK  Name = ZINC12568274
REMARK  8 active torsions:
REMARK  status: ('A' for Active; 'I' for Inactive)
REMARK    1  A    between atoms: C_6  and  C_7
REMARK    2  A    between atoms: C_7  and  C_8
REMARK    3  A    between atoms: C_7  and  N_15
REMARK    4  A    between atoms: C_21  and  C_23
REMARK    5  A    between atoms: C_23  and  C_24
REMARK    6  A    between atoms: C_24  and  C_25
REMARK    7  A    between atoms: C_25  and  C_26
REMARK    8  A    between atoms: C_26  and  C_27
REMARK                            x       y       z     vdW  Elec       q    Type
REMARK                         _______ _______ _______ _____ _____    ______ ____
ROOT
ATOM      1  N   UNL     1      -5.567  10.445  -6.643  0.00  0.00    -0.289 NA
ATOM      2  C   UNL     1      -5.397   9.219  -7.435  0.00  0.00    +0.104 C 
ATOM      3  C   UNL     1      -5.642   8.000  -6.540  0.00  0.00    +0.123 C 
ATOM      4  N   UNL     1      -4.771   8.104  -5.359  0.00  0.00    -0.299 N 
ATOM      5  C   UNL     1      -4.789   9.356  -4.589  0.00  0.00    +0.123 C 
ATOM      6  C   UNL     1      -4.573  10.525  -5.564  0.00  0.00    +0.104 C 
ATOM      7  C   UNL     1      -3.981   7.076  -4.990  0.00  0.00    +0.216 C 
ATOM      8  O   UNL     1      -3.982   6.048  -5.634  0.00  0.00    -0.276 OA
ENDROOT
BRANCH   1   9
ATOM      9  C   UNL     1      -5.510  11.637  -7.500  0.00  0.00    +0.117 C 
BRANCH   9  15
ATOM     10  C   UNL     1      -7.916  11.242  -8.063  0.00  0.00    +0.008 A 
ATOM     11  C   UNL     1      -8.963  11.215  -8.965  0.00  0.00    +0.038 A 
ATOM     12  C   UNL     1      -8.742  11.538 -10.293  0.00  0.00    +0.123 A 
ATOM     13  C   UNL     1      -7.472  11.893 -10.715  0.00  0.00    +0.038 A 
ATOM     14  C   UNL     1      -6.427  11.925  -9.811  0.00  0.00    +0.008 A 
ATOM     15  C   UNL     1      -6.650  11.602  -8.485  0.00  0.00    -0.026 A 
ATOM     16  F   UNL     1      -9.764  11.507 -11.176  0.00  0.00    -0.205 F 
ENDBRANCH   9  15
BRANCH   9  17
ATOM     17  C   UNL     1      -5.620  12.875  -6.647  0.00  0.00    -0.026 A 
ATOM     18  C   UNL     1      -6.578  12.945  -5.653  0.00  0.00    +0.008 A 
ATOM     19  C   UNL     1      -6.677  14.077  -4.867  0.00  0.00    +0.038 A 
ATOM     20  C   UNL     1      -5.823  15.146  -5.083  0.00  0.00    +0.123 A 
ATOM     21  C   UNL     1      -4.868  15.077  -6.083  0.00  0.00    +0.038 A 
ATOM     22  C   UNL     1      -4.768  13.941  -6.864  0.00  0.00    +0.008 A 
ATOM     23  F   UNL     1      -5.922  16.256  -4.319  0.00  0.00    -0.205 F 
ENDBRANCH   9  17
ENDBRANCH   1   9
BRANCH   7  24
ATOM     24  C   UNL     1      -3.096   7.204  -3.777  0.00  0.00    +0.096 C 
BRANCH  24  25
ATOM     25  C   UNL     1      -2.309   5.906  -3.581  0.00  0.00    +0.009 C 
BRANCH  25  26
ATOM     26  C   UNL     1      -1.411   6.036  -2.349  0.00  0.00    +0.002 C 
BRANCH  26  27
ATOM     27  C   UNL     1      -0.624   4.739  -2.153  0.00  0.00    +0.016 C 
BRANCH  27  28
ATOM     28  C   UNL     1       0.275   4.869  -0.921  0.00  0.00    +0.069 C 
ATOM     29  C   UNL     1       1.119   3.636  -0.712  0.00  0.00    +0.108 C 
ATOM     30  C   UNL     1       2.358   3.719  -1.656  0.00  0.00    +0.105 C 
ATOM     31  C   UNL     1       3.072   5.007  -1.256  0.00  0.00    +0.093 C 
ATOM     32  S   UNL     1       1.600   6.136  -1.190  0.00  0.00    -0.154 S 
ATOM     33  N   UNL     1       2.926   2.412  -1.412  0.00  0.00    -0.294 N 
ATOM     34  C   UNL     1       1.860   1.591  -1.173  0.00  0.00    +0.300 C 
ATOM     35  O   UNL     1       1.931   0.377  -1.174  0.00  0.00    -0.253 OA
ATOM     36  N   UNL     1       0.703   2.282  -0.939  0.00  0.00    -0.294 N 
ATOM     37  H   UNL     1       4.016   2.271  -1.448  0.00  0.00    +0.151 HD
ATOM     38  H   UNL     1      -0.365   2.021  -0.897  0.00  0.00    +0.151 HD
ENDBRANCH  27  28
ENDBRANCH  26  27
ENDBRANCH  25  26
ENDBRANCH  24  25
ENDBRANCH   7  24
TORSDOF 8
