REMARK  Name = ZINC36007584
REMARK  9 active torsions:
REMARK  status: ('A' for Active; 'I' for Inactive)
REMARK    1  A    between atoms: C_1  and  C_2
REMARK    2  A    between atoms: C_7  and  C_8
REMARK    3  A    between atoms: C_7  and  C_9
REMARK    4  A    between atoms: C_11  and  N_13
REMARK    5  A    between atoms: C_14  and  C_16
REMARK    6  A    between atoms: C_16  and  O_17
REMARK    7  A    between atoms: O_17  and  C_18
REMARK    8  A    between atoms: C_18  and  C_20
REMARK    9  A    between atoms: C_22  and  N_28
REMARK                            x       y       z     vdW  Elec       q    Type
REMARK                         _______ _______ _______ _____ _____    ______ ____
ROOT
ATOM      1  C   UNL     1      -4.509   0.608   1.851  0.00  0.00    +0.328 C 
ENDROOT
BRANCH   1   3
ATOM      2  N   UNL     1      -2.268  -0.017   1.012  0.00  0.00    -0.309 N 
ATOM      3  C   UNL     1      -3.606  -0.100   0.874  0.00  0.00    +0.251 C 
ATOM      4  O   UNL     1      -4.083  -0.745  -0.035  0.00  0.00    -0.272 OA
ATOM      5  H   UNL     1      -1.886   0.499   1.739  0.00  0.00    +0.149 HD
BRANCH   2  15
ATOM      6  C   UNL     1      -0.019   1.526   0.010  0.00  0.00    +0.013 C 
ATOM      7  C   UNL     1       0.002  -0.004   0.002  0.00  0.00    -0.008 C 
ATOM      8  C   UNL     1       0.744  -0.669  -1.197  0.00  0.00    +0.009 C 
ATOM      9  C   UNL     1       1.062  -2.103  -0.714  0.00  0.00    +0.005 C 
ATOM     10  C   UNL     1       0.481  -2.169   0.732  0.00  0.00    -0.003 C 
ATOM     11  C   UNL     1       0.727  -0.695   1.211  0.00  0.00    -0.025 C 
ATOM     12  C   UNL     1       0.031  -0.400   2.541  0.00  0.00    +0.012 C 
ATOM     13  C   UNL     1       2.216  -0.348   1.260  0.00  0.00    +0.012 C 
ATOM     14  C   UNL     1      -1.065  -2.175   0.532  0.00  0.00    +0.027 C 
ATOM     15  C   UNL     1      -1.389  -0.705   0.062  0.00  0.00    +0.080 C 
ENDBRANCH   2  15
ENDBRANCH   1   3
BRANCH   1  16
ATOM     16  O   UNL     1      -5.873   0.370   1.497  0.00  0.00    -0.451 OA
BRANCH  16  17
ATOM     17  C   UNL     1      -6.814   0.937   2.276  0.00  0.00    +0.360 C 
ATOM     18  O   UNL     1      -6.487   1.615   3.229  0.00  0.00    -0.243 OA
BRANCH  17  19
ATOM     19  C   UNL     1      -8.247   0.735   1.970  0.00  0.00    +0.169 A 
ATOM     20  C   UNL     1      -9.215   1.328   2.776  0.00  0.00    +0.095 A 
ATOM     21  C   UNL     1     -10.563   1.127   2.473  0.00  0.00    +0.067 A 
ATOM     22  C   UNL     1     -10.883   0.337   1.371  0.00  0.00    +0.100 A 
ATOM     23  C   UNL     1      -9.861  -0.220   0.617  0.00  0.00    +0.150 A 
ATOM     24  N   UNL     1      -8.599  -0.008   0.925  0.00  0.00    -0.226 NA
ATOM     25 CL   UNL     1     -10.253  -1.206  -0.757  0.00  0.00    -0.060 Cl
ATOM     26 CL   UNL     1     -12.542   0.052   0.948  0.00  0.00    -0.078 Cl
ATOM     27 CL   UNL     1      -8.753   2.303   4.136  0.00  0.00    -0.079 Cl
BRANCH  21  28
ATOM     28  N   UNL     1     -11.563   1.703   3.254  0.00  0.00    -0.356 N 
ATOM     29  H   UNL     1     -11.327   2.251   4.019  0.00  0.00    +0.142 HD
ATOM     30  H   UNL     1     -12.496   1.556   3.033  0.00  0.00    +0.142 HD
ENDBRANCH  21  28
ENDBRANCH  17  19
ENDBRANCH  16  17
ENDBRANCH   1  16
TORSDOF 6
