REMARK  Name = ZINC38677954
REMARK  6 active torsions:
REMARK  status: ('A' for Active; 'I' for Inactive)
REMARK    1  A    between atoms: C_3  and  C_8
REMARK    2  A    between atoms: C_13  and  O_22
REMARK    3  A    between atoms: C_17  and  N_21
REMARK    4  A    between atoms: C_18  and  C_19
REMARK    5  A    between atoms: O_22  and  C_23
REMARK    6  A    between atoms: C_23  and  C_25
REMARK                            x       y       z     vdW  Elec       q    Type
REMARK                         _______ _______ _______ _____ _____    ______ ____
ROOT
ATOM      1  C   UNL     1       3.723   2.171   0.014  0.00  0.00    +0.098 C 
ATOM      2  C   UNL     1       4.487   1.835  -1.239  0.00  0.00    +0.008 A 
ATOM      3  C   UNL     1       4.037   2.308  -2.459  0.00  0.00    +0.012 A 
ATOM      4  C   UNL     1       4.725   2.009  -3.618  0.00  0.00    +0.047 A 
ATOM      5  C   UNL     1       5.874   1.231  -3.562  0.00  0.00    +0.135 A 
ATOM      6  C   UNL     1       6.327   0.756  -2.342  0.00  0.00    +0.093 A 
ATOM      7  C   UNL     1       5.633   1.057  -1.177  0.00  0.00    +0.138 A 
ATOM      8  O   UNL     1       6.090   0.584   0.008  0.00  0.00    -0.441 OA
ATOM      9  C   UNL     1       5.691   1.156   1.157  0.00  0.00    +0.199 C 
ATOM     10  C   UNL     1       4.578   1.919   1.224  0.00  0.00    +0.098 C 
ENDROOT
BRANCH   1  13
ATOM     11  C   UNL     1       0.100   1.121   0.185  0.00  0.00    +0.003 A 
ATOM     12  C   UNL     1       1.237   1.906   0.116  0.00  0.00    +0.005 A 
ATOM     13  C   UNL     1       2.486   1.315   0.089  0.00  0.00    -0.032 A 
ATOM     14  C   UNL     1       2.600  -0.062   0.132  0.00  0.00    +0.043 A 
ATOM     15  C   UNL     1       1.463  -0.849   0.201  0.00  0.00    +0.124 A 
ATOM     16  C   UNL     1       0.212  -0.255   0.228  0.00  0.00    +0.038 A 
ATOM     17  F   UNL     1       1.574  -2.195   0.242  0.00  0.00    -0.205 F 
ENDBRANCH   1  13
BRANCH   9  18
ATOM     18  N   UNL     1       6.435   0.959   2.293  0.00  0.00    -0.328 N 
ATOM     19  H   UNL     1       7.236   0.413   2.259  0.00  0.00    +0.145 HD
ATOM     20  H   UNL     1       6.160   1.366   3.130  0.00  0.00    +0.145 HD
ENDBRANCH   9  18
BRANCH  10  21
ATOM     21  C   UNL     1       4.206   2.500   2.479  0.00  0.00    +0.101 C 
ATOM     22  N   UNL     1       3.911   2.961   3.475  0.00  0.00    -0.191 NA
ENDBRANCH  10  21
BRANCH   5  23
ATOM     23  O   UNL     1       6.553   0.937  -4.702  0.00  0.00    -0.422 OA
BRANCH  23  24
ATOM     24  C   UNL     1       6.533  -0.339  -5.139  0.00  0.00    +0.351 C 
ATOM     25  O   UNL     1       5.837  -1.164  -4.578  0.00  0.00    -0.244 OA
BRANCH  24  26
ATOM     26  C   UNL     1       7.350  -0.731  -6.289  0.00  0.00    +0.097 A 
ATOM     27  C   UNL     1       7.468  -1.974  -6.894  0.00  0.00    +0.022 A 
ATOM     28  C   UNL     1       8.322  -2.036  -7.969  0.00  0.00    +0.008 A 
ATOM     29  C   UNL     1       8.975  -0.912  -8.358  0.00  0.00    +0.046 A 
ATOM     30  S   UNL     1       8.445   0.265  -7.282  0.00  0.00    -0.090 S 
ENDBRANCH  24  26
ENDBRANCH  23  24
ENDBRANCH   5  23
TORSDOF 6
