REMARK  Name = ZINC39609375
REMARK  8 active torsions:
REMARK  status: ('A' for Active; 'I' for Inactive)
REMARK    1  A    between atoms: C_1  and  C_2
REMARK    2  A    between atoms: C_5  and  C_9
REMARK    3  A    between atoms: C_7  and  C_8
REMARK    4  A    between atoms: C_9  and  C_10
REMARK    5  A    between atoms: C_10  and  N_11
REMARK    6  A    between atoms: C_12  and  C_14
REMARK    7  A    between atoms: C_25  and  C_27
REMARK    8  A    between atoms: C_28  and  C_32
REMARK                            x       y       z     vdW  Elec       q    Type
REMARK                         _______ _______ _______ _____ _____    ______ ____
ROOT
ATOM      1  C   UNL     1       2.713  -8.386  -0.061  0.00  0.00    +0.100 C 
ATOM      2  C   UNL     1       1.954  -8.943  -1.286  0.00  0.00    +0.121 C 
ATOM      3  N   UNL     1       3.002  -9.162  -2.309  0.00  0.00    -0.296 N 
ATOM      4  C   UNL     1       4.158  -9.691  -1.546  0.00  0.00    +0.115 C 
ATOM      5  C   UNL     1       4.159  -8.882  -0.234  0.00  0.00    -0.004 C 
ATOM      6  C   UNL     1       5.114  -7.697  -0.346  0.00  0.00    -0.010 C 
ATOM      7  C   UNL     1       6.550  -8.215  -0.460  0.00  0.00    -0.082 C 
ATOM      8  N   UNL     1       6.877  -9.022   0.722  0.00  0.00    +0.379 N 
ATOM      9  C   UNL     1       6.015 -10.209   0.771  0.00  0.00    -0.082 C 
ATOM     10  C   UNL     1       4.555  -9.775   0.937  0.00  0.00    -0.010 C 
ATOM     11  C   UNL     1       2.924  -8.931  -3.635  0.00  0.00    +0.254 C 
ATOM     12  O   UNL     1       1.935  -8.396  -4.102  0.00  0.00    -0.269 OA
ATOM     13  H   UNL     1       7.842  -9.311   0.673  0.00  0.00    -0.086 HD
ATOM     14  H   UNL     1       6.735  -8.470   1.554  0.00  0.00    -0.086 HD
ENDROOT
BRANCH  11  15
ATOM     15  C   UNL     1       4.028  -9.325  -4.514  0.00  0.00    +0.077 A 
ATOM     16  C   UNL     1       4.193  -9.088  -5.870  0.00  0.00    -0.031 A 
ATOM     17  C   UNL     1       5.346  -9.586  -6.428  0.00  0.00    +0.011 A 
ATOM     18  C   UNL     1       6.222 -10.258  -5.640  0.00  0.00    +0.046 A 
ATOM     19  S   UNL     1       5.513 -10.229  -4.117  0.00  0.00    -0.092 S 
ATOM     20  C   UNL     1       3.173  -8.331  -6.681  0.00  0.00    +0.045 C 
ENDBRANCH  11  15
BRANCH   1  22
ATOM     21  N   UNL     1       2.693  -6.207   1.109  0.00  0.00    -0.315 N 
ATOM     22  C   UNL     1       2.672  -6.880  -0.058  0.00  0.00    +0.218 C 
ATOM     23  O   UNL     1       2.620  -6.273  -1.107  0.00  0.00    -0.275 OA
ATOM     24  H   UNL     1       2.734  -6.692   1.948  0.00  0.00    +0.149 HD
BRANCH  21  25
ATOM     25  C   UNL     1       2.652  -4.743   1.112  0.00  0.00    +0.109 C 
BRANCH  25  26
ATOM     26  C   UNL     1       2.687  -4.234   2.554  0.00  0.00    +0.054 C 
BRANCH  26  31
ATOM     27  C   UNL     1       2.527   1.543   2.567  0.00  0.00    +0.044 C 
ATOM     28  C   UNL     1       2.569   0.036   2.563  0.00  0.00    -0.048 A 
ATOM     29  C   UNL     1       1.392  -0.688   2.601  0.00  0.00    +0.004 A 
ATOM     30  C   UNL     1       1.430  -2.069   2.598  0.00  0.00    +0.004 A 
ATOM     31  C   UNL     1       2.645  -2.727   2.557  0.00  0.00    -0.046 A 
ATOM     32  C   UNL     1       3.822  -2.004   2.518  0.00  0.00    +0.007 A 
ATOM     33  C   UNL     1       3.784  -0.622   2.517  0.00  0.00    -0.047 A 
ATOM     34  C   UNL     1       5.067   0.168   2.469  0.00  0.00    +0.044 C 
ENDBRANCH  26  31
ENDBRANCH  25  26
ENDBRANCH  21  25
ENDBRANCH   1  22
TORSDOF 5
