REMARK  Name = ZINC34761790
REMARK  11 active torsions:
REMARK  status: ('A' for Active; 'I' for Inactive)
REMARK    1  A    between atoms: C_1  and  C_2
REMARK    2  A    between atoms: C_2  and  C_3
REMARK    3  A    between atoms: C_4  and  C_36
REMARK    4  A    between atoms: C_8  and  N_21
REMARK    5  A    between atoms: C_10  and  S_12
REMARK    6  A    between atoms: S_12  and  C_13
REMARK    7  A    between atoms: C_13  and  C_14
REMARK    8  A    between atoms: N_24  and  C_27
REMARK    9  A    between atoms: C_27  and  C_28
REMARK   10  A    between atoms: C_31  and  C_35
REMARK   11  A    between atoms: C_33  and  C_34
REMARK                            x       y       z     vdW  Elec       q    Type
REMARK                         _______ _______ _______ _____ _____    ______ ____
ROOT
ATOM      1  C   UNL     1      -2.812   1.878  -2.398  0.00  0.00    -0.025 A 
ATOM      2  C   UNL     1      -3.919   2.623  -2.269  0.00  0.00    -0.007 A 
ATOM      3  S   UNL     1      -5.199   1.420  -1.968  0.00  0.00    -0.073 S 
ATOM      4  C   UNL     1      -4.212  -0.053  -2.023  0.00  0.00    +0.115 A 
ATOM      5  C   UNL     1      -2.912   0.433  -2.281  0.00  0.00    +0.051 A 
ATOM      6  C   UNL     1      -1.897  -0.559  -2.382  0.00  0.00    +0.134 A 
ATOM      7  N   UNL     1      -2.220  -1.833  -2.238  0.00  0.00    -0.206 NA
ATOM      8  C   UNL     1      -3.467  -2.223  -2.002  0.00  0.00    +0.191 A 
ATOM      9  N   UNL     1      -4.452  -1.342  -1.888  0.00  0.00    -0.215 NA
ATOM     10  C   UNL     1      -4.049   4.122  -2.358  0.00  0.00    +0.052 C 
ENDROOT
BRANCH   6  11
ATOM     11  N   UNL     1      -0.586  -0.194  -2.628  0.00  0.00    -0.318 N 
ATOM     12  C   UNL     1       0.357   0.033  -1.522  0.00  0.00    +0.088 C 
ATOM     13  C   UNL     1       1.631  -0.773  -1.796  0.00  0.00    -0.059 C 
ATOM     14  N   UNL     1       2.156  -0.421  -3.121  0.00  0.00    +0.384 N 
ATOM     15  C   UNL     1       1.201  -0.826  -4.161  0.00  0.00    -0.059 C 
ATOM     16  C   UNL     1      -0.093  -0.028  -4.004  0.00  0.00    +0.088 C 
ATOM     17  H   UNL     1       2.302   0.576  -3.170  0.00  0.00    -0.081 HD
BRANCH  14  18
ATOM     18  C   UNL     1       3.434  -1.111  -3.338  0.00  0.00    -0.043 C 
BRANCH  18  19
ATOM     19  C   UNL     1       4.035  -0.657  -4.643  0.00  0.00    -0.061 A 
ATOM     20  C   UNL     1       3.904  -1.442  -5.774  0.00  0.00    +0.002 A 
ATOM     21  C   UNL     1       4.455  -1.026  -6.972  0.00  0.00    +0.003 A 
ATOM     22  C   UNL     1       5.136   0.175  -7.039  0.00  0.00    -0.050 A 
ATOM     23  C   UNL     1       5.266   0.960  -5.909  0.00  0.00    +0.007 A 
ATOM     24  C   UNL     1       4.712   0.546  -4.712  0.00  0.00    -0.049 A 
ATOM     25  C   UNL     1       4.849   1.404  -3.481  0.00  0.00    +0.044 C 
ATOM     26  C   UNL     1       5.737   0.629  -8.344  0.00  0.00    +0.044 C 
ENDBRANCH  18  19
ENDBRANCH  14  18
ENDBRANCH   6  11
BRANCH   1  28
ATOM     27  C   UNL     1      -1.331   2.783  -4.170  0.00  0.00    +0.009 C 
ATOM     28  C   UNL     1      -1.481   2.530  -2.668  0.00  0.00    +0.033 C 
ENDBRANCH   1  28
BRANCH   8  29
ATOM     29  S   UNL     1      -3.817  -3.940  -1.823  0.00  0.00    -0.081 S 
BRANCH  29  30
ATOM     30  C   UNL     1      -5.604  -3.994  -1.518  0.00  0.00    +0.112 C 
BRANCH  30  31
ATOM     31  C   UNL     1      -6.041  -5.426  -1.345  0.00  0.00    -0.037 A 
ATOM     32  C   UNL     1      -6.434  -6.167  -2.444  0.00  0.00    +0.007 A 
ATOM     33  C   UNL     1      -6.834  -7.480  -2.287  0.00  0.00    +0.038 A 
ATOM     34  C   UNL     1      -6.842  -8.054  -1.027  0.00  0.00    +0.123 A 
ATOM     35  C   UNL     1      -6.448  -7.311   0.074  0.00  0.00    +0.038 A 
ATOM     36  C   UNL     1      -6.043  -6.000  -0.087  0.00  0.00    +0.007 A 
ATOM     37  F   UNL     1      -7.233  -9.338  -0.871  0.00  0.00    -0.205 F 
ENDBRANCH  30  31
ENDBRANCH  29  30
ENDBRANCH   8  29
TORSDOF 7
