REMARK  Name = ZINC04100620
REMARK  7 active torsions:
REMARK  status: ('A' for Active; 'I' for Inactive)
REMARK    1  A    between atoms: C_1  and  N_2
REMARK    2  A    between atoms: C_6  and  C_23
REMARK    3  A    between atoms: C_8  and  C_16
REMARK    4  A    between atoms: C_10  and  C_11
REMARK    5  A    between atoms: C_10  and  O_15
REMARK    6  A    between atoms: C_16  and  C_18
REMARK    7  A    between atoms: C_26  and  O_29
REMARK                            x       y       z     vdW  Elec       q    Type
REMARK                         _______ _______ _______ _____ _____    ______ ____
ROOT
ATOM      1  C   UNL     1       8.708   4.289   2.093  0.00  0.00    +0.137 C 
ATOM      2  N   UNL     1       7.486   3.953   1.358  0.00  0.00    -0.253 N 
ATOM      3  C   UNL     1       6.344   4.592   1.655  0.00  0.00    +0.305 C 
ATOM      4  O   UNL     1       6.360   5.443   2.522  0.00  0.00    -0.253 OA
ATOM      5  N   UNL     1       5.185   4.328   1.033  0.00  0.00    -0.292 N 
ATOM      6  C   UNL     1       5.103   3.323  -0.029  0.00  0.00    +0.120 C 
ATOM      7  C   UNL     1       6.166   2.247   0.214  0.00  0.00    +0.145 C 
ATOM      8  C   UNL     1       7.535   2.926   0.316  0.00  0.00    +0.245 C 
ATOM      9  H   UNL     1       4.386   4.813   1.291  0.00  0.00    +0.151 HD
ENDROOT
BRANCH   6  10
ATOM     10  C   UNL     1       3.735   2.692  -0.019  0.00  0.00    -0.026 A 
ATOM     11  C   UNL     1       3.096   2.409  -1.213  0.00  0.00    +0.009 A 
ATOM     12  C   UNL     1       1.842   1.830  -1.207  0.00  0.00    +0.046 A 
ATOM     13  C   UNL     1       1.223   1.532  -0.001  0.00  0.00    +0.117 A 
ATOM     14  C   UNL     1       1.863   1.822   1.195  0.00  0.00    +0.046 A 
ATOM     15  C   UNL     1       3.119   2.396   1.183  0.00  0.00    +0.009 A 
BRANCH  13  16
ATOM     16  O   UNL     1      -0.011   0.963   0.007  0.00  0.00    -0.507 OA
ATOM     17  H   UNL     1       0.002  -0.004   0.002  0.00  0.00    +0.292 HD
ENDBRANCH  13  16
ENDBRANCH   6  10
BRANCH   8  18
ATOM     18  C   UNL     1       8.598   1.885   0.673  0.00  0.00    +0.436 C 
ATOM     19  F   UNL     1       8.275   1.290   1.897  0.00  0.00    -0.166 F 
ATOM     20  F   UNL     1       8.644   0.905  -0.324  0.00  0.00    -0.166 F 
ATOM     21  F   UNL     1       9.846   2.509   0.772  0.00  0.00    -0.166 F 
ENDBRANCH   8  18
BRANCH   8  22
ATOM     22  O   UNL     1       7.862   3.533  -0.936  0.00  0.00    -0.364 OA
ATOM     23  H   UNL     1       8.716   3.986  -0.942  0.00  0.00    +0.212 HD
ENDBRANCH   8  22
BRANCH   7  24
ATOM     24  C   UNL     1       5.865   1.520   1.500  0.00  0.00    +0.180 C 
ATOM     25  O   UNL     1       6.328   1.923   2.547  0.00  0.00    -0.291 OA
BRANCH  24  26
ATOM     26  C   UNL     1       5.045   0.370   1.486  0.00  0.00    +0.055 A 
ATOM     27  C   UNL     1       4.654  -0.441   2.546  0.00  0.00    +0.019 A 
ATOM     28  C   UNL     1       3.841  -1.504   2.251  0.00  0.00    +0.008 A 
ATOM     29  C   UNL     1       3.472  -1.719   0.959  0.00  0.00    +0.046 A 
ATOM     30  S   UNL     1       4.247  -0.426   0.103  0.00  0.00    -0.094 S 
ENDBRANCH  24  26
ENDBRANCH   7  24
TORSDOF 6
