REMARK  Name = ZINC43757367
REMARK  8 active torsions:
REMARK  status: ('A' for Active; 'I' for Inactive)
REMARK    1  A    between atoms: C_1  and  C_2
REMARK    2  A    between atoms: C_2  and  C_4
REMARK    3  A    between atoms: C_2  and  O_32
REMARK    4  A    between atoms: C_4  and  O_31
REMARK    5  A    between atoms: C_9  and  C_30
REMARK    6  A    between atoms: C_17  and  O_29
REMARK    7  A    between atoms: C_21  and  C_28
REMARK    8  A    between atoms: C_24  and  O_27
REMARK                            x       y       z     vdW  Elec       q    Type
REMARK                         _______ _______ _______ _____ _____    ______ ____
ROOT
ATOM      1  C   UNL     1       0.655  -0.520   1.248  0.00  0.00    +0.097 C 
ATOM      2  C   UNL     1       2.079   0.097   1.288  0.00  0.00    +0.038 C 
ATOM      3  C   UNL     1       3.073  -1.076   1.054  0.00  0.00    +0.007 C 
ATOM      4  C   UNL     1       2.179  -2.117   0.362  0.00  0.00    +0.001 C 
ATOM      5  C   UNL     1       0.905  -2.041   1.229  0.00  0.00    +0.002 C 
ATOM      6  C   UNL     1      -0.182  -2.903   0.652  0.00  0.00    +0.010 C 
ATOM      7  C   UNL     1       0.333  -4.308   0.299  0.00  0.00    +0.005 C 
ATOM      8  C   UNL     1       1.753  -4.560   0.762  0.00  0.00    -0.001 C 
ATOM      9  C   UNL     1       2.725  -3.506   0.234  0.00  0.00    -0.001 C 
ATOM     10  C   UNL     1       4.077  -3.691   0.922  0.00  0.00    +0.035 C 
ATOM     11  C   UNL     1       4.611  -5.090   0.580  0.00  0.00    +0.119 C 
ATOM     12  C   UNL     1       3.620  -5.816  -0.324  0.00  0.00    +0.026 C 
ATOM     13  C   UNL     1       2.253  -5.949   0.341  0.00  0.00    -0.024 C 
ATOM     14  C   UNL     1       1.275  -6.595  -0.638  0.00  0.00    +0.010 C 
ATOM     15  C   UNL     1       1.788  -7.967  -1.074  0.00  0.00    +0.032 C 
ATOM     16  C   UNL     1       3.179  -7.857  -1.691  0.00  0.00    +0.115 C 
ATOM     17  C   UNL     1       4.152  -7.195  -0.713  0.00  0.00    +0.038 C 
ATOM     18  C   UNL     1       2.352  -6.809   1.605  0.00  0.00    +0.012 C 
ATOM     19  C   UNL     1       1.170  -2.419   2.694  0.00  0.00    +0.014 C 
ENDROOT
BRANCH   1  21
ATOM     20  C   UNL     1      -0.195   1.482   0.031  0.00  0.00    +0.040 C 
ATOM     21  C   UNL     1      -0.091  -0.044   0.009  0.00  0.00    +0.144 C 
BRANCH  21  22
ATOM     22  O   UNL     1       0.619  -0.455  -1.162  0.00  0.00    -0.389 OA
ATOM     23  H   UNL     1       1.519  -0.107  -1.219  0.00  0.00    +0.210 HD
ENDBRANCH  21  22
ENDBRANCH   1  21
BRANCH  16  24
ATOM     24  O   UNL     1       3.113  -7.090  -2.895  0.00  0.00    -0.392 OA
ATOM     25  H   UNL     1       2.533  -7.466  -3.570  0.00  0.00    +0.210 HD
ENDBRANCH  16  24
BRANCH  11  26
ATOM     26  O   UNL     1       5.864  -4.952  -0.101  0.00  0.00    -0.391 OA
ATOM     27  H   UNL     1       6.544  -4.497   0.415  0.00  0.00    +0.210 HD
ENDBRANCH  11  26
BRANCH   1  28
ATOM     28  O   UNL     1      -0.062  -0.171   2.433  0.00  0.00    -0.385 OA
ATOM     29  H   UNL     1      -0.209   0.779   2.539  0.00  0.00    +0.210 HD
ENDBRANCH   1  28
TORSDOF 5
