REMARK  Name = ZINC05574377
REMARK  3 active torsions:
REMARK  status: ('A' for Active; 'I' for Inactive)
REMARK    1  A    between atoms: C_1  and  C_2
REMARK    2  A    between atoms: C_5  and  S_8
REMARK    3  A    between atoms: S_8  and  N_11
REMARK                            x       y       z     vdW  Elec       q    Type
REMARK                         _______ _______ _______ _____ _____    ______ ____
ROOT
ATOM      1  S   UNL     1       0.063  -4.530  -0.023  0.00  0.00    +0.100 S 
ATOM      2  O   UNL     1      -0.476  -4.950   1.223  0.00  0.00    -0.146 OA
ATOM      3  O   UNL     1      -0.490  -4.937  -1.267  0.00  0.00    -0.146 OA
ENDROOT
BRANCH   1   4
ATOM      4  N   UNL     1       1.651  -4.999  -0.034  0.00  0.00    -0.118 NA
ATOM      5  C   UNL     1       1.954  -6.257  -0.043  0.00  0.00    +0.117 C 
ATOM      6  C   UNL     1       0.849  -7.310  -0.049  0.00  0.00    +0.073 C 
ATOM      7  C   UNL     1       0.872  -7.978  -1.407  0.00  0.00    +0.008 C 
ATOM      8  C   UNL     1       1.820  -9.176  -1.480  0.00  0.00    +0.002 C 
ATOM      9  C   UNL     1       3.163  -8.921  -0.794  0.00  0.00    +0.019 C 
ATOM     10  C   UNL     1       3.732  -7.551  -1.089  0.00  0.00    +0.102 C 
ATOM     11  N   UNL     1       3.217  -6.632  -0.052  0.00  0.00    -0.331 N 
ATOM     12  H   UNL     1       3.820  -6.302   0.633  0.00  0.00    +0.147 HD
ENDBRANCH   1   4
BRANCH   1  17
ATOM     13  C   UNL     1      -0.018   1.503   0.010  0.00  0.00    +0.044 C 
ATOM     14  C   UNL     1       0.002  -0.004   0.002  0.00  0.00    -0.050 A 
ATOM     15  C   UNL     1       0.006  -0.689  -1.199  0.00  0.00    +0.005 A 
ATOM     16  C   UNL     1       0.025  -2.071  -1.206  0.00  0.00    +0.029 A 
ATOM     17  C   UNL     1       0.040  -2.768  -0.013  0.00  0.00    +0.113 A 
ATOM     18  C   UNL     1       0.037  -2.084   1.188  0.00  0.00    +0.029 A 
ATOM     19  C   UNL     1       0.023  -0.702   1.195  0.00  0.00    +0.005 A 
ENDBRANCH   1  17
TORSDOF 2
