REMARK  Name = ZINC04144833
REMARK  8 active torsions:
REMARK  status: ('A' for Active; 'I' for Inactive)
REMARK    1  A    between atoms: C_1  and  S_2
REMARK    2  A    between atoms: S_2  and  O_5
REMARK    3  A    between atoms: O_5  and  C_6
REMARK    4  A    between atoms: C_10  and  C_12
REMARK    5  A    between atoms: C_12  and  N_13
REMARK    6  A    between atoms: N_13  and  C_14
REMARK    7  A    between atoms: C_14  and  C_15
REMARK    8  A    between atoms: N_22  and  C_23
REMARK                            x       y       z     vdW  Elec       q    Type
REMARK                         _______ _______ _______ _____ _____    ______ ____
ROOT
ATOM      1  N   UNL     1       5.356  -2.070   1.172  0.00  0.00    -0.274 N 
ATOM      2  C   UNL     1       6.361  -1.333   1.684  0.00  0.00    +0.307 C 
ATOM      3  O   UNL     1       7.123  -0.744   0.942  0.00  0.00    -0.252 OA
ATOM      4  N   UNL     1       6.522  -1.248   3.020  0.00  0.00    -0.268 N 
ATOM      5  H   UNL     1       5.868  -1.649   3.613  0.00  0.00    +0.156 HD
ENDROOT
BRANCH   4   6
ATOM      6  C   UNL     1       7.633  -0.581   3.551  0.00  0.00    +0.053 A 
ATOM      7  C   UNL     1       8.795  -0.461   2.801  0.00  0.00    +0.026 A 
ATOM      8  C   UNL     1       9.890   0.198   3.327  0.00  0.00    +0.022 A 
ATOM      9  C   UNL     1       9.829   0.737   4.600  0.00  0.00    +0.042 A 
ATOM     10  C   UNL     1       8.673   0.618   5.350  0.00  0.00    +0.041 A 
ATOM     11  C   UNL     1       7.572  -0.035   4.827  0.00  0.00    +0.064 A 
ATOM     12 CL   UNL     1       6.119  -0.177   5.765  0.00  0.00    -0.082 Cl
ATOM     13 CL   UNL     1      11.207   1.563   5.258  0.00  0.00    -0.083 Cl
ENDBRANCH   4   6
BRANCH   1  14
ATOM     14  C   UNL     1       5.181  -2.161  -0.280  0.00  0.00    +0.145 C 
BRANCH  14  19
ATOM     15  C   UNL     1       2.070  -0.241  -1.233  0.00  0.00    +0.157 A 
ATOM     16  C   UNL     1       2.607   0.983  -1.608  0.00  0.00    +0.048 A 
ATOM     17  C   UNL     1       3.973   1.183  -1.551  0.00  0.00    +0.004 A 
ATOM     18  C   UNL     1       4.804   0.165  -1.121  0.00  0.00    +0.005 A 
ATOM     19  C   UNL     1       4.272  -1.054  -0.748  0.00  0.00    -0.027 A 
ATOM     20  C   UNL     1       2.906  -1.258  -0.797  0.00  0.00    +0.053 A 
BRANCH  15  21
ATOM     21  O   UNL     1       0.727  -0.440  -1.288  0.00  0.00    -0.346 OA
BRANCH  21  23
ATOM     22  C   UNL     1      -0.048   1.743   0.001  0.00  0.00    +0.242 C 
ATOM     23  S   UNL     1      -0.006  -0.071  -0.007  0.00  0.00    +0.118 S 
ATOM     24  O   UNL     1       0.830  -0.545   1.039  0.00  0.00    -0.137 OA
ATOM     25  O   UNL     1      -1.318  -0.590  -0.177  0.00  0.00    -0.137 OA
ENDBRANCH  21  23
ENDBRANCH  15  21
ENDBRANCH  14  19
ENDBRANCH   1  14
BRANCH   1  26
ATOM     26  C   UNL     1       4.438  -2.779   2.066  0.00  0.00    +0.183 C 
BRANCH  26  27
ATOM     27  C   UNL     1       4.972  -4.160   2.343  0.00  0.00    +0.122 A 
ATOM     28  C   UNL     1       5.792  -4.498   3.354  0.00  0.00    +0.046 A 
ATOM     29  C   UNL     1       6.039  -5.886   3.235  0.00  0.00    +0.041 A 
ATOM     30  C   UNL     1       5.356  -6.312   2.158  0.00  0.00    +0.195 A 
ATOM     31  O   UNL     1       4.707  -5.264   1.625  0.00  0.00    -0.466 OA
ENDBRANCH  26  27
ENDBRANCH   1  26
TORSDOF 7
