REMARK  Name = ZINC45890346
REMARK  10 active torsions:
REMARK  status: ('A' for Active; 'I' for Inactive)
REMARK    1  A    between atoms: C_1  and  C_2
REMARK    2  A    between atoms: C_2  and  C_3
REMARK    3  A    between atoms: C_5  and  N_24
REMARK    4  A    between atoms: C_7  and  C_23
REMARK    5  A    between atoms: C_8  and  N_9
REMARK    6  A    between atoms: C_10  and  C_12
REMARK    7  A    between atoms: C_12  and  O_13
REMARK    8  A    between atoms: O_13  and  C_14
REMARK    9  A    between atoms: C_15  and  C_22
REMARK   10  A    between atoms: C_17  and  C_21
REMARK                            x       y       z     vdW  Elec       q    Type
REMARK                         _______ _______ _______ _____ _____    ______ ____
ROOT
ATOM      1  N   UNL     1      -1.297  -0.231   2.468  0.00  0.00    -0.282 N 
ATOM      2  C   UNL     1      -2.019  -0.515   3.571  0.00  0.00    +0.255 C 
ATOM      3  O   UNL     1      -1.478  -1.002   4.541  0.00  0.00    -0.272 OA
ATOM      4  H   UNL     1      -1.714   0.223   1.719  0.00  0.00    +0.155 HD
ENDROOT
BRANCH   1  10
ATOM      5  C   UNL     1       1.039   0.381   2.533  0.00  0.00    -0.024 A 
ATOM      6  C   UNL     1       2.372   0.025   2.476  0.00  0.00    +0.028 A 
ATOM      7  C   UNL     1       2.729  -1.303   2.285  0.00  0.00    +0.025 A 
ATOM      8  C   UNL     1       1.745  -2.274   2.151  0.00  0.00    +0.028 A 
ATOM      9  C   UNL     1       0.412  -1.919   2.208  0.00  0.00    -0.027 A 
ATOM     10  C   UNL     1       0.056  -0.591   2.405  0.00  0.00    +0.040 A 
ATOM     11  C   UNL     1      -0.656  -2.972   2.063  0.00  0.00    +0.046 C 
BRANCH   7  12
ATOM     12  N   UNL     1       4.080  -1.663   2.226  0.00  0.00    -0.358 N 
ATOM     13  H   UNL     1       4.767  -0.985   2.319  0.00  0.00    +0.142 HD
ATOM     14  H   UNL     1       4.329  -2.591   2.093  0.00  0.00    +0.142 HD
ENDBRANCH   7  12
BRANCH   5  16
ATOM     15  C   UNL     1       0.413   2.077   4.229  0.00  0.00    +0.009 C 
ATOM     16  C   UNL     1       0.652   1.822   2.740  0.00  0.00    +0.034 C 
ENDBRANCH   5  16
ENDBRANCH   1  10
BRANCH   2  17
ATOM     17  C   UNL     1      -3.498  -0.226   3.598  0.00  0.00    +0.325 C 
BRANCH  17  18
ATOM     18  O   UNL     1      -4.035  -0.611   4.865  0.00  0.00    -0.481 OA
BRANCH  18  19
ATOM     19  C   UNL     1      -5.367  -0.416   5.056  0.00  0.00    +0.138 A 
ATOM     20  C   UNL     1      -5.825   0.785   5.577  0.00  0.00    -0.007 A 
ATOM     21  C   UNL     1      -7.179   0.981   5.770  0.00  0.00    +0.010 A 
ATOM     22  C   UNL     1      -8.077  -0.019   5.444  0.00  0.00    -0.049 A 
ATOM     23  C   UNL     1      -7.624  -1.217   4.925  0.00  0.00    +0.022 A 
ATOM     24  C   UNL     1      -6.270  -1.416   4.724  0.00  0.00    +0.060 A 
ATOM     25 BR   UNL     1      -5.651  -3.052   4.006  0.00  0.00    -0.047 Br
ATOM     26  C   UNL     1      -9.553   0.198   5.656  0.00  0.00    +0.044 C 
ATOM     27  C   UNL     1      -4.847   1.875   5.932  0.00  0.00    +0.047 C 
ENDBRANCH  18  19
ENDBRANCH  17  18
ENDBRANCH   2  17
TORSDOF 6
