REMARK  Name = ZINC23593597
REMARK  11 active torsions:
REMARK  status: ('A' for Active; 'I' for Inactive)
REMARK    1  A    between atoms: C_1  and  C_2
REMARK    2  A    between atoms: C_4  and  C_14
REMARK    3  A    between atoms: C_5  and  C_13
REMARK    4  A    between atoms: N_6  and  C_7
REMARK    5  A    between atoms: C_7  and  C_8
REMARK    6  A    between atoms: C_14  and  C_16
REMARK    7  A    between atoms: C_16  and  O_17
REMARK    8  A    between atoms: O_17  and  C_18
REMARK    9  A    between atoms: C_18  and  C_20
REMARK   10  A    between atoms: C_22  and  S_27
REMARK   11  A    between atoms: S_27  and  N_30
REMARK                            x       y       z     vdW  Elec       q    Type
REMARK                         _______ _______ _______ _____ _____    ______ ____
ROOT
ATOM      1  C   UNL     1      -3.249   6.101   5.831  0.00  0.00    +0.311 C 
ENDROOT
BRANCH   1   2
ATOM      2  C   UNL     1      -2.520   6.279   4.524  0.00  0.00    +0.202 C 
ATOM      3  O   UNL     1      -1.716   7.179   4.396  0.00  0.00    -0.288 OA
BRANCH   2   7
ATOM      4  C   UNL     1      -4.418   2.497   1.686  0.00  0.00    +0.063 C 
ATOM      5  C   UNL     1      -3.632   3.688   2.169  0.00  0.00    +0.017 A 
ATOM      6  C   UNL     1      -3.717   4.232   3.394  0.00  0.00    +0.034 A 
ATOM      7  C   UNL     1      -2.782   5.366   3.410  0.00  0.00    +0.042 A 
ATOM      8  C   UNL     1      -2.201   5.394   2.156  0.00  0.00    +0.027 A 
ATOM      9  N   UNL     1      -2.718   4.385   1.432  0.00  0.00    -0.343 N 
ATOM     10  C   UNL     1      -1.169   6.384   1.682  0.00  0.00    +0.064 C 
BRANCH   9  11
ATOM     11  C   UNL     1      -2.355   4.080   0.046  0.00  0.00    +0.164 C 
BRANCH  11  12
ATOM     12  C   UNL     1      -1.196   3.116   0.030  0.00  0.00    +0.009 A 
ATOM     13  C   UNL     1      -1.213   1.761   0.017  0.00  0.00    +0.013 A 
ATOM     14  C   UNL     1      -0.013   1.076   0.008  0.00  0.00    +0.008 A 
ATOM     15  C   UNL     1       1.146   1.780   0.001  0.00  0.00    +0.045 A 
ATOM     16  S   UNL     1       0.555   3.464   0.015  0.00  0.00    -0.100 S 
ENDBRANCH  11  12
ENDBRANCH   9  11
ENDBRANCH   2   7
ENDBRANCH   1   2
BRANCH   1  17
ATOM     17  O   UNL     1      -2.818   7.123   6.769  0.00  0.00    -0.453 OA
BRANCH  17  18
ATOM     18  C   UNL     1      -3.378   7.104   7.994  0.00  0.00    +0.342 C 
ATOM     19  O   UNL     1      -4.204   6.257   8.272  0.00  0.00    -0.245 OA
BRANCH  18  20
ATOM     20  C   UNL     1      -2.989   8.112   8.999  0.00  0.00    +0.096 A 
ATOM     21  C   UNL     1      -2.035   9.084   8.685  0.00  0.00    +0.046 A 
ATOM     22  C   UNL     1      -1.679  10.025   9.627  0.00  0.00    +0.106 A 
ATOM     23  C   UNL     1      -2.256  10.005  10.886  0.00  0.00    +0.031 A 
ATOM     24  C   UNL     1      -3.196   9.044  11.208  0.00  0.00    +0.041 A 
ATOM     25  C   UNL     1      -3.568   8.096  10.272  0.00  0.00    +0.137 A 
ATOM     26  F   UNL     1      -4.487   7.157  10.587  0.00  0.00    -0.205 F 
BRANCH  22  27
ATOM     27  S   UNL     1      -0.481  11.255   9.230  0.00  0.00    +0.056 S 
ATOM     28  O   UNL     1      -0.494  11.393   7.816  0.00  0.00    -0.153 OA
ATOM     29  O   UNL     1      -0.717  12.349  10.105  0.00  0.00    -0.153 OA
BRANCH  27  30
ATOM     30  N   UNL     1       1.004  10.640   9.633  0.00  0.00    -0.204 NA
ATOM     31  H   UNL     1       1.783  11.380   9.399  0.00  0.00    +0.144 HD
ATOM     32  H   UNL     1       1.188   9.720   9.057  0.00  0.00    +0.144 HD
ENDBRANCH  27  30
ENDBRANCH  22  27
ENDBRANCH  18  20
ENDBRANCH  17  18
ENDBRANCH   1  17
TORSDOF 9
