REMARK  Name = ZINC15544035
REMARK  9 active torsions:
REMARK  status: ('A' for Active; 'I' for Inactive)
REMARK    1  A    between atoms: C_1  and  C_2
REMARK    2  A    between atoms: C_2  and  O_3
REMARK    3  A    between atoms: O_3  and  C_4
REMARK    4  A    between atoms: C_4  and  C_6
REMARK    5  A    between atoms: C_10  and  N_11
REMARK    6  A    between atoms: C_12  and  C_14
REMARK    7  A    between atoms: C_14  and  N_73
REMARK    8  A    between atoms: C_17  and  C_20
REMARK    9  A    between atoms: C_30  and  C_34
REMARK                            x       y       z     vdW  Elec       q    Type
REMARK                         _______ _______ _______ _____ _____    ______ ____
ROOT
ATOM      1  N   UNL     1      -0.450  -1.886   1.189  0.00  0.00    -0.281 N 
ATOM      2  C   UNL     1      -0.349  -0.551   1.032  0.00  0.00    +0.201 C 
ATOM      3  O   UNL     1      -1.145   0.185   1.576  0.00  0.00    -0.278 OA
ATOM      4  H   UNL     1       0.187  -2.475   0.754  0.00  0.00    +0.155 HD
ENDROOT
BRANCH   1   9
ATOM      5  C   UNL     1      -1.731  -3.752   2.246  0.00  0.00    +0.091 A 
ATOM      6  C   UNL     1      -2.864  -4.045   3.109  0.00  0.00    -0.021 A 
ATOM      7  C   UNL     1      -3.546  -2.966   3.548  0.00  0.00    -0.004 A 
ATOM      8  S   UNL     1      -2.705  -1.579   2.840  0.00  0.00    -0.077 S 
ATOM      9  C   UNL     1      -1.463  -2.418   1.972  0.00  0.00    +0.086 A 
ATOM     10  C   UNL     1      -4.750  -2.960   4.440  0.00  0.00    +0.046 C 
ATOM     11  C   UNL     1      -4.876  -4.345   5.091  0.00  0.00    -0.009 C 
ATOM     12  C   UNL     1      -4.729  -5.416   4.006  0.00  0.00    +0.008 C 
ATOM     13  C   UNL     1      -3.284  -5.455   3.506  0.00  0.00    +0.037 C 
ATOM     14  C   UNL     1      -6.247  -4.475   5.758  0.00  0.00    +0.008 C 
BRANCH   5  15
ATOM     15  C   UNL     1      -0.903  -4.824   1.690  0.00  0.00    +0.342 C 
ATOM     16  O   UNL     1       0.069  -5.222   2.304  0.00  0.00    -0.245 OA
BRANCH  15  17
ATOM     17  O   UNL     1      -1.217  -5.369   0.497  0.00  0.00    -0.461 OA
BRANCH  17  19
ATOM     18  C   UNL     1      -0.863  -6.918  -1.349  0.00  0.00    +0.048 C 
ATOM     19  C   UNL     1      -0.351  -6.427   0.007  0.00  0.00    +0.229 C 
ENDBRANCH  17  19
ENDBRANCH  15  17
ENDBRANCH   5  15
ENDBRANCH   1   9
BRANCH   2  20
ATOM     20  C   UNL     1       0.752   0.027   0.181  0.00  0.00    +0.019 C 
BRANCH  20  26
ATOM     21  C   UNL     1      -0.587   1.924  -0.502  0.00  0.00    -0.077 C 
ATOM     22  C   UNL     1      -0.738   3.441  -0.367  0.00  0.00    -0.006 C 
ATOM     23  C   UNL     1       0.478   4.128  -0.997  0.00  0.00    +0.072 C 
ATOM     24  C   UNL     1       1.751   3.624  -0.311  0.00  0.00    -0.006 C 
ATOM     25  C   UNL     1       1.829   2.101  -0.448  0.00  0.00    -0.077 C 
ATOM     26  N   UNL     1       0.644   1.500   0.199  0.00  0.00    +0.385 N 
ATOM     27  H   UNL     1       0.599   1.819   1.174  0.00  0.00    -0.081 HD
BRANCH  23  28
ATOM     28  C   UNL     1       0.364   5.619  -0.814  0.00  0.00    +0.219 C 
ATOM     29  O   UNL     1       0.805   6.143   0.187  0.00  0.00    -0.275 OA
ATOM     30  N   UNL     1      -0.227   6.371  -1.764  0.00  0.00    -0.301 N 
ATOM     31  C   UNL     1      -0.224   7.809  -1.611  0.00  0.00    +0.108 C 
ATOM     32  C   UNL     1      -1.468   8.255  -0.813  0.00  0.00    +0.019 C 
ATOM     33  C   UNL     1      -2.681   8.099  -1.631  0.00  0.00    +0.002 C 
ATOM     34  C   UNL     1      -2.986   6.660  -2.036  0.00  0.00    +0.002 C 
ATOM     35  C   UNL     1      -2.213   6.318  -3.286  0.00  0.00    +0.019 C 
ATOM     36  C   UNL     1      -0.856   5.693  -2.914  0.00  0.00    +0.108 C 
ENDBRANCH  23  28
ENDBRANCH  20  26
ENDBRANCH   2  20
TORSDOF 7
