REMARK  Name = ZINC28053559
REMARK  2 active torsions:
REMARK  status: ('A' for Active; 'I' for Inactive)
REMARK    1  A    between atoms: C_4  and  C_7
REMARK    2  A    between atoms: C_18  and  C_20
REMARK                            x       y       z     vdW  Elec       q    Type
REMARK                         _______ _______ _______ _____ _____    ______ ____
ROOT
ATOM      1  C   UNL     1      -3.348  -0.924  -0.245  0.00  0.00    +0.174 C 
ATOM      2  C   UNL     1      -2.130  -0.034  -0.250  0.00  0.00    +0.025 C 
ATOM      3  C   UNL     1      -0.920  -0.477   0.100  0.00  0.00    +0.050 C 
ATOM      4  C   UNL     1       0.215   0.476   0.072  0.00  0.00    +0.038 A 
ATOM      5  C   UNL     1       1.533   0.036   0.088  0.00  0.00    +0.013 A 
ATOM      6  C   UNL     1       2.560   0.961   0.068  0.00  0.00    +0.001 A 
ATOM      7  C   UNL     1       2.279   2.316   0.033  0.00  0.00    +0.004 A 
ATOM      8  C   UNL     1       0.969   2.762   0.015  0.00  0.00    +0.046 A 
ATOM      9  C   UNL     1      -0.068   1.847   0.034  0.00  0.00    +0.131 A 
ATOM     10  O   UNL     1      -1.365   2.244   0.009  0.00  0.00    -0.479 OA
ATOM     11  C   UNL     1      -2.290   1.407  -0.681  0.00  0.00    +0.234 C 
ATOM     12  N   UNL     1      -0.695  -1.800   0.497  0.00  0.00    -0.282 N 
ATOM     13  C   UNL     1      -1.806  -2.571   0.795  0.00  0.00    +0.240 A 
ATOM     14  N   UNL     1      -3.059  -2.166   0.458  0.00  0.00    -0.201 N 
ATOM     15  N   UNL     1      -3.910  -3.169   0.919  0.00  0.00    -0.042 NA
ATOM     16  N   UNL     1      -3.158  -4.068   1.467  0.00  0.00    -0.021 NA
ATOM     17  N   UNL     1      -1.918  -3.721   1.395  0.00  0.00    -0.092 NA
ATOM     18  H   UNL     1       0.333  -2.188   0.561  0.00  0.00    +0.155 HD
ENDROOT
BRANCH  11  19
ATOM     19  C   UNL     1      -2.041   1.513  -2.163  0.00  0.00    -0.002 A 
ATOM     20  C   UNL     1      -3.102   1.698  -3.031  0.00  0.00    +0.007 A 
ATOM     21  C   UNL     1      -2.874   1.801  -4.390  0.00  0.00    +0.001 A 
ATOM     22  C   UNL     1      -1.586   1.708  -4.884  0.00  0.00    +0.015 A 
ATOM     23  C   UNL     1      -0.525   1.518  -4.017  0.00  0.00    +0.018 A 
ATOM     24  C   UNL     1      -0.753   1.420  -2.656  0.00  0.00    +0.022 A 
ATOM     25 BR   UNL     1       1.236   1.391  -4.692  0.00  0.00    -0.050 Br
ENDBRANCH  11  19
BRANCH   1  29
ATOM     26  C   UNL     1      -4.476  -1.804  -4.270  0.00  0.00    +0.000 A 
ATOM     27  C   UNL     1      -5.357  -1.143  -3.434  0.00  0.00    +0.000 A 
ATOM     28  C   UNL     1      -4.992  -0.858  -2.132  0.00  0.00    +0.006 A 
ATOM     29  C   UNL     1      -3.746  -1.234  -1.665  0.00  0.00    -0.019 A 
ATOM     30  C   UNL     1      -2.863  -1.891  -2.502  0.00  0.00    +0.006 A 
ATOM     31  C   UNL     1      -3.230  -2.180  -3.803  0.00  0.00    +0.000 A 
ENDBRANCH   1  29
TORSDOF 2
