REMARK  Name = ZINC39578405
REMARK  9 active torsions:
REMARK  status: ('A' for Active; 'I' for Inactive)
REMARK    1  A    between atoms: C_1  and  C_2
REMARK    2  A    between atoms: C_2  and  C_4
REMARK    3  A    between atoms: C_2  and  N_12
REMARK    4  A    between atoms: C_13  and  C_15
REMARK    5  A    between atoms: C_15  and  C_17
REMARK    6  A    between atoms: C_15  and  S_18
REMARK    7  A    between atoms: S_18  and  C_19
REMARK    8  A    between atoms: C_22  and  C_25
REMARK    9  A    between atoms: N_23  and  N_24
REMARK                            x       y       z     vdW  Elec       q    Type
REMARK                         _______ _______ _______ _____ _____    ______ ____
ROOT
ATOM      1  C   UNL     1      -3.351  -1.248  -1.364  0.00  0.00    +0.137 C 
ATOM      2  C   UNL     1      -3.337  -2.765  -1.165  0.00  0.00    +0.029 C 
ENDROOT
BRANCH   1   4
ATOM      3  N   UNL     1      -1.367  -0.520  -0.079  0.00  0.00    -0.308 N 
ATOM      4  C   UNL     1      -1.943  -0.717  -1.281  0.00  0.00    +0.227 C 
ATOM      5  O   UNL     1      -1.329  -0.466  -2.296  0.00  0.00    -0.275 OA
ATOM      6  H   UNL     1      -1.858  -0.720   0.733  0.00  0.00    +0.149 HD
BRANCH   3   8
ATOM      7  C   UNL     1      -0.028   1.526  -0.017  0.00  0.00    +0.033 C 
ATOM      8  C   UNL     1       0.002  -0.004   0.002  0.00  0.00    +0.102 C 
BRANCH   8   9
ATOM      9  C   UNL     1       0.643  -0.478   1.281  0.00  0.00    -0.009 A 
ATOM     10  C   UNL     1      -0.141  -0.765   2.382  0.00  0.00    +0.008 A 
ATOM     11  C   UNL     1       0.446  -1.200   3.555  0.00  0.00    +0.020 A 
ATOM     12  C   UNL     1       1.820  -1.350   3.627  0.00  0.00    +0.042 A 
ATOM     13  C   UNL     1       2.606  -1.063   2.525  0.00  0.00    +0.040 A 
ATOM     14  C   UNL     1       2.016  -0.632   1.350  0.00  0.00    +0.047 A 
ATOM     15 CL   UNL     1       3.001  -0.278  -0.036  0.00  0.00    -0.083 Cl
ATOM     16 CL   UNL     1       2.558  -1.896   5.101  0.00  0.00    -0.083 Cl
ENDBRANCH   8   9
ENDBRANCH   3   8
ENDBRANCH   1   4
BRANCH   1  17
ATOM     17  S   UNL     1      -4.050  -0.857  -2.992  0.00  0.00    -0.072 S 
BRANCH  17  18
ATOM     18  C   UNL     1      -5.721  -1.403  -2.880  0.00  0.00    +0.209 A 
ATOM     19  N   UNL     1      -6.294  -1.954  -1.836  0.00  0.00    -0.121 NA
ATOM     20  N   UNL     1      -7.521  -2.227  -2.104  0.00  0.00    -0.132 NA
ATOM     21  C   UNL     1      -7.802  -1.869  -3.325  0.00  0.00    +0.154 A 
ATOM     22  N   UNL     1      -6.668  -1.325  -3.861  0.00  0.00    -0.228 N 
BRANCH  21  23
ATOM     23  C   UNL     1      -9.133  -2.020  -4.016  0.00  0.00    +0.059 C 
ATOM     24  C   UNL     1     -10.200  -1.240  -3.245  0.00  0.00    +0.011 C 
ATOM     25  C   UNL     1     -11.550  -1.393  -3.947  0.00  0.00    +0.001 C 
ATOM     26  C   UNL     1     -11.936  -2.873  -3.994  0.00  0.00    +0.000 C 
ATOM     27  C   UNL     1     -10.869  -3.653  -4.765  0.00  0.00    +0.001 C 
ATOM     28  C   UNL     1      -9.518  -3.500  -4.064  0.00  0.00    +0.011 C 
ENDBRANCH  21  23
BRANCH  22  29
ATOM     29  N   UNL     1      -6.512  -0.815  -5.119  0.00  0.00    -0.295 N 
ATOM     30  H   UNL     1      -6.215  -1.530  -5.765  0.00  0.00    +0.163 HD
ATOM     31  H   UNL     1      -7.361  -0.370  -5.436  0.00  0.00    +0.163 HD
ENDBRANCH  22  29
ENDBRANCH  17  18
ENDBRANCH   1  17
TORSDOF 7
