REMARK  Name = ZINC08859143
REMARK  10 active torsions:
REMARK  status: ('A' for Active; 'I' for Inactive)
REMARK    1  A    between atoms: C_1  and  C_2
REMARK    2  A    between atoms: C_5  and  C_8
REMARK    3  A    between atoms: C_8  and  C_9
REMARK    4  A    between atoms: N_11  and  C_12
REMARK    5  A    between atoms: C_12  and  C_14
REMARK    6  A    between atoms: C_12  and  N_18
REMARK    7  A    between atoms: N_18  and  C_19
REMARK    8  A    between atoms: C_19  and  N_21
REMARK    9  A    between atoms: N_21  and  C_22
REMARK   10  A    between atoms: C_27  and  C_28
REMARK                            x       y       z     vdW  Elec       q    Type
REMARK                         _______ _______ _______ _____ _____    ______ ____
ROOT
ATOM      1  C   UNL     1       1.371   6.277   3.751  0.00  0.00    +0.211 C 
ENDROOT
BRANCH   1   4
ATOM      2  C   UNL     1       2.007   4.227   2.598  0.00  0.00    +0.219 C 
ATOM      3  O   UNL     1       1.957   3.648   3.662  0.00  0.00    -0.275 OA
ATOM      4  N   UNL     1       1.731   5.545   2.534  0.00  0.00    -0.293 N 
ATOM      5  H   UNL     1       1.772   6.008   1.683  0.00  0.00    +0.151 HD
BRANCH   2   6
ATOM      6  C   UNL     1       2.378   3.473   1.347  0.00  0.00    +0.131 C 
BRANCH   6  11
ATOM      7  C   UNL     1       3.365  -2.068   2.654  0.00  0.00    +0.044 C 
ATOM      8  C   UNL     1       3.108  -0.623   2.313  0.00  0.00    -0.050 A 
ATOM      9  C   UNL     1       1.835  -0.211   1.966  0.00  0.00    +0.003 A 
ATOM     10  C   UNL     1       1.599   1.115   1.653  0.00  0.00    +0.004 A 
ATOM     11  C   UNL     1       2.635   2.028   1.688  0.00  0.00    -0.039 A 
ATOM     12  C   UNL     1       3.909   1.616   2.035  0.00  0.00    +0.004 A 
ATOM     13  C   UNL     1       4.145   0.291   2.348  0.00  0.00    +0.003 A 
ENDBRANCH   6  11
ENDBRANCH   2   6
ENDBRANCH   1   4
BRANCH   1  14
ATOM     14  C   UNL     1       2.133   7.603   3.792  0.00  0.00    +0.225 C 
ATOM     15 CL   UNL     1       1.702   8.590   2.346  0.00  0.00    -0.080 Cl
ATOM     16 CL   UNL     1       1.689   8.505   5.289  0.00  0.00    -0.080 Cl
ATOM     17 CL   UNL     1       3.906   7.277   3.790  0.00  0.00    -0.080 Cl
ENDBRANCH   1  14
BRANCH   1  18
ATOM     18  N   UNL     1      -0.070   6.542   3.752  0.00  0.00    -0.305 N 
ATOM     19  H   UNL     1      -0.437   7.231   3.176  0.00  0.00    +0.150 HD
BRANCH  18  20
ATOM     20  C   UNL     1      -0.886   5.829   4.553  0.00  0.00    +0.136 C 
ATOM     21  S   UNL     1      -0.238   4.613   5.570  0.00  0.00    -0.019 S 
BRANCH  20  22
ATOM     22  N   UNL     1      -2.211   6.072   4.555  0.00  0.00    -0.297 N 
ATOM     23  H   UNL     1      -2.569   6.812   4.040  0.00  0.00    +0.154 HD
BRANCH  22  24
ATOM     24  C   UNL     1      -3.071   5.258   5.299  0.00  0.00    +0.036 A 
ATOM     25  C   UNL     1      -2.923   3.877   5.268  0.00  0.00    +0.023 A 
ATOM     26  C   UNL     1      -3.771   3.076   6.007  0.00  0.00    +0.002 A 
ATOM     27  C   UNL     1      -4.773   3.647   6.770  0.00  0.00    +0.000 A 
ATOM     28  C   UNL     1      -4.927   5.021   6.799  0.00  0.00    +0.005 A 
ATOM     29  C   UNL     1      -4.079   5.827   6.066  0.00  0.00    -0.029 A 
ATOM     30  C   UNL     1      -4.248   7.325   6.098  0.00  0.00    +0.045 C 
ENDBRANCH  22  24
ENDBRANCH  20  22
ENDBRANCH  18  20
ENDBRANCH   1  18
TORSDOF 8
