REMARK  Name = ZINC25784386
REMARK  10 active torsions:
REMARK  status: ('A' for Active; 'I' for Inactive)
REMARK    1  A    between atoms: C_1  and  C_2
REMARK    2  A    between atoms: C_9  and  C_16
REMARK    3  A    between atoms: C_11  and  O_12
REMARK    4  A    between atoms: C_16  and  O_17
REMARK    5  A    between atoms: O_17  and  C_18
REMARK    6  A    between atoms: C_18  and  C_20
REMARK    7  A    between atoms: C_22  and  N_34
REMARK    8  A    between atoms: C_25  and  N_26
REMARK    9  A    between atoms: N_26  and  C_27
REMARK   10  A    between atoms: C_27  and  C_28
REMARK                            x       y       z     vdW  Elec       q    Type
REMARK                         _______ _______ _______ _____ _____    ______ ____
ROOT
ATOM      1  C   UNL     1       4.819  -1.546  -4.147  0.00  0.00    +0.341 C 
ATOM      2  O   UNL     1       3.817  -0.896  -3.923  0.00  0.00    -0.245 OA
ENDROOT
BRANCH   1   3
ATOM      3  C   UNL     1       5.726  -1.905  -3.044  0.00  0.00    +0.082 A 
ATOM      4  C   UNL     1       6.937  -2.551  -3.311  0.00  0.00    +0.049 A 
ATOM      5  C   UNL     1       7.778  -2.889  -2.274  0.00  0.00    +0.127 A 
ATOM      6  C   UNL     1       7.433  -2.589  -0.965  0.00  0.00    +0.034 A 
ATOM      7  C   UNL     1       6.245  -1.947  -0.686  0.00  0.00    +0.026 A 
ATOM      8  C   UNL     1       5.382  -1.597  -1.718  0.00  0.00    +0.042 A 
BRANCH   5   9
ATOM      9  N   UNL     1       9.056  -3.579  -2.559  0.00  0.00    +0.056 N 
ATOM     10  O   UNL     1       9.803  -3.880  -1.644  0.00  0.00    -0.126 OA
ATOM     11  O   UNL     1       9.363  -3.845  -3.707  0.00  0.00    -0.126 OA
ENDBRANCH   5   9
BRANCH   8  12
ATOM     12  N   UNL     1       4.185  -0.952  -1.439  0.00  0.00    -0.339 N 
ATOM     13  H   UNL     1       3.546  -0.599  -2.262  0.00  0.00    +0.146 HD
BRANCH  12  14
ATOM     14  C   UNL     1       3.773  -0.742  -0.049  0.00  0.00    +0.137 C 
BRANCH  14  15
ATOM     15  C   UNL     1       2.448  -0.025  -0.021  0.00  0.00    -0.030 A 
ATOM     16  C   UNL     1       1.270  -0.749  -0.018  0.00  0.00    +0.005 A 
ATOM     17  C   UNL     1       0.054  -0.092   0.008  0.00  0.00    +0.000 A 
ATOM     18  C   UNL     1       0.016   1.290   0.030  0.00  0.00    +0.000 A 
ATOM     19  C   UNL     1       1.194   2.014   0.027  0.00  0.00    +0.000 A 
ATOM     20  C   UNL     1       2.409   1.357   0.002  0.00  0.00    +0.005 A 
ENDBRANCH  14  15
ENDBRANCH  12  14
ENDBRANCH   8  12
ENDBRANCH   1   3
BRANCH   1  21
ATOM     21  O   UNL     1       5.100  -1.937  -5.406  0.00  0.00    -0.456 OA
BRANCH  21  22
ATOM     22  C   UNL     1       4.162  -1.547  -6.443  0.00  0.00    +0.269 C 
BRANCH  22  31
ATOM     23  C   UNL     1       0.841  -1.864 -14.690  0.00  0.00    +0.109 C 
ATOM     24  C   UNL     1       1.699  -2.074 -13.468  0.00  0.00    +0.214 C 
ATOM     25  O   UNL     1       2.351  -3.090 -13.353  0.00  0.00    -0.276 OA
ATOM     26  N   UNL     1       1.741  -1.133 -12.504  0.00  0.00    -0.286 N 
ATOM     27  C   UNL     1       2.460  -1.367 -11.332  0.00  0.00    +0.037 A 
ATOM     28  C   UNL     1       1.988  -0.866 -10.119  0.00  0.00    +0.024 A 
ATOM     29  C   UNL     1       2.681  -1.087  -8.964  0.00  0.00    +0.014 A 
ATOM     30  C   UNL     1       3.871  -1.824  -8.996  0.00  0.00    +0.024 A 
ATOM     31  C   UNL     1       4.638  -2.070  -7.774  0.00  0.00    +0.007 A 
ATOM     32  C   UNL     1       5.787  -2.788  -7.870  0.00  0.00    +0.095 A 
ATOM     33  C   UNL     1       6.211  -3.267  -9.127  0.00  0.00    +0.285 A 
ATOM     34  O   UNL     1       5.506  -3.033 -10.245  0.00  0.00    -0.425 OA
ATOM     35  C   UNL     1       4.355  -2.327 -10.218  0.00  0.00    +0.141 A 
ATOM     36  C   UNL     1       3.639  -2.095 -11.383  0.00  0.00    +0.070 A 
ATOM     37  H   UNL     1       1.207  -0.181 -12.642  0.00  0.00    +0.155 HD
BRANCH  33  38
ATOM     38  O   UNL     1       7.244  -3.908  -9.200  0.00  0.00    -0.480 OA
ATOM     39  H   UNL     1       7.588  -4.289 -10.173  0.00  0.00    +0.295 HD
ENDBRANCH  33  38
ENDBRANCH  22  31
ENDBRANCH  21  22
ENDBRANCH   1  21
TORSDOF 9
