REMARK  Name = ZINC44386448
REMARK  3 active torsions:
REMARK  status: ('A' for Active; 'I' for Inactive)
REMARK    1  A    between atoms: C_1  and  C_2
REMARK    2  A    between atoms: C_2  and  C_4
REMARK    3  A    between atoms: C_2  and  N_10
REMARK                            x       y       z     vdW  Elec       q    Type
REMARK                         _______ _______ _______ _____ _____    ______ ____
ROOT
ATOM      1  N   UNL     1      -1.372  -0.511   0.012  0.00  0.00    -0.322 N 
ATOM      2  C   UNL     1      -2.072  -0.647  -1.181  0.00  0.00    +0.119 A 
ATOM      3  C   UNL     1      -1.459  -0.305  -2.382  0.00  0.00    +0.044 A 
ATOM      4  C   UNL     1      -2.167  -0.444  -3.563  0.00  0.00    +0.020 A 
ATOM      5  C   UNL     1      -3.470  -0.924  -3.502  0.00  0.00    +0.036 A 
ATOM      6  C   UNL     1      -4.015  -1.244  -2.274  0.00  0.00    +0.128 A 
ATOM      7  N   UNL     1      -3.314  -1.106  -1.165  0.00  0.00    -0.239 NA
ATOM      8 BR   UNL     1      -4.485  -1.135  -5.083  0.00  0.00    -0.049 Br
ATOM      9  H   UNL     1      -1.794  -0.752   0.852  0.00  0.00    +0.148 HD
ENDROOT
BRANCH   1  11
ATOM     10  C   UNL     1      -0.019   1.526   0.010  0.00  0.00    +0.033 C 
ATOM     11  C   UNL     1       0.002  -0.004   0.002  0.00  0.00    +0.106 C 
BRANCH  11  12
ATOM     12  C   UNL     1       0.731  -0.503   1.223  0.00  0.00    +0.011 A 
ATOM     13  C   UNL     1       2.009  -0.938   1.335  0.00  0.00    +0.014 A 
ATOM     14  C   UNL     1       2.471  -1.355   2.570  0.00  0.00    +0.028 A 
ATOM     15  C   UNL     1       1.629  -1.315   3.633  0.00  0.00    +0.078 A 
ATOM     16  S   UNL     1       0.136  -0.668   2.898  0.00  0.00    -0.080 S 
ATOM     17 CL   UNL     1       1.927  -1.770   5.282  0.00  0.00    -0.076 Cl
ENDBRANCH  11  12
ENDBRANCH   1  11
TORSDOF 2
