REMARK  Name = ZINC66242643
REMARK  4 active torsions:
REMARK  status: ('A' for Active; 'I' for Inactive)
REMARK    1  A    between atoms: C_3  and  C_9
REMARK    2  A    between atoms: C_9  and  N_10
REMARK    3  A    between atoms: N_12  and  C_13
REMARK    4  A    between atoms: C_13  and  C_14
REMARK                            x       y       z     vdW  Elec       q    Type
REMARK                         _______ _______ _______ _____ _____    ______ ____
ROOT
ATOM      1  N   UNL     1       4.287   2.122   1.305  0.00  0.00    -0.354 N 
ATOM      2  C   UNL     1       5.484   2.757   1.539  0.00  0.00    +0.169 C 
ATOM      3  N   UNL     1       6.032   2.701   2.720  0.00  0.00    -0.355 N 
ATOM      4  N   UNL     1       6.102   3.453   0.526  0.00  0.00    -0.371 N 
ATOM      5  H   UNL     1       3.851   1.631   2.019  0.00  0.00    +0.163 HD
ATOM      6  H   UNL     1       5.694   3.495  -0.353  0.00  0.00    +0.159 HD
ATOM      7  H   UNL     1       6.946   3.901   0.691  0.00  0.00    +0.159 HD
ATOM      8  H   UNL     1       5.596   2.211   3.434  0.00  0.00    +0.162 HD
ENDROOT
BRANCH   1   9
ATOM      9  C   UNL     1       3.671   2.185  -0.023  0.00  0.00    +0.152 C 
BRANCH   9  12
ATOM     10  C   UNL     1      -0.017   1.379   0.010  0.00  0.00    +0.020 A 
ATOM     11  C   UNL     1       1.171   2.087   0.002  0.00  0.00    +0.008 A 
ATOM     12  C   UNL     1       2.377   1.413  -0.013  0.00  0.00    -0.010 A 
ATOM     13  C   UNL     1       2.397   0.029  -0.021  0.00  0.00    +0.047 A 
ATOM     14  C   UNL     1       1.210  -0.679  -0.013  0.00  0.00    +0.040 A 
ATOM     15  C   UNL     1       0.002  -0.004   0.002  0.00  0.00    +0.042 A 
ATOM     16 CL   UNL     1      -1.489  -0.893   0.012  0.00  0.00    -0.083 Cl
ATOM     17 CL   UNL     1       3.913  -0.817  -0.041  0.00  0.00    -0.083 Cl
ENDBRANCH   9  12
ENDBRANCH   1   9
BRANCH   3  18
ATOM     18  C   UNL     1       7.307   3.378   2.969  0.00  0.00    +0.147 C 
BRANCH  18  19
ATOM     19  C   UNL     1       7.726   3.157   4.424  0.00  0.00    +0.137 C 
ATOM     20  C   UNL     1       9.005   3.966   4.729  0.00  0.00    +0.035 C 
ATOM     21  C   UNL     1       9.806   2.988   5.632  0.00  0.00    +0.031 C 
ATOM     22  C   UNL     1       9.406   1.624   5.015  0.00  0.00    +0.160 C 
ATOM     23  O   UNL     1       8.026   1.773   4.638  0.00  0.00    -0.375 OA
ENDBRANCH  18  19
ENDBRANCH   3  18
TORSDOF 4
