REMARK  Name = ZINC39315924
REMARK  6 active torsions:
REMARK  status: ('A' for Active; 'I' for Inactive)
REMARK    1  A    between atoms: C_1  and  C_2
REMARK    2  A    between atoms: C_4  and  C_20
REMARK    3  A    between atoms: C_9  and  C_13
REMARK    4  A    between atoms: C_9  and  C_14
REMARK    5  A    between atoms: C_23  and  O_26
REMARK    6  A    between atoms: O_26  and  C_27
REMARK                            x       y       z     vdW  Elec       q    Type
REMARK                         _______ _______ _______ _____ _____    ______ ____
ROOT
ATOM      1  C   UNL     1      -0.018   1.503   0.010  0.00  0.00    +0.067 C 
ATOM      2  C   UNL     1       0.002  -0.004   0.002  0.00  0.00    +0.064 C 
ATOM      3  C   UNL     1      -1.064  -0.767   0.003  0.00  0.00    +0.008 C 
ATOM      4  C   UNL     1      -2.534  -0.503  -0.137  0.00  0.00    +0.085 C 
ATOM      5  C   UNL     1      -3.084  -1.542  -1.101  0.00  0.00    +0.023 C 
ATOM      6  C   UNL     1      -2.353  -2.599  -1.516  0.00  0.00    +0.014 C 
ATOM      7  C   UNL     1      -2.950  -3.606  -2.479  0.00  0.00    +0.057 C 
ATOM      8  C   UNL     1      -4.459  -3.704  -2.261  0.00  0.00    -0.023 C 
ATOM      9  C   UNL     1      -5.068  -2.314  -2.482  0.00  0.00    +0.086 C 
ATOM     10  C   UNL     1      -4.404  -1.347  -1.542  0.00  0.00    +0.162 C 
ATOM     11  O   UNL     1      -5.022  -0.374  -1.156  0.00  0.00    -0.292 OA
ATOM     12  C   UNL     1      -4.745  -4.171  -0.833  0.00  0.00    +0.011 C 
ATOM     13  C   UNL     1      -5.061  -4.695  -3.259  0.00  0.00    +0.011 C 
ATOM     14  N   UNL     1      -1.058  -2.839  -1.132  0.00  0.00    -0.321 N 
ATOM     15  C   UNL     1      -0.527  -2.199   0.074  0.00  0.00    +0.241 C 
ATOM     16  N   UNL     1       0.921  -1.985   0.002  0.00  0.00    -0.160 NA
ATOM     17  N   UNL     1       1.127  -0.764  -0.013  0.00  0.00    -0.157 NA
ATOM     18  H   UNL     1      -0.496  -3.431  -1.657  0.00  0.00    +0.148 HD
ENDROOT
BRANCH   4  19
ATOM     19  C   UNL     1      -3.209  -0.635   1.204  0.00  0.00    -0.035 A 
ATOM     20  C   UNL     1      -3.150  -1.834   1.891  0.00  0.00    +0.008 A 
ATOM     21  C   UNL     1      -3.769  -1.958   3.120  0.00  0.00    +0.046 A 
ATOM     22  C   UNL     1      -4.449  -0.878   3.665  0.00  0.00    +0.120 A 
ATOM     23  C   UNL     1      -4.506   0.324   2.974  0.00  0.00    +0.046 A 
ATOM     24  C   UNL     1      -3.881   0.444   1.748  0.00  0.00    +0.008 A 
BRANCH  22  25
ATOM     25  O   UNL     1      -5.059  -0.998   4.874  0.00  0.00    -0.495 OA
ATOM     26  C   UNL     1      -5.740   0.155   5.373  0.00  0.00    +0.277 C 
ENDBRANCH  22  25
ENDBRANCH   4  19
TORSDOF 2
