REMARK  Name = ZINC38186175
REMARK  10 active torsions:
REMARK  status: ('A' for Active; 'I' for Inactive)
REMARK    1  A    between atoms: C_1  and  C_2
REMARK    2  A    between atoms: C_2  and  C_3
REMARK    3  A    between atoms: C_9  and  C_11
REMARK    4  A    between atoms: C_11  and  S_12
REMARK    5  A    between atoms: S_12  and  C_13
REMARK    6  A    between atoms: C_16  and  C_27
REMARK    7  A    between atoms: N_17  and  C_18
REMARK    8  A    between atoms: C_21  and  O_24
REMARK    9  A    between atoms: O_24  and  C_25
REMARK   10  A    between atoms: C_25  and  C_26
REMARK                            x       y       z     vdW  Elec       q    Type
REMARK                         _______ _______ _______ _____ _____    ______ ____
ROOT
ATOM      1  C   UNL     1       5.191  -3.409  -8.529  0.00  0.00    +0.197 A 
ATOM      2  N   UNL     1       4.216  -3.503  -9.404  0.00  0.00    -0.122 NA
ATOM      3  N   UNL     1       4.672  -3.917 -10.532  0.00  0.00    -0.128 NA
ATOM      4  C   UNL     1       5.968  -4.114 -10.449  0.00  0.00    +0.171 A 
ATOM      5  N   UNL     1       6.344  -3.789  -9.164  0.00  0.00    -0.270 N 
ENDROOT
BRANCH   4   6
ATOM      6  C   UNL     1       6.855  -4.589 -11.530  0.00  0.00    +0.045 A 
ATOM      7  C   UNL     1       8.194  -4.800 -11.447  0.00  0.00    +0.095 A 
ATOM      8  N   UNL     1       8.666  -5.238 -12.650  0.00  0.00    -0.360 N 
ATOM      9  H   UNL     1       9.593  -5.457 -12.836  0.00  0.00    +0.165 HD
ATOM     10  C   UNL     1       7.637  -5.326 -13.562  0.00  0.00    +0.047 A 
ATOM     11  C   UNL     1       6.459  -4.932 -12.906  0.00  0.00    +0.010 A 
ATOM     12  C   UNL     1       5.246  -4.928 -13.592  0.00  0.00    +0.011 A 
ATOM     13  C   UNL     1       5.209  -5.316 -14.914  0.00  0.00    +0.001 A 
ATOM     14  C   UNL     1       6.371  -5.709 -15.561  0.00  0.00    +0.002 A 
ATOM     15  C   UNL     1       7.579  -5.710 -14.898  0.00  0.00    +0.026 A 
ENDBRANCH   4   6
BRANCH   5  16
ATOM     16  C   UNL     1       7.636  -3.840  -8.619  0.00  0.00    +0.051 A 
ATOM     17  C   UNL     1       8.625  -2.993  -9.098  0.00  0.00    +0.030 A 
ATOM     18  C   UNL     1       9.896  -3.043  -8.562  0.00  0.00    +0.047 A 
ATOM     19  C   UNL     1      10.185  -3.940  -7.543  0.00  0.00    +0.121 A 
ATOM     20  C   UNL     1       9.196  -4.787  -7.064  0.00  0.00    +0.047 A 
ATOM     21  C   UNL     1       7.923  -4.733  -7.596  0.00  0.00    +0.030 A 
BRANCH  19  22
ATOM     22  O   UNL     1      11.437  -3.989  -7.015  0.00  0.00    -0.492 OA
BRANCH  22  23
ATOM     23  C   UNL     1      11.663  -4.937  -5.970  0.00  0.00    +0.225 C 
ATOM     24  C   UNL     1      13.118  -4.846  -5.506  0.00  0.00    +0.048 C 
ENDBRANCH  22  23
ENDBRANCH  19  22
ENDBRANCH   5  16
BRANCH   1  25
ATOM     25  S   UNL     1       5.044  -2.884  -6.854  0.00  0.00    -0.076 S 
BRANCH  25  26
ATOM     26  C   UNL     1       3.275  -2.533  -6.657  0.00  0.00    +0.173 C 
BRANCH  26  33
ATOM     27  C   UNL     1       0.707  -0.490  -1.238  0.00  0.00    +0.103 A 
ATOM     28  N   UNL     1       1.983  -0.759  -1.434  0.00  0.00    -0.145 NA
ATOM     29  N   UNL     1       2.358  -1.161  -2.572  0.00  0.00    -0.126 NA
ATOM     30  C   UNL     1       1.510  -1.319  -3.570  0.00  0.00    +0.188 A 
ATOM     31  S   UNL     1       0.050  -0.872  -2.855  0.00  0.00    -0.035 S 
ATOM     32  N   UNL     1       1.756  -1.748  -4.870  0.00  0.00    -0.263 N 
ATOM     33  C   UNL     1       3.009  -2.068  -5.248  0.00  0.00    +0.229 C 
ATOM     34  O   UNL     1       3.923  -1.982  -4.455  0.00  0.00    -0.275 OA
ATOM     35  H   UNL     1       1.025  -1.817  -5.504  0.00  0.00    +0.157 HD
BRANCH  27  37
ATOM     36  C   UNL     1      -0.019   1.526   0.010  0.00  0.00    +0.011 C 
ATOM     37  C   UNL     1       0.002  -0.004   0.002  0.00  0.00    +0.061 C 
ENDBRANCH  27  37
ENDBRANCH  26  33
ENDBRANCH  25  26
ENDBRANCH   1  25
TORSDOF 8
