REMARK  Name = ZINC51397986
REMARK  5 active torsions:
REMARK  status: ('A' for Active; 'I' for Inactive)
REMARK    1  A    between atoms: C_1  and  C_2
REMARK    2  A    between atoms: C_2  and  C_3
REMARK    3  A    between atoms: C_7  and  C_20
REMARK    4  A    between atoms: C_12  and  C_18
REMARK    5  A    between atoms: C_18  and  N_19
REMARK                            x       y       z     vdW  Elec       q    Type
REMARK                         _______ _______ _______ _____ _____    ______ ____
ROOT
ATOM      1  C   UNL     1      -1.506  -0.941  -0.275  0.00  0.00    +0.100 C 
ATOM      2  C   UNL     1      -1.649  -2.467  -0.304  0.00  0.00    +0.182 C 
ATOM      3  O   UNL     1      -3.029  -2.807  -0.459  0.00  0.00    -0.373 OA
ATOM      4  C   UNL     1      -3.610  -2.353  -1.684  0.00  0.00    +0.132 C 
ATOM      5  C   UNL     1      -3.566  -0.821  -1.726  0.00  0.00    +0.138 C 
ATOM      6  N   UNL     1      -2.186  -0.388  -1.457  0.00  0.00    -0.307 N 
ATOM      7  C   UNL     1      -1.543   0.517  -2.295  0.00  0.00    +0.123 A 
ATOM      8  C   UNL     1      -1.740   1.882  -2.115  0.00  0.00    -0.024 A 
ATOM      9  C   UNL     1      -1.095   2.771  -2.955  0.00  0.00    +0.021 A 
ATOM     10  C   UNL     1      -0.271   2.263  -3.951  0.00  0.00    +0.036 A 
ATOM     11  C   UNL     1      -0.121   0.895  -4.073  0.00  0.00    +0.128 A 
ATOM     12  N   UNL     1      -0.746   0.071  -3.253  0.00  0.00    -0.239 NA
ATOM     13 BR   UNL     1       0.636   3.431  -5.130  0.00  0.00    -0.049 Br
ATOM     14  C   UNL     1      -5.062  -2.827  -1.768  0.00  0.00    +0.039 C 
ENDROOT
BRANCH   1  16
ATOM     15  C   UNL     1       0.650  -1.020   0.986  0.00  0.00    +0.006 C 
ATOM     16  C   UNL     1      -0.023  -0.562  -0.309  0.00  0.00    +0.021 C 
ENDBRANCH   1  16
BRANCH   8  17
ATOM     17  C   UNL     1      -2.644   2.386  -1.019  0.00  0.00    -0.047 C 
BRANCH  17  18
ATOM     18  N   UNL     1      -1.924   2.360   0.261  0.00  0.00    +0.381 N 
ATOM     19  H   UNL     1      -2.529   2.697   0.994  0.00  0.00    -0.090 HD
ATOM     20  H   UNL     1      -1.639   1.414   0.468  0.00  0.00    -0.090 HD
ATOM     21  H   UNL     1      -1.108   2.951   0.200  0.00  0.00    -0.090 HD
ENDBRANCH  17  18
ENDBRANCH   8  17
TORSDOF 3
