REMARK  Name = ZINC67305452
REMARK  7 active torsions:
REMARK  status: ('A' for Active; 'I' for Inactive)
REMARK    1  A    between atoms: C_1  and  C_2
REMARK    2  A    between atoms: C_5  and  O_29
REMARK    3  A    between atoms: C_10  and  C_11
REMARK    4  A    between atoms: C_11  and  C_13
REMARK    5  A    between atoms: C_11  and  N_14
REMARK    6  A    between atoms: C_15  and  C_17
REMARK    7  A    between atoms: O_29  and  C_30
REMARK                            x       y       z     vdW  Elec       q    Type
REMARK                         _______ _______ _______ _____ _____    ______ ____
ROOT
ATOM      1  N   UNL     1      -0.929  -1.146   3.276  0.00  0.00    -0.306 N 
ATOM      2  C   UNL     1      -1.475  -0.637   4.399  0.00  0.00    +0.217 C 
ATOM      3  O   UNL     1      -1.172   0.478   4.769  0.00  0.00    -0.275 OA
ATOM      4  H   UNL     1      -1.171  -2.037   2.981  0.00  0.00    +0.149 HD
ENDROOT
BRANCH   2   5
ATOM      5  C   UNL     1      -2.461  -1.453   5.194  0.00  0.00    +0.075 C 
ATOM      6  C   UNL     1      -1.792  -2.748   5.660  0.00  0.00    +0.015 C 
ATOM      7  C   UNL     1      -2.797  -3.581   6.459  0.00  0.00    +0.036 C 
ATOM      8  C   UNL     1      -3.283  -2.779   7.661  0.00  0.00    +0.112 C 
ATOM      9  C   UNL     1      -3.933  -1.475   7.212  0.00  0.00    +0.036 C 
ATOM     10  C   UNL     1      -2.924  -0.649   6.411  0.00  0.00    +0.015 C 
ATOM     11  C   UNL     1      -4.252  -3.596   8.484  0.00  0.00    +0.244 C 
ATOM     12  O   UNL     1      -5.321  -4.045   8.129  0.00  0.00    -0.273 OA
ATOM     13  N   UNL     1      -3.677  -3.720   9.698  0.00  0.00    -0.238 N 
ATOM     14  C   UNL     1      -2.492  -3.099   9.749  0.00  0.00    +0.307 C 
ATOM     15  O   UNL     1      -1.786  -3.071  10.737  0.00  0.00    -0.252 OA
ATOM     16  N   UNL     1      -2.172  -2.509   8.582  0.00  0.00    -0.285 N 
ATOM     17  H   UNL     1      -4.074  -4.200  10.443  0.00  0.00    +0.159 HD
ATOM     18  H   UNL     1      -1.366  -2.006   8.388  0.00  0.00    +0.151 HD
ENDBRANCH   2   5
BRANCH   1  19
ATOM     19  C   UNL     1       0.030  -0.352   2.503  0.00  0.00    +0.136 C 
ATOM     20  C   UNL     1       1.431  -0.531   3.091  0.00  0.00    +0.036 C 
BRANCH  19  30
ATOM     21  C   UNL     1      -0.018   1.503   0.010  0.00  0.00    +0.048 C 
ATOM     22  C   UNL     1       0.002  -0.004   0.002  0.00  0.00    +0.000 A 
ATOM     23  C   UNL     1       0.009  -0.879  -1.177  0.00  0.00    +0.027 A 
ATOM     24  C   UNL     1      -0.000  -0.658  -2.553  0.00  0.00    +0.057 A 
ATOM     25  C   UNL     1       0.011  -1.736  -3.417  0.00  0.00    +0.121 A 
ATOM     26  C   UNL     1       0.031  -3.034  -2.914  0.00  0.00    +0.049 A 
ATOM     27  C   UNL     1       0.041  -3.261  -1.556  0.00  0.00    +0.050 A 
ATOM     28  C   UNL     1       0.030  -2.189  -0.672  0.00  0.00    +0.136 A 
ATOM     29  O   UNL     1       0.035  -2.099   0.675  0.00  0.00    -0.458 OA
ATOM     30  C   UNL     1       0.023  -0.814   1.069  0.00  0.00    +0.129 A 
BRANCH  25  31
ATOM     31  O   UNL     1       0.001  -1.529  -4.761  0.00  0.00    -0.495 OA
ATOM     32  C   UNL     1       0.013  -2.689  -5.596  0.00  0.00    +0.277 C 
ENDBRANCH  25  31
ENDBRANCH  19  30
ENDBRANCH   1  19
TORSDOF 4
