REMARK  Name = ZINC04655570
REMARK  7 active torsions:
REMARK  status: ('A' for Active; 'I' for Inactive)
REMARK    1  A    between atoms: C_1  and  C_2
REMARK    2  A    between atoms: C_2  and  C_3
REMARK    3  A    between atoms: C_6  and  C_9
REMARK    4  A    between atoms: C_11  and  C_18
REMARK    5  A    between atoms: C_13  and  C_14
REMARK    6  A    between atoms: C_13  and  C_16
REMARK    7  A    between atoms: C_18  and  C_20
REMARK                            x       y       z     vdW  Elec       q    Type
REMARK                         _______ _______ _______ _____ _____    ______ ____
ROOT
ATOM      1  C   UNL     1       1.906  -4.157  -2.129  0.00  0.00    +0.066 C 
ATOM      2  C   UNL     1       1.261  -2.842  -2.574  0.00  0.00    +0.100 C 
ATOM      3  C   UNL     1       0.601  -4.176  -2.929  0.00  0.00    +0.160 C 
ENDROOT
BRANCH   1   7
ATOM      4  C   UNL     1       5.469  -5.386  -4.139  0.00  0.00    -0.048 A 
ATOM      5  C   UNL     1       5.216  -5.822  -2.852  0.00  0.00    +0.004 A 
ATOM      6  C   UNL     1       4.063  -5.425  -2.201  0.00  0.00    +0.004 A 
ATOM      7  C   UNL     1       3.163  -4.590  -2.838  0.00  0.00    -0.041 A 
ATOM      8  C   UNL     1       3.413  -4.158  -4.127  0.00  0.00    +0.004 A 
ATOM      9  C   UNL     1       4.569  -4.552  -4.776  0.00  0.00    +0.004 A 
BRANCH   4  11
ATOM     10  C   UNL     1       6.460  -7.116  -5.614  0.00  0.00    +0.009 C 
ATOM     11  C   UNL     1       6.727  -5.819  -4.848  0.00  0.00    +0.032 C 
ENDBRANCH   4  11
ENDBRANCH   1   7
BRANCH   3  12
ATOM     12  C   UNL     1      -0.632  -4.537  -2.210  0.00  0.00    +0.086 C 
ATOM     13  N   UNL     1      -1.584  -4.815  -1.656  0.00  0.00    -0.195 NA
ENDBRANCH   3  12
BRANCH   3  14
ATOM     14  C   UNL     1       0.670  -4.616  -4.332  0.00  0.00    +0.086 C 
ATOM     15  N   UNL     1       0.723  -4.956  -5.415  0.00  0.00    -0.195 NA
ENDBRANCH   3  14
BRANCH   2  16
ATOM     16  C   UNL     1       0.600  -1.998  -1.515  0.00  0.00    +0.146 C 
ATOM     17  O   UNL     1       0.188  -2.513  -0.503  0.00  0.00    -0.296 OA
BRANCH  16  18
ATOM     18  C   UNL     1       0.452  -0.512  -1.719  0.00  0.00    +0.030 C 
ATOM     19  C   UNL     1      -0.247   0.102  -0.505  0.00  0.00    +0.018 C 
ATOM     20  C   UNL     1      -0.397   1.611  -0.712  0.00  0.00    -0.010 C 
ATOM     21  C   UNL     1       0.987   2.242  -0.877  0.00  0.00    +0.007 C 
ATOM     22  C   UNL     1       1.686   1.628  -2.091  0.00  0.00    -0.010 C 
ATOM     23  C   UNL     1       1.836   0.119  -1.884  0.00  0.00    +0.018 C 
ATOM     24  C   UNL     1       0.853   1.890  -3.347  0.00  0.00    +0.007 C 
ATOM     25  C   UNL     1      -0.531   1.258  -3.182  0.00  0.00    -0.010 C 
ATOM     26  C   UNL     1      -1.231   1.873  -1.968  0.00  0.00    +0.007 C 
ATOM     27  C   UNL     1      -0.381  -0.250  -2.975  0.00  0.00    +0.018 C 
ENDBRANCH  16  18
ENDBRANCH   2  16
TORSDOF 6
