REMARK  Name = ZINC22153436
REMARK  9 active torsions:
REMARK  status: ('A' for Active; 'I' for Inactive)
REMARK    1  A    between atoms: C_1  and  C_2
REMARK    2  A    between atoms: C_2  and  C_3
REMARK    3  A    between atoms: C_3  and  C_4
REMARK    4  A    between atoms: C_4  and  C_5
REMARK    5  A    between atoms: C_5  and  C_7
REMARK    6  A    between atoms: C_5  and  C_9
REMARK    7  A    between atoms: C_7  and  C_8
REMARK    8  A    between atoms: C_9  and  N_10
REMARK    9  A    between atoms: N_10  and  C_11
REMARK                            x       y       z     vdW  Elec       q    Type
REMARK                         _______ _______ _______ _____ _____    ______ ____
ROOT
ATOM      1  C   UNL     1      -2.160   0.265   5.385  0.00  0.00    +0.049 C 
ATOM      2  C   UNL     1      -2.859  -1.016   5.777  0.00  0.00    -0.030 A 
ATOM      3  C   UNL     1      -2.408  -2.296   6.009  0.00  0.00    +0.019 A 
ATOM      4  C   UNL     1      -3.304  -3.291   6.363  0.00  0.00    +0.018 A 
ATOM      5  C   UNL     1      -4.650  -2.993   6.482  0.00  0.00    +0.017 A 
ATOM      6  C   UNL     1      -5.104  -1.712   6.249  0.00  0.00    +0.024 A 
ATOM      7  C   UNL     1      -4.208  -0.705   5.893  0.00  0.00    +0.035 A 
ATOM      8  N   UNL     1      -4.418   0.645   5.611  0.00  0.00    -0.286 N 
ATOM      9  C   UNL     1      -3.274   1.287   5.306  0.00  0.00    +0.208 C 
ATOM     10  O   UNL     1      -3.156   2.460   5.021  0.00  0.00    -0.277 OA
ATOM     11 BR   UNL     1      -2.690  -5.050   6.683  0.00  0.00    -0.050 Br
ATOM     12  H   UNL     1      -5.434   1.065   5.654  0.00  0.00    +0.155 HD
ENDROOT
BRANCH   1  13
ATOM     13  N   UNL     1      -1.506   0.115   4.078  0.00  0.00    +0.390 N 
ATOM     14  H   UNL     1      -2.253   0.280   3.288  0.00  0.00    -0.084 HD
ATOM     15  H   UNL     1      -1.108  -0.908   3.998  0.00  0.00    -0.084 HD
BRANCH  13  16
ATOM     16  C   UNL     1      -0.410   1.080   3.924  0.00  0.00    -0.078 C 
BRANCH  16  17
ATOM     17  C   UNL     1       0.246   0.893   2.554  0.00  0.00    -0.028 C 
BRANCH  17  18
ATOM     18  C   UNL     1      -0.760   1.244   1.455  0.00  0.00    -0.002 C 
ATOM     19  C   UNL     1      -1.203   2.700   1.614  0.00  0.00    +0.004 C 
ENDBRANCH  17  18
BRANCH  17  20
ATOM     20  C   UNL     1       1.464   1.812   2.442  0.00  0.00    +0.002 C 
BRANCH  20  21
ATOM     21  C   UNL     1       2.197   1.529   1.129  0.00  0.00    -0.000 C 
BRANCH  21  23
ATOM     22  C   UNL     1       4.218   2.071  -0.237  0.00  0.00    +0.004 C 
ATOM     23  C   UNL     1       3.485   2.354   1.075  0.00  0.00    -0.003 C 
ENDBRANCH  21  23
ENDBRANCH  20  21
ENDBRANCH  17  20
ENDBRANCH  16  17
ENDBRANCH  13  16
ENDBRANCH   1  13
TORSDOF 7
