REMARK  Name = ZINC13131269
REMARK  5 active torsions:
REMARK  status: ('A' for Active; 'I' for Inactive)
REMARK    1  A    between atoms: C_1  and  C_2
REMARK    2  A    between atoms: C_6  and  C_8
REMARK    3  A    between atoms: C_11  and  C_19
REMARK    4  A    between atoms: C_23  and  O_25
REMARK    5  A    between atoms: O_25  and  C_26
REMARK                            x       y       z     vdW  Elec       q    Type
REMARK                         _______ _______ _______ _____ _____    ______ ____
ROOT
ATOM      1  C   UNL     1       0.054  -2.845   2.489  0.00  0.00    +0.143 C 
ATOM      2  C   UNL     1      -1.182  -3.749   2.571  0.00  0.00    +0.058 C 
ATOM      3  C   UNL     1      -1.036  -4.720   3.748  0.00  0.00    +0.106 C 
ATOM      4  N   UNL     1       0.137  -5.582   3.504  0.00  0.00    -0.307 N 
ATOM      5  C   UNL     1       1.276  -4.948   3.026  0.00  0.00    +0.215 A 
ATOM      6  N   UNL     1       1.255  -3.676   2.555  0.00  0.00    -0.226 N 
ATOM      7  N   UNL     1       2.562  -3.371   2.172  0.00  0.00    -0.156 NA
ATOM      8  C   UNL     1       3.286  -4.433   2.420  0.00  0.00    +0.247 A 
ATOM      9  N   UNL     1       2.501  -5.392   2.935  0.00  0.00    -0.202 NA
ATOM     10  H   UNL     1       0.113  -6.538   3.669  0.00  0.00    +0.149 HD
ENDROOT
BRANCH   1  16
ATOM     11  C   UNL     1      -0.018   1.503   0.010  0.00  0.00    +0.044 C 
ATOM     12  C   UNL     1       0.002  -0.004   0.002  0.00  0.00    -0.050 A 
ATOM     13  C   UNL     1       0.006  -0.689  -1.199  0.00  0.00    +0.003 A 
ATOM     14  C   UNL     1       0.025  -2.071  -1.207  0.00  0.00    +0.001 A 
ATOM     15  C   UNL     1       0.040  -2.768  -0.013  0.00  0.00    +0.006 A 
ATOM     16  C   UNL     1       0.037  -2.084   1.188  0.00  0.00    -0.023 A 
ATOM     17  C   UNL     1       0.023  -0.702   1.195  0.00  0.00    +0.009 A 
ENDBRANCH   1  16
BRANCH   3  18
ATOM     18  C   UNL     1      -2.277  -5.567   3.862  0.00  0.00    -0.024 A 
ATOM     19  C   UNL     1      -2.444  -6.662   3.033  0.00  0.00    +0.006 A 
ATOM     20  C   UNL     1      -3.581  -7.441   3.135  0.00  0.00    +0.004 A 
ATOM     21  C   UNL     1      -4.554  -7.128   4.066  0.00  0.00    +0.045 A 
ATOM     22  C   UNL     1      -4.388  -6.031   4.898  0.00  0.00    +0.120 A 
ATOM     23  C   UNL     1      -3.243  -5.254   4.798  0.00  0.00    +0.051 A 
BRANCH  22  24
ATOM     24  O   UNL     1      -5.343  -5.721   5.814  0.00  0.00    -0.495 OA
ATOM     25  C   UNL     1      -6.492  -6.569   5.865  0.00  0.00    +0.277 C 
ENDBRANCH  22  24
ENDBRANCH   3  18
TORSDOF 3
