REMARK  Name = ZINC67389775
REMARK  11 active torsions:
REMARK  status: ('A' for Active; 'I' for Inactive)
REMARK    1  A    between atoms: C_1  and  C_2
REMARK    2  A    between atoms: C_5  and  C_30
REMARK    3  A    between atoms: N_8  and  C_10
REMARK    4  A    between atoms: C_10  and  C_11
REMARK    5  A    between atoms: C_11  and  N_12
REMARK    6  A    between atoms: N_15  and  C_16
REMARK    7  A    between atoms: C_16  and  C_18
REMARK    8  A    between atoms: C_16  and  C_19
REMARK    9  A    between atoms: C_23  and  S_25
REMARK   10  A    between atoms: S_25  and  N_28
REMARK   11  A    between atoms: N_28  and  C_29
REMARK                            x       y       z     vdW  Elec       q    Type
REMARK                         _______ _______ _______ _____ _____    ______ ____
ROOT
ATOM      1  N   UNL     1       2.819  -0.203   4.893  0.00  0.00    -0.301 N 
ATOM      2  C   UNL     1       2.398   0.248   6.091  0.00  0.00    +0.300 C 
ATOM      3  O   UNL     1       1.450   1.007   6.155  0.00  0.00    -0.253 OA
ATOM      4  N   UNL     1       3.026  -0.142   7.217  0.00  0.00    -0.293 N 
ATOM      5  H   UNL     1       3.575  -0.809   4.842  0.00  0.00    +0.150 HD
ATOM      6  H   UNL     1       3.782  -0.748   7.166  0.00  0.00    +0.151 HD
ENDROOT
BRANCH   4   7
ATOM      7  C   UNL     1       2.568   0.348   8.519  0.00  0.00    +0.102 C 
ATOM      8  C   UNL     1       1.427  -0.536   9.025  0.00  0.00    +0.033 C 
BRANCH   7   9
ATOM      9  C   UNL     1       3.710   0.306   9.502  0.00  0.00    -0.026 A 
ATOM     10  C   UNL     1       4.588  -0.762   9.496  0.00  0.00    +0.005 A 
ATOM     11  C   UNL     1       5.635  -0.801  10.398  0.00  0.00    +0.002 A 
ATOM     12  C   UNL     1       5.804   0.228  11.306  0.00  0.00    +0.028 A 
ATOM     13  C   UNL     1       4.927   1.296  11.311  0.00  0.00    +0.106 A 
ATOM     14  C   UNL     1       3.882   1.337  10.406  0.00  0.00    +0.034 A 
BRANCH  13  15
ATOM     15  S   UNL     1       5.143   2.607  12.468  0.00  0.00    +0.058 S 
ATOM     16  O   UNL     1       3.871   3.220  12.629  0.00  0.00    -0.153 OA
ATOM     17  O   UNL     1       5.872   2.068  13.562  0.00  0.00    -0.153 OA
BRANCH  15  18
ATOM     18  N   UNL     1       6.124   3.734  11.754  0.00  0.00    -0.193 NA
ATOM     19  C   UNL     1       5.664   4.459  10.567  0.00  0.00    +0.127 C 
ATOM     20  H   UNL     1       7.004   3.913  12.121  0.00  0.00    +0.148 HD
ENDBRANCH  15  18
ENDBRANCH  13  15
ENDBRANCH   7   9
ENDBRANCH   4   7
BRANCH   1  21
ATOM     21  C   UNL     1       2.136   0.221   3.668  0.00  0.00    +0.087 C 
BRANCH  21  22
ATOM     22  C   UNL     1       2.808  -0.431   2.458  0.00  0.00    -0.060 C 
BRANCH  22  28
ATOM     23  C   UNL     1      -0.019   1.526   0.010  0.00  0.00    +0.005 C 
ATOM     24  C   UNL     1       0.002  -0.004   0.002  0.00  0.00    -0.031 C 
ATOM     25  C   UNL     1       0.721  -0.499  -1.257  0.00  0.00    +0.003 C 
ATOM     26  C   UNL     1       2.177  -0.027  -1.220  0.00  0.00    -0.031 C 
ATOM     27  C   UNL     1       2.839  -0.534   0.063  0.00  0.00    -0.076 C 
ATOM     28  N   UNL     1       2.123  -0.005   1.230  0.00  0.00    +0.381 N 
ATOM     29  C   UNL     1       0.744  -0.512   1.240  0.00  0.00    -0.076 C 
ATOM     30  C   UNL     1       2.924  -0.581  -2.434  0.00  0.00    +0.005 C 
ATOM     31  H   UNL     1       2.109   1.003   1.187  0.00  0.00    -0.082 HD
ENDBRANCH  22  28
ENDBRANCH  21  22
ENDBRANCH   1  21
TORSDOF 7
