REMARK  Name = ZINC09693126
REMARK  4 active torsions:
REMARK  status: ('A' for Active; 'I' for Inactive)
REMARK    1  A    between atoms: C_1  and  C_2
REMARK    2  A    between atoms: C_5  and  C_8
REMARK    3  A    between atoms: N_15  and  C_22
REMARK    4  A    between atoms: C_19  and  C_20
REMARK                            x       y       z     vdW  Elec       q    Type
REMARK                         _______ _______ _______ _____ _____    ______ ____
ROOT
ATOM      1  C   UNL     1      -2.526  10.539  -0.651  0.00  0.00    +0.070 C 
ATOM      2  C   UNL     1      -2.985   9.979   0.700  0.00  0.00    +0.110 C 
ATOM      3  C   UNL     1      -2.685   8.505   0.750  0.00  0.00    +0.222 C 
ATOM      4  O   UNL     1      -3.440   7.761   1.340  0.00  0.00    -0.275 OA
ATOM      5  N   UNL     1      -1.584   7.999   0.146  0.00  0.00    -0.248 N 
ATOM      6  C   UNL     1      -1.435   6.551   0.134  0.00  0.00    +0.222 C 
ATOM      7  N   UNL     1      -0.080   6.051   0.036  0.00  0.00    -0.304 N 
ATOM      8  C   UNL     1       0.667   6.593  -1.105  0.00  0.00    +0.182 C 
ATOM      9  S   UNL     1       0.964   8.354  -0.779  0.00  0.00    -0.090 S 
ATOM     10  C   UNL     1      -0.705   8.853  -0.486  0.00  0.00    +0.087 C 
ATOM     11  C   UNL     1      -1.111  10.086  -0.902  0.00  0.00    +0.065 C 
ENDROOT
BRANCH   1  16
ATOM     12  C   UNL     1      -5.973   8.559  -4.845  0.00  0.00    +0.044 C 
ATOM     13  C   UNL     1      -5.074   9.075  -3.752  0.00  0.00    -0.050 A 
ATOM     14  C   UNL     1      -4.969  10.436  -3.527  0.00  0.00    +0.003 A 
ATOM     15  C   UNL     1      -4.144  10.909  -2.524  0.00  0.00    +0.004 A 
ATOM     16  C   UNL     1      -3.425  10.023  -1.744  0.00  0.00    -0.039 A 
ATOM     17  C   UNL     1      -3.526   8.663  -1.972  0.00  0.00    +0.004 A 
ATOM     18  C   UNL     1      -4.354   8.189  -2.973  0.00  0.00    +0.003 A 
ENDBRANCH   1  16
BRANCH   7  19
ATOM     19  C   UNL     1      -0.061   4.654   0.028  0.00  0.00    +0.032 A 
ATOM     20  C   UNL     1       1.150   3.974   0.013  0.00  0.00    +0.024 A 
ATOM     21  C   UNL     1       1.166   2.593   0.005  0.00  0.00    +0.017 A 
ATOM     22  C   UNL     1      -0.024   1.887   0.012  0.00  0.00    +0.018 A 
ATOM     23  C   UNL     1      -1.232   2.561   0.022  0.00  0.00    +0.017 A 
ATOM     24  C   UNL     1      -1.254   3.942   0.035  0.00  0.00    +0.024 A 
ATOM     25 BR   UNL     1       0.002  -0.004   0.002  0.00  0.00    -0.050 Br
ENDBRANCH   7  19
BRANCH  11  26
ATOM     26  C   UNL     1      -0.192  10.951  -1.579  0.00  0.00    +0.098 C 
ATOM     27  N   UNL     1       0.537  11.638  -2.115  0.00  0.00    -0.191 NA
ENDBRANCH  11  26
TORSDOF 3
