REMARK  Name = ZINC39871660
REMARK  5 active torsions:
REMARK  status: ('A' for Active; 'I' for Inactive)
REMARK    1  A    between atoms: C_1  and  C_2
REMARK    2  A    between atoms: C_2  and  O_3
REMARK    3  A    between atoms: O_3  and  C_4
REMARK    4  A    between atoms: C_7  and  N_10
REMARK    5  A    between atoms: C_11  and  C_26
REMARK                            x       y       z     vdW  Elec       q    Type
REMARK                         _______ _______ _______ _____ _____    ______ ____
ROOT
ATOM      1  N   UNL     1      -1.988  -5.988  -0.012  0.00  0.00    -0.253 N 
ATOM      2  C   UNL     1      -3.273  -6.707  -0.015  0.00  0.00    +0.150 C 
ATOM      3  C   UNL     1      -2.926  -8.160  -0.019  0.00  0.00    +0.072 A 
ATOM      4  C   UNL     1      -3.775  -9.355  -0.014  0.00  0.00    +0.199 A 
ATOM      5  O   UNL     1      -4.981  -9.318  -0.181  0.00  0.00    -0.287 OA
ATOM      6  C   UNL     1      -3.025 -10.616   0.215  0.00  0.00    +0.064 A 
ATOM      7  C   UNL     1      -3.705 -11.812   0.445  0.00  0.00    +0.015 A 
ATOM      8  C   UNL     1      -2.999 -12.963   0.659  0.00  0.00    +0.001 A 
ATOM      9  C   UNL     1      -1.612 -12.944   0.647  0.00  0.00    +0.004 A 
ATOM     10  C   UNL     1      -0.924 -11.773   0.420  0.00  0.00    +0.047 A 
ATOM     11  C   UNL     1      -1.621 -10.586   0.197  0.00  0.00    +0.139 A 
ATOM     12  O   UNL     1      -0.925  -9.449  -0.034  0.00  0.00    -0.450 OA
ATOM     13  C   UNL     1      -1.564  -8.263  -0.023  0.00  0.00    +0.199 A 
ATOM     14  C   UNL     1      -0.998  -6.903  -0.022  0.00  0.00    +0.287 C 
ATOM     15  O   UNL     1       0.189  -6.644  -0.026  0.00  0.00    -0.266 OA
ENDROOT
BRANCH   2  16
ATOM     16  C   UNL     1      -4.064  -6.363   1.221  0.00  0.00    -0.022 A 
ATOM     17  C   UNL     1      -3.423  -6.233   2.438  0.00  0.00    +0.007 A 
ATOM     18  C   UNL     1      -4.148  -5.918   3.572  0.00  0.00    +0.020 A 
ATOM     19  C   UNL     1      -5.516  -5.732   3.488  0.00  0.00    +0.041 A 
ATOM     20  C   UNL     1      -6.158  -5.862   2.269  0.00  0.00    +0.020 A 
ATOM     21  C   UNL     1      -5.431  -6.172   1.135  0.00  0.00    +0.007 A 
ATOM     22 CL   UNL     1      -6.428  -5.336   4.911  0.00  0.00    -0.084 Cl
ENDBRANCH   2  16
BRANCH   1  26
ATOM     23  C   UNL     1      -1.498  -1.849   0.006  0.00  0.00    +0.121 A 
ATOM     24  C   UNL     1      -0.387  -2.679  -0.003  0.00  0.00    +0.047 A 
ATOM     25  C   UNL     1      -0.548  -4.050  -0.009  0.00  0.00    +0.027 A 
ATOM     26  C   UNL     1      -1.824  -4.598  -0.005  0.00  0.00    +0.038 A 
ATOM     27  C   UNL     1      -2.937  -3.767   0.004  0.00  0.00    +0.027 A 
ATOM     28  C   UNL     1      -2.773  -2.396   0.016  0.00  0.00    +0.047 A 
BRANCH  23  29
ATOM     29  O   UNL     1      -1.339  -0.499   0.012  0.00  0.00    -0.492 OA
BRANCH  29  31
ATOM     30  C   UNL     1      -0.019   1.526   0.010  0.00  0.00    +0.048 C 
ATOM     31  C   UNL     1       0.002  -0.004   0.002  0.00  0.00    +0.225 C 
ENDBRANCH  29  31
ENDBRANCH  23  29
ENDBRANCH   1  26
TORSDOF 4
