REMARK  Name = ZINC16856016
REMARK  13 active torsions:
REMARK  status: ('A' for Active; 'I' for Inactive)
REMARK    1  A    between atoms: C_1  and  C_2
REMARK    2  A    between atoms: C_5  and  C_35
REMARK    3  A    between atoms: C_6  and  C_8
REMARK    4  A    between atoms: C_8  and  C_9
REMARK    5  A    between atoms: C_9  and  S_10
REMARK    6  A    between atoms: S_10  and  C_12
REMARK    7  A    between atoms: C_12  and  C_13
REMARK    8  A    between atoms: C_13  and  C_14
REMARK    9  A    between atoms: C_15  and  C_22
REMARK   10  A    between atoms: C_17  and  C_21
REMARK   11  A    between atoms: C_19  and  O_20
REMARK   12  A    between atoms: C_23  and  C_24
REMARK   13  A    between atoms: C_33  and  O_34
REMARK                            x       y       z     vdW  Elec       q    Type
REMARK                         _______ _______ _______ _____ _____    ______ ____
ROOT
ATOM      1  C   UNL     1      -3.045   8.802   1.889  0.00  0.00    +0.040 A 
ATOM      2  C   UNL     1      -2.831   7.778   0.959  0.00  0.00    +0.074 A 
ATOM      3  N   UNL     1      -3.798   7.491   0.082  0.00  0.00    -0.232 NA
ATOM      4  C   UNL     1      -4.936   8.151   0.095  0.00  0.00    +0.130 A 
ATOM      5  N   UNL     1      -5.172   9.121   0.956  0.00  0.00    -0.198 NA
ATOM      6  C   UNL     1      -4.261   9.473   1.859  0.00  0.00    +0.219 A 
ATOM      7  C   UNL     1      -6.002   7.791  -0.909  0.00  0.00    +0.088 C 
ENDROOT
BRANCH   6   8
ATOM      8  O   UNL     1      -4.516  10.473   2.738  0.00  0.00    -0.492 OA
ATOM      9  H   UNL     1      -4.252  11.348   2.425  0.00  0.00    +0.294 HD
ENDBRANCH   6   8
BRANCH   2  10
ATOM     10  C   UNL     1      -1.563   7.034   0.944  0.00  0.00    +0.029 C 
ATOM     11  C   UNL     1      -1.370   6.050   0.044  0.00  0.00    +0.014 C 
BRANCH  11  12
ATOM     12  C   UNL     1      -0.104   5.307   0.029  0.00  0.00    +0.024 A 
ATOM     13  C   UNL     1      -0.095   3.845   0.023  0.00  0.00    -0.007 A 
ATOM     14  C   UNL     1      -1.285   3.107   0.031  0.00  0.00    +0.009 A 
ATOM     15  C   UNL     1      -1.234   1.745   0.017  0.00  0.00    +0.001 A 
ATOM     16  C   UNL     1      -0.013   1.076   0.008  0.00  0.00    +0.001 A 
ATOM     17  C   UNL     1       1.163   1.762   0.000  0.00  0.00    +0.008 A 
ATOM     18  C   UNL     1       1.148   3.168   0.008  0.00  0.00    -0.017 A 
ATOM     19  C   UNL     1       2.342   3.910  -0.000  0.00  0.00    +0.012 A 
ATOM     20  C   UNL     1       2.317   5.269   0.006  0.00  0.00    +0.046 A 
ATOM     21  C   UNL     1       1.119   5.981   0.020  0.00  0.00    +0.125 A 
BRANCH  21  22
ATOM     22  O   UNL     1       1.141   7.338   0.026  0.00  0.00    -0.506 OA
ATOM     23  H   UNL     1       1.139   7.735  -0.856  0.00  0.00    +0.292 HD
ENDBRANCH  21  22
ENDBRANCH  11  12
ENDBRANCH   2  10
BRANCH   1  24
ATOM     24  C   UNL     1      -1.984   9.167   2.895  0.00  0.00    +0.056 C 
BRANCH  24  25
ATOM     25  C   UNL     1      -1.074  10.248   2.307  0.00  0.00    +0.108 C 
BRANCH  25  26
ATOM     26  S   UNL     1       0.203  10.688   3.518  0.00  0.00    +0.023 S 
ATOM     27  O   UNL     1      -0.411  11.246   4.672  0.00  0.00    -0.257 OA
BRANCH  26  28
ATOM     28  C   UNL     1       1.183  11.962   2.679  0.00  0.00    +0.108 C 
BRANCH  28  29
ATOM     29  C   UNL     1       2.311  12.428   3.601  0.00  0.00    +0.048 C 
BRANCH  29  35
ATOM     30  C   UNL     1       6.276  13.725   0.836  0.00  0.00    +0.044 C 
ATOM     31  C   UNL     1       5.023  14.107   1.581  0.00  0.00    -0.050 A 
ATOM     32  C   UNL     1       4.620  15.429   1.623  0.00  0.00    +0.003 A 
ATOM     33  C   UNL     1       3.471  15.780   2.307  0.00  0.00    +0.004 A 
ATOM     34  C   UNL     1       2.720  14.808   2.942  0.00  0.00    -0.047 A 
ATOM     35  C   UNL     1       3.126  13.487   2.904  0.00  0.00    -0.043 A 
ATOM     36  C   UNL     1       4.276  13.136   2.221  0.00  0.00    +0.007 A 
ATOM     37  C   UNL     1       1.464  15.189   3.681  0.00  0.00    +0.044 C 
ENDBRANCH  29  35
ENDBRANCH  28  29
ENDBRANCH  26  28
ENDBRANCH  25  26
ENDBRANCH  24  25
ENDBRANCH   1  24
TORSDOF 10
