REMARK  Name = ZINC32643788
REMARK  13 active torsions:
REMARK  status: ('A' for Active; 'I' for Inactive)
REMARK    1  A    between atoms: C_1  and  O_2
REMARK    2  A    between atoms: O_2  and  C_3
REMARK    3  A    between atoms: C_6  and  S_9
REMARK    4  A    between atoms: S_9  and  N_12
REMARK    5  A    between atoms: C_21  and  C_23
REMARK    6  A    between atoms: N_25  and  C_26
REMARK    7  A    between atoms: C_26  and  C_27
REMARK    8  A    between atoms: C_28  and  O_37
REMARK    9  A    between atoms: C_30  and  O_35
REMARK   10  A    between atoms: C_32  and  O_33
REMARK   11  A    between atoms: O_33  and  C_34
REMARK   12  A    between atoms: O_35  and  C_36
REMARK   13  A    between atoms: O_37  and  C_38
REMARK                            x       y       z     vdW  Elec       q    Type
REMARK                         _______ _______ _______ _____ _____    ______ ____
ROOT
ATOM      1  N   UNL     1      -0.850   0.257   7.667  0.00  0.00    -0.160 NA
ATOM      2  C   UNL     1       0.002  -0.065   8.817  0.00  0.00    +0.145 C 
ATOM      3  C   UNL     1       1.371  -0.475   8.336  0.00  0.00    -0.028 A 
ATOM      4  C   UNL     1       2.241  -1.038   9.261  0.00  0.00    +0.005 A 
ATOM      5  C   UNL     1       3.510  -1.425   8.883  0.00  0.00    +0.000 A 
ATOM      6  C   UNL     1       3.918  -1.251   7.574  0.00  0.00    +0.000 A 
ATOM      7  C   UNL     1       3.054  -0.695   6.654  0.00  0.00    +0.004 A 
ATOM      8  C   UNL     1       1.774  -0.307   7.030  0.00  0.00    -0.041 A 
ATOM      9  C   UNL     1       0.882   0.280   5.969  0.00  0.00    +0.065 C 
ATOM     10  C   UNL     1      -0.259   1.079   6.598  0.00  0.00    +0.170 C 
ENDROOT
BRANCH  10  11
ATOM     11  C   UNL     1      -1.302   1.386   5.555  0.00  0.00    +0.233 C 
ATOM     12  O   UNL     1      -1.700   0.508   4.818  0.00  0.00    -0.274 OA
ATOM     13  N   UNL     1      -1.794   2.635   5.441  0.00  0.00    -0.310 N 
ATOM     14  H   UNL     1      -1.434   3.431   6.109  0.00  0.00    +0.149 HD
BRANCH  13  15
ATOM     15  C   UNL     1      -2.808   2.934   4.427  0.00  0.00    +0.147 C 
BRANCH  15  16
ATOM     16  C   UNL     1      -3.187   4.390   4.508  0.00  0.00    +0.053 A 
ATOM     17  C   UNL     1      -4.224   4.792   5.336  0.00  0.00    +0.132 A 
ATOM     18  C   UNL     1      -4.575   6.132   5.407  0.00  0.00    +0.091 A 
ATOM     19  C   UNL     1      -3.886   7.070   4.653  0.00  0.00    +0.127 A 
ATOM     20  C   UNL     1      -2.846   6.669   3.829  0.00  0.00    +0.091 A 
ATOM     21  C   UNL     1      -2.495   5.329   3.758  0.00  0.00    +0.132 A 
BRANCH  21  22
ATOM     22  O   UNL     1      -1.475   4.936   2.950  0.00  0.00    -0.495 OA
ATOM     23  C   UNL     1      -0.810   5.956   2.202  0.00  0.00    +0.277 C 
ENDBRANCH  21  22
BRANCH  19  24
ATOM     24  O   UNL     1      -4.231   8.383   4.722  0.00  0.00    -0.495 OA
ATOM     25  C   UNL     1      -5.312   8.725   5.592  0.00  0.00    +0.277 C 
ENDBRANCH  19  24
BRANCH  17  26
ATOM     26  O   UNL     1      -4.898   3.873   6.075  0.00  0.00    -0.495 OA
ATOM     27  C   UNL     1      -5.958   4.356   6.903  0.00  0.00    +0.277 C 
ENDBRANCH  17  26
ENDBRANCH  15  16
ENDBRANCH  13  15
ENDBRANCH  10  11
BRANCH   1  28
ATOM     28  S   UNL     1      -2.413  -0.281   7.576  0.00  0.00    +0.062 S 
ATOM     29  O   UNL     1      -2.881  -0.400   8.912  0.00  0.00    -0.153 OA
ATOM     30  O   UNL     1      -3.066   0.531   6.609  0.00  0.00    -0.153 OA
BRANCH  28  34
ATOM     31  C   UNL     1      -2.288  -4.474   5.871  0.00  0.00    +0.120 A 
ATOM     32  C   UNL     1      -2.217  -4.280   7.243  0.00  0.00    +0.047 A 
ATOM     33  C   UNL     1      -2.256  -2.999   7.760  0.00  0.00    +0.032 A 
ATOM     34  C   UNL     1      -2.365  -1.913   6.912  0.00  0.00    +0.106 A 
ATOM     35  C   UNL     1      -2.440  -2.104   5.545  0.00  0.00    +0.032 A 
ATOM     36  C   UNL     1      -2.397  -3.382   5.022  0.00  0.00    +0.047 A 
BRANCH  31  38
ATOM     37  C   UNL     1      -2.327  -5.858   3.938  0.00  0.00    +0.277 C 
ATOM     38  O   UNL     1      -2.250  -5.733   5.359  0.00  0.00    -0.495 OA
ENDBRANCH  31  38
ENDBRANCH  28  34
ENDBRANCH   1  28
TORSDOF 9
