REMARK  Name = ZINC67247479
REMARK  7 active torsions:
REMARK  status: ('A' for Active; 'I' for Inactive)
REMARK    1  A    between atoms: C_3  and  N_18
REMARK    2  A    between atoms: C_6  and  C_7
REMARK    3  A    between atoms: C_7  and  N_8
REMARK    4  A    between atoms: N_8  and  C_9
REMARK    5  A    between atoms: C_9  and  C_10
REMARK    6  A    between atoms: C_21  and  C_24
REMARK    7  A    between atoms: C_24  and  O_25
REMARK                            x       y       z     vdW  Elec       q    Type
REMARK                         _______ _______ _______ _____ _____    ______ ____
ROOT
ATOM      1  C   UNL     1      -0.017   1.379   0.026  0.00  0.00    +0.003 A 
ATOM      2  C   UNL     1       1.169   2.087   0.018  0.00  0.00    +0.023 A 
ATOM      3  C   UNL     1       2.381   1.409  -0.013  0.00  0.00    +0.030 A 
ATOM      4  C   UNL     1       2.396   0.020  -0.037  0.00  0.00    +0.023 A 
ATOM      5  C   UNL     1       1.207  -0.682  -0.029  0.00  0.00    +0.003 A 
ATOM      6  C   UNL     1       0.002  -0.004   0.002  0.00  0.00    -0.064 A 
ENDROOT
BRANCH   3   7
ATOM      7  N   UNL     1       3.582   2.122  -0.021  0.00  0.00    -0.330 N 
ATOM      8  C   UNL     1       4.870   1.420   0.067  0.00  0.00    +0.105 C 
ATOM      9  C   UNL     1       5.753   1.862  -1.104  0.00  0.00    +0.024 C 
ATOM     10  C   UNL     1       5.867   3.388  -1.105  0.00  0.00    +0.017 C 
ATOM     11  C   UNL     1       4.479   4.005  -1.287  0.00  0.00    +0.024 C 
ATOM     12  C   UNL     1       3.582   3.588  -0.124  0.00  0.00    +0.105 C 
BRANCH  10  13
ATOM     13  C   UNL     1       6.777   3.831  -2.252  0.00  0.00    +0.159 C 
BRANCH  13  14
ATOM     14  O   UNL     1       6.978   5.244  -2.183  0.00  0.00    -0.395 OA
ATOM     15  H   UNL     1       7.546   5.595  -2.882  0.00  0.00    +0.209 HD
ENDBRANCH  13  14
ENDBRANCH  10  13
ENDBRANCH   3   7
BRANCH   6  16
ATOM     16  C   UNL     1      -1.294  -0.773   0.011  0.00  0.00    -0.046 C 
BRANCH  16  17
ATOM     17  N   UNL     1      -1.738  -1.000  -1.371  0.00  0.00    +0.384 N 
ATOM     18  H   UNL     1      -1.877  -0.112  -1.829  0.00  0.00    -0.085 HD
ATOM     19  H   UNL     1      -1.036  -1.528  -1.868  0.00  0.00    -0.085 HD
BRANCH  17  20
ATOM     20  C   UNL     1      -3.001  -1.750  -1.363  0.00  0.00    -0.046 C 
BRANCH  20  21
ATOM     21  C   UNL     1      -3.457  -1.982  -2.780  0.00  0.00    -0.063 A 
ATOM     22  C   UNL     1      -4.272  -1.056  -3.404  0.00  0.00    +0.003 A 
ATOM     23  C   UNL     1      -4.692  -1.268  -4.704  0.00  0.00    +0.021 A 
ATOM     24  C   UNL     1      -4.295  -2.407  -5.382  0.00  0.00    +0.059 A 
ATOM     25  C   UNL     1      -3.478  -3.334  -4.757  0.00  0.00    +0.059 A 
ATOM     26  C   UNL     1      -3.055  -3.118  -3.458  0.00  0.00    +0.023 A 
ATOM     27 CL   UNL     1      -2.979  -4.764  -5.606  0.00  0.00    -0.082 Cl
ATOM     28 CL   UNL     1      -4.821  -2.674  -7.014  0.00  0.00    -0.082 Cl
ENDBRANCH  20  21
ENDBRANCH  17  20
ENDBRANCH  16  17
ENDBRANCH   6  16
TORSDOF 7
