REMARK  Name = ZINC12592951
REMARK  9 active torsions:
REMARK  status: ('A' for Active; 'I' for Inactive)
REMARK    1  A    between atoms: C_1  and  C_2
REMARK    2  A    between atoms: C_2  and  C_3
REMARK    3  A    between atoms: N_5  and  C_30
REMARK    4  A    between atoms: C_9  and  S_11
REMARK    5  A    between atoms: S_11  and  C_12
REMARK    6  A    between atoms: C_12  and  C_13
REMARK    7  A    between atoms: N_15  and  C_16
REMARK    8  A    between atoms: C_17  and  C_27
REMARK    9  A    between atoms: C_22  and  C_26
REMARK                            x       y       z     vdW  Elec       q    Type
REMARK                         _______ _______ _______ _____ _____    ______ ____
ROOT
ATOM      1  C   UNL     1      -3.020   9.376  -1.077  0.00  0.00    +0.228 C 
ATOM      2  O   UNL     1      -3.868   9.717  -0.280  0.00  0.00    -0.275 OA
ATOM      3  N   UNL     1      -2.597  10.239  -2.022  0.00  0.00    -0.279 N 
ATOM      4  H   UNL     1      -1.920   9.966  -2.660  0.00  0.00    +0.155 HD
ENDROOT
BRANCH   3   5
ATOM      5  C   UNL     1      -3.130  11.518  -2.082  0.00  0.00    +0.084 A 
ATOM      6  C   UNL     1      -2.826  12.538  -2.972  0.00  0.00    +0.068 A 
ATOM      7  C   UNL     1      -3.535  13.797  -2.818  0.00  0.00    -0.023 A 
ATOM      8  C   UNL     1      -4.429  13.834  -1.806  0.00  0.00    -0.004 A 
ATOM      9  S   UNL     1      -4.343  12.227  -1.068  0.00  0.00    -0.077 S 
ATOM     10  C   UNL     1      -5.300  14.986  -1.411  0.00  0.00    +0.046 C 
ATOM     11  C   UNL     1      -5.302  16.006  -2.560  0.00  0.00    -0.009 C 
ATOM     12  C   UNL     1      -3.857  16.251  -3.005  0.00  0.00    +0.008 C 
ATOM     13  C   UNL     1      -3.313  15.010  -3.713  0.00  0.00    +0.037 C 
ATOM     14  C   UNL     1      -5.923  17.319  -2.079  0.00  0.00    +0.008 C 
BRANCH   6  15
ATOM     15  C   UNL     1      -1.827  12.352  -4.029  0.00  0.00    +0.244 C 
ATOM     16  O   UNL     1      -2.165  11.931  -5.119  0.00  0.00    -0.270 OA
ATOM     17  N   UNL     1      -0.533  12.649  -3.792  0.00  0.00    -0.325 N 
ATOM     18  H   UNL     1      -0.264  12.985  -2.923  0.00  0.00    +0.145 HD
ATOM     19  H   UNL     1       0.128  12.526  -4.492  0.00  0.00    +0.145 HD
ENDBRANCH   6  15
ENDBRANCH   3   5
BRANCH   1  20
ATOM     20  C   UNL     1      -2.441   7.986  -1.012  0.00  0.00    +0.172 C 
BRANCH  20  21
ATOM     21  S   UNL     1      -3.208   7.074   0.355  0.00  0.00    -0.088 S 
BRANCH  21  28
ATOM     22  C   UNL     1      -1.580   1.065   1.858  0.00  0.00    +0.221 C 
ATOM     23  O   UNL     1      -2.335   1.640   2.613  0.00  0.00    -0.275 OA
ATOM     24  N   UNL     1      -1.105   1.699   0.767  0.00  0.00    -0.246 N 
ATOM     25  C   UNL     1      -1.482   3.014   0.507  0.00  0.00    +0.191 A 
ATOM     26  N   UNL     1      -1.057   3.852  -0.425  0.00  0.00    -0.125 NA
ATOM     27  N   UNL     1      -1.508   5.025  -0.525  0.00  0.00    -0.133 NA
ATOM     28  C   UNL     1      -2.436   5.492   0.299  0.00  0.00    +0.160 A 
ATOM     29  S   UNL     1      -2.683   4.052   1.335  0.00  0.00    -0.024 S 
BRANCH  24  30
ATOM     30  C   UNL     1      -0.194   1.004  -0.145  0.00  0.00    +0.084 C 
ATOM     31  C   UNL     1       0.029   1.621  -1.527  0.00  0.00    +0.025 C 
ATOM     32  C   UNL     1       1.135   1.688  -0.472  0.00  0.00    +0.025 C 
ENDBRANCH  24  30
BRANCH  22  34
ATOM     33  C   UNL     1      -1.847  -0.837   3.427  0.00  0.00    +0.013 C 
ATOM     34  C   UNL     1      -1.173  -0.358   2.139  0.00  0.00    +0.093 C 
ENDBRANCH  22  34
ENDBRANCH  21  28
ENDBRANCH  20  21
ENDBRANCH   1  20
TORSDOF 7
