REMARK  Name = ZINC22929173
REMARK  5 active torsions:
REMARK  status: ('A' for Active; 'I' for Inactive)
REMARK    1  A    between atoms: C_4  and  C_7
REMARK    2  A    between atoms: C_7  and  C_8
REMARK    3  A    between atoms: C_7  and  N_14
REMARK    4  A    between atoms: N_17  and  C_20
REMARK    5  A    between atoms: N_29  and  O_30
REMARK                            x       y       z     vdW  Elec       q    Type
REMARK                         _______ _______ _______ _____ _____    ______ ____
ROOT
ATOM      1  N   UNL     1       3.803  -1.980  -0.810  0.00  0.00    -0.295 NA
ATOM      2  C   UNL     1       3.151  -1.605  -2.073  0.00  0.00    +0.067 C 
ATOM      3  C   UNL     1       3.004  -2.846  -2.956  0.00  0.00    -0.062 C 
ATOM      4  N   UNL     1       4.331  -3.418  -3.222  0.00  0.00    +0.387 N 
ATOM      5  C   UNL     1       4.960  -3.809  -1.954  0.00  0.00    -0.062 C 
ATOM      6  C   UNL     1       5.123  -2.576  -1.062  0.00  0.00    +0.067 C 
ATOM      7  H   UNL     1       4.907  -2.730  -3.684  0.00  0.00    -0.081 HD
ENDROOT
BRANCH   4   8
ATOM      8  C   UNL     1       4.191  -4.598  -4.084  0.00  0.00    -0.019 C 
ATOM      9  C   UNL     1       3.615  -4.160  -5.448  0.00  0.00    -0.005 C 
ATOM     10  C   UNL     1       3.033  -5.412  -6.184  0.00  0.00    +0.025 C 
ATOM     11  C   UNL     1       4.226  -6.335  -6.120  0.00  0.00    -0.031 C 
ATOM     12  C   UNL     1       4.331  -7.264  -5.267  0.00  0.00    -0.031 C 
ATOM     13  C   UNL     1       5.681  -7.683  -4.734  0.00  0.00    +0.033 C 
ATOM     14  C   UNL     1       5.808  -6.626  -3.607  0.00  0.00    +0.056 C 
ATOM     15  C   UNL     1       5.536  -5.259  -4.232  0.00  0.00    +0.044 C 
ATOM     16  N   UNL     1       6.461  -4.668  -4.890  0.00  0.00    -0.098 NA
BRANCH  16  17
ATOM     17  O   UNL     1       7.729  -5.280  -5.035  0.00  0.00    -0.409 OA
ATOM     18  H   UNL     1       8.362  -4.759  -5.547  0.00  0.00    +0.328 HD
ENDBRANCH  16  17
ENDBRANCH   4   8
BRANCH   1  19
ATOM     19  C   UNL     1       3.911  -0.824   0.090  0.00  0.00    +0.117 C 
BRANCH  19  23
ATOM     20  C   UNL     1       0.029   0.831   0.751  0.00  0.00    +0.000 A 
ATOM     21  C   UNL     1       1.117   1.667   0.584  0.00  0.00    +0.000 A 
ATOM     22  C   UNL     1       2.374   1.131   0.370  0.00  0.00    +0.005 A 
ATOM     23  C   UNL     1       2.542  -0.240   0.324  0.00  0.00    -0.026 A 
ATOM     24  C   UNL     1       1.454  -1.076   0.492  0.00  0.00    +0.005 A 
ATOM     25  C   UNL     1       0.197  -0.540   0.705  0.00  0.00    +0.000 A 
ENDBRANCH  19  23
BRANCH  19  26
ATOM     26  C   UNL     1       4.501  -1.264   1.405  0.00  0.00    -0.026 A 
ATOM     27  C   UNL     1       4.125  -2.472   1.961  0.00  0.00    +0.005 A 
ATOM     28  C   UNL     1       4.666  -2.877   3.167  0.00  0.00    +0.000 A 
ATOM     29  C   UNL     1       5.584  -2.072   3.817  0.00  0.00    +0.000 A 
ATOM     30  C   UNL     1       5.961  -0.865   3.260  0.00  0.00    +0.000 A 
ATOM     31  C   UNL     1       5.423  -0.463   2.052  0.00  0.00    +0.005 A 
ENDBRANCH  19  26
ENDBRANCH   1  19
TORSDOF 5
