REMARK  Name = ZINC37191456
REMARK  5 active torsions:
REMARK  status: ('A' for Active; 'I' for Inactive)
REMARK    1  A    between atoms: C_3  and  C_6
REMARK    2  A    between atoms: C_8  and  C_11
REMARK    3  A    between atoms: C_11  and  S_12
REMARK    4  A    between atoms: S_12  and  C_13
REMARK    5  A    between atoms: C_16  and  N_19
REMARK                            x       y       z     vdW  Elec       q    Type
REMARK                         _______ _______ _______ _____ _____    ______ ____
ROOT
ATOM      1  C   UNL     1       7.419   1.463  -0.068  0.00  0.00    +0.134 C 
ENDROOT
BRANCH   1   4
ATOM      2  C   UNL     1       3.739   1.809  -0.024  0.00  0.00    +0.174 A 
ATOM      3  C   UNL     1       4.865   1.038  -0.044  0.00  0.00    +0.077 A 
ATOM      4  C   UNL     1       5.974   1.893  -0.048  0.00  0.00    +0.094 A 
ATOM      5  N   UNL     1       5.544   3.124  -0.031  0.00  0.00    -0.082 NA
ATOM      6  O   UNL     1       4.128   3.099  -0.021  0.00  0.00    -0.354 OA
BRANCH   2   9
ATOM      7  C   UNL     1      -0.016   1.355   0.009  0.00  0.00    +0.008 A 
ATOM      8  C   UNL     1       1.174   2.044   0.002  0.00  0.00    +0.019 A 
ATOM      9  C   UNL     1       2.353   1.321  -0.013  0.00  0.00    +0.057 A 
ATOM     10  S   UNL     1       1.751  -0.360  -0.017  0.00  0.00    -0.093 S 
ATOM     11  C   UNL     1       0.002  -0.004   0.002  0.00  0.00    +0.046 A 
ENDBRANCH   2   9
ENDBRANCH   1   4
BRANCH   1  12
ATOM     12  S   UNL     1       7.980   1.307  -1.786  0.00  0.00    -0.100 S 
BRANCH  12  13
ATOM     13  C   UNL     1       9.663   0.806  -1.641  0.00  0.00    +0.097 A 
ATOM     14  C   UNL     1      10.419   0.594  -2.789  0.00  0.00    +0.036 A 
ATOM     15  C   UNL     1      11.739   0.201  -2.665  0.00  0.00    +0.027 A 
ATOM     16  C   UNL     1      12.263   0.031  -1.384  0.00  0.00    +0.043 A 
ATOM     17  C   UNL     1      11.450   0.260  -0.284  0.00  0.00    +0.134 A 
ATOM     18  N   UNL     1      10.195   0.640  -0.440  0.00  0.00    -0.247 NA
BRANCH  16  19
ATOM     19  N   UNL     1      13.594  -0.367  -1.210  0.00  0.00    -0.357 N 
ATOM     20  H   UNL     1      14.158  -0.526  -1.983  0.00  0.00    +0.142 HD
ATOM     21  H   UNL     1      13.953  -0.483  -0.316  0.00  0.00    +0.142 HD
ENDBRANCH  16  19
ENDBRANCH  12  13
ENDBRANCH   1  12
TORSDOF 5
