REMARK  Name = ZINC17158295
REMARK  4 active torsions:
REMARK  status: ('A' for Active; 'I' for Inactive)
REMARK    1  A    between atoms: N_13  and  C_17
REMARK    2  A    between atoms: C_17  and  C_18
REMARK    3  A    between atoms: N_20  and  N_21
REMARK    4  A    between atoms: C_22  and  C_24
REMARK                            x       y       z     vdW  Elec       q    Type
REMARK                         _______ _______ _______ _____ _____    ______ ____
ROOT
ATOM      1  C   UNL     1       1.726   3.281   0.003  0.00  0.00    +0.215 C 
ENDROOT
BRANCH   1  14
ATOM      2  C   UNL     1      -1.741  -1.484   3.613  0.00  0.00    +0.000 A 
ATOM      3  C   UNL     1      -0.485  -0.905   3.620  0.00  0.00    +0.000 A 
ATOM      4  C   UNL     1       0.059  -0.435   2.443  0.00  0.00    +0.006 A 
ATOM      5  C   UNL     1      -0.643  -0.538   1.249  0.00  0.00    -0.012 A 
ATOM      6  C   UNL     1      -1.893  -1.118   1.242  0.00  0.00    -0.042 A 
ATOM      7  C   UNL     1      -2.440  -1.589   2.429  0.00  0.00    +0.004 A 
ATOM      8  C   UNL     1      -2.706  -1.269  -0.017  0.00  0.00    +0.035 C 
ATOM      9  C   UNL     1      -2.194  -0.329  -1.106  0.00  0.00    +0.008 C 
ATOM     10  C   UNL     1      -0.681  -0.535  -1.252  0.00  0.00    +0.040 C 
ATOM     11  C   UNL     1       0.002  -0.004   0.002  0.00  0.00    +0.138 C 
ATOM     12  C   UNL     1      -0.018   1.508   0.010  0.00  0.00    +0.251 C 
ATOM     13  O   UNL     1      -0.994   2.228   0.019  0.00  0.00    -0.272 OA
ATOM     14  N   UNL     1       1.276   1.887   0.000  0.00  0.00    -0.215 N 
ATOM     15  C   UNL     1       2.099   0.831  -0.014  0.00  0.00    +0.310 C 
ATOM     16  O   UNL     1       3.311   0.919  -0.026  0.00  0.00    -0.252 OA
ATOM     17  N   UNL     1       1.433  -0.339  -0.014  0.00  0.00    -0.281 N 
ATOM     18  H   UNL     1       1.821  -1.228  -0.022  0.00  0.00    +0.152 HD
ENDBRANCH   1  14
BRANCH   1  19
ATOM     19  C   UNL     1       1.893   3.752   1.425  0.00  0.00    +0.247 C 
ATOM     20  O   UNL     1       1.660   2.997   2.345  0.00  0.00    -0.273 OA
ATOM     21  N   UNL     1       2.303   5.012   1.674  0.00  0.00    -0.233 N 
ATOM     22  H   UNL     1       2.489   5.615   0.938  0.00  0.00    +0.173 HD
BRANCH  21  23
ATOM     23  N   UNL     1       2.459   5.449   2.996  0.00  0.00    -0.234 N 
ATOM     24  C   UNL     1       2.868   6.709   3.245  0.00  0.00    +0.235 C 
ATOM     25  O   UNL     1       3.101   7.464   2.325  0.00  0.00    -0.274 OA
ATOM     26  H   UNL     1       2.272   4.845   3.732  0.00  0.00    +0.173 HD
BRANCH  24  27
ATOM     27  C   UNL     1       3.035   7.179   4.667  0.00  0.00    +0.049 C 
ATOM     28  C   UNL     1       4.075   6.307   5.373  0.00  0.00    +0.019 C 
ATOM     29  C   UNL     1       4.245   6.785   6.817  0.00  0.00    -0.009 C 
ATOM     30  C   UNL     1       4.715   8.241   6.820  0.00  0.00    +0.007 C 
ATOM     31  C   UNL     1       3.675   9.113   6.113  0.00  0.00    -0.009 C 
ATOM     32  C   UNL     1       3.505   8.636   4.670  0.00  0.00    +0.019 C 
ATOM     33  C   UNL     1       2.337   9.008   6.847  0.00  0.00    +0.007 C 
ATOM     34  C   UNL     1       1.867   7.551   6.843  0.00  0.00    -0.009 C 
ATOM     35  C   UNL     1       2.906   6.679   7.550  0.00  0.00    +0.007 C 
ATOM     36  C   UNL     1       1.697   7.074   5.400  0.00  0.00    +0.019 C 
ENDBRANCH  24  27
ENDBRANCH  21  23
ENDBRANCH   1  19
TORSDOF 4
