REMARK  Name = ZINC63212873
REMARK  7 active torsions:
REMARK  status: ('A' for Active; 'I' for Inactive)
REMARK    1  A    between atoms: C_1  and  C_2
REMARK    2  A    between atoms: C_5  and  S_9
REMARK    3  A    between atoms: S_9  and  N_12
REMARK    4  A    between atoms: N_12  and  C_13
REMARK    5  A    between atoms: C_15  and  O_20
REMARK    6  A    between atoms: C_18  and  N_19
REMARK    7  A    between atoms: O_20  and  C_21
REMARK                            x       y       z     vdW  Elec       q    Type
REMARK                         _______ _______ _______ _____ _____    ______ ____
ROOT
ATOM      1  N   UNL     1       1.491  -4.903   0.724  0.00  0.00    -0.214 N 
ATOM      2  H   UNL     1       2.233  -5.248   0.203  0.00  0.00    +0.174 HD
ENDROOT
BRANCH   1   3
ATOM      3  C   UNL     1       1.660  -4.625   2.085  0.00  0.00    +0.072 A 
ATOM      4  C   UNL     1       0.620  -4.847   2.974  0.00  0.00    +0.072 A 
ATOM      5  C   UNL     1       0.790  -4.572   4.323  0.00  0.00    +0.122 A 
ATOM      6  C   UNL     1       2.000  -4.074   4.783  0.00  0.00    +0.047 A 
ATOM      7  C   UNL     1       3.040  -3.851   3.899  0.00  0.00    +0.028 A 
ATOM      8  C   UNL     1       2.878  -4.130   2.551  0.00  0.00    +0.047 A 
BRANCH   8   9
ATOM      9  N   UNL     1       3.935  -3.909   1.656  0.00  0.00    -0.357 N 
ATOM     10  H   UNL     1       3.819  -4.101   0.712  0.00  0.00    +0.142 HD
ATOM     11  H   UNL     1       4.781  -3.564   1.980  0.00  0.00    +0.142 HD
ENDBRANCH   8   9
BRANCH   5  12
ATOM     12  O   UNL     1      -0.230  -4.789   5.195  0.00  0.00    -0.495 OA
ATOM     13  C   UNL     1       0.015  -4.483   6.569  0.00  0.00    +0.277 C 
ENDBRANCH   5  12
ENDBRANCH   1   3
BRANCH   1  14
ATOM     14  S   UNL     1       0.023  -4.643   0.002  0.00  0.00    +0.074 S 
ATOM     15  O   UNL     1       0.181  -4.978  -1.370  0.00  0.00    -0.150 OA
ATOM     16  O   UNL     1      -0.416  -3.360   0.427  0.00  0.00    -0.150 OA
BRANCH  14  21
ATOM     17  C   UNL     1      -3.846  -8.649   2.323  0.00  0.00    +0.044 C 
ATOM     18  C   UNL     1      -2.879  -7.649   1.744  0.00  0.00    -0.049 A 
ATOM     19  C   UNL     1      -3.082  -6.296   1.943  0.00  0.00    +0.005 A 
ATOM     20  C   UNL     1      -2.196  -5.378   1.411  0.00  0.00    +0.030 A 
ATOM     21  C   UNL     1      -1.106  -5.813   0.680  0.00  0.00    +0.127 A 
ATOM     22  C   UNL     1      -0.903  -7.167   0.480  0.00  0.00    +0.068 A 
ATOM     23  C   UNL     1      -1.787  -8.085   1.018  0.00  0.00    +0.025 A 
ATOM     24 CL   UNL     1       0.465  -7.713  -0.438  0.00  0.00    -0.082 Cl
ENDBRANCH  14  21
ENDBRANCH   1  14
TORSDOF 5
