REMARK  Name = ZINC13641075
REMARK  11 active torsions:
REMARK  status: ('A' for Active; 'I' for Inactive)
REMARK    1  A    between atoms: C_1  and  O_2
REMARK    2  A    between atoms: O_2  and  C_3
REMARK    3  A    between atoms: C_5  and  C_13
REMARK    4  A    between atoms: C_7  and  O_11
REMARK    5  A    between atoms: C_8  and  O_9
REMARK    6  A    between atoms: O_9  and  C_10
REMARK    7  A    between atoms: O_11  and  C_12
REMARK    8  A    between atoms: C_24  and  S_29
REMARK    9  A    between atoms: S_29  and  N_32
REMARK   10  A    between atoms: N_32  and  C_33
REMARK   11  A    between atoms: C_33  and  C_34
REMARK                            x       y       z     vdW  Elec       q    Type
REMARK                         _______ _______ _______ _____ _____    ______ ____
ROOT
ATOM      1  C   UNL     1       1.336   4.562  -0.234  0.00  0.00    +0.105 C 
ATOM      2  C   UNL     1       0.818   3.192  -0.634  0.00  0.00    +0.029 C 
ATOM      3  C   UNL     1       1.504   1.973  -0.001  0.00  0.00    +0.033 C 
ATOM      4  C   UNL     1       0.363   0.953   0.017  0.00  0.00    -0.030 C 
ATOM      5  C   UNL     1      -0.806   1.581   0.037  0.00  0.00    -0.023 C 
ATOM      6  C   UNL     1      -0.559   3.044   0.079  0.00  0.00    +0.049 C 
ATOM      7  C   UNL     1      -1.494   4.013  -0.532  0.00  0.00    -0.018 A 
ATOM      8  C   UNL     1      -2.838   3.749  -0.687  0.00  0.00    +0.034 A 
ATOM      9  C   UNL     1      -3.676   4.697  -1.244  0.00  0.00    +0.106 A 
ATOM     10  C   UNL     1      -3.166   5.917  -1.650  0.00  0.00    +0.030 A 
ATOM     11  C   UNL     1      -1.821   6.189  -1.507  0.00  0.00    +0.025 A 
ATOM     12  C   UNL     1      -0.969   5.240  -0.953  0.00  0.00    +0.031 A 
ATOM     13  N   UNL     1       0.394   5.534  -0.830  0.00  0.00    -0.336 N 
ATOM     14  H   UNL     1       0.727   6.390  -1.141  0.00  0.00    +0.147 HD
ENDROOT
BRANCH   1  17
ATOM     15  C   UNL     1       2.465   4.429   3.371  0.00  0.00    +0.165 A 
ATOM     16  C   UNL     1       2.455   4.307   1.990  0.00  0.00    +0.055 A 
ATOM     17  C   UNL     1       1.343   4.697   1.267  0.00  0.00    -0.020 A 
ATOM     18  C   UNL     1       0.240   5.217   1.918  0.00  0.00    +0.055 A 
ATOM     19  C   UNL     1       0.240   5.338   3.299  0.00  0.00    +0.165 A 
ATOM     20  C   UNL     1       1.356   4.946   4.029  0.00  0.00    +0.204 A 
BRANCH  15  22
ATOM     21  C   UNL     1       4.664   3.523   3.338  0.00  0.00    +0.277 C 
ATOM     22  O   UNL     1       3.560   4.045   4.080  0.00  0.00    -0.491 OA
ENDBRANCH  15  22
BRANCH  20  23
ATOM     23  O   UNL     1       1.362   5.067   5.384  0.00  0.00    -0.488 OA
ATOM     24  C   UNL     1       1.847   6.299   5.923  0.00  0.00    +0.277 C 
ENDBRANCH  20  23
BRANCH  19  25
ATOM     25  O   UNL     1      -0.848   5.845   3.938  0.00  0.00    -0.491 OA
ATOM     26  C   UNL     1      -1.959   6.227   3.125  0.00  0.00    +0.277 C 
ENDBRANCH  19  25
ENDBRANCH   1  17
BRANCH   9  27
ATOM     27  S   UNL     1      -5.393   4.352  -1.436  0.00  0.00    +0.059 S 
ATOM     28  O   UNL     1      -5.862   5.192  -2.482  0.00  0.00    -0.153 OA
ATOM     29  O   UNL     1      -5.520   2.937  -1.480  0.00  0.00    -0.153 OA
BRANCH  27  30
ATOM     30  N   UNL     1      -6.151   4.853  -0.051  0.00  0.00    -0.186 NA
ATOM     31  H   UNL     1      -6.581   4.204   0.528  0.00  0.00    +0.148 HD
BRANCH  30  32
ATOM     32  C   UNL     1      -6.173   6.275   0.298  0.00  0.00    +0.141 C 
BRANCH  32  33
ATOM     33  C   UNL     1      -7.208   6.514   1.367  0.00  0.00    -0.032 A 
ATOM     34  C   UNL     1      -8.508   6.824   1.013  0.00  0.00    +0.005 A 
ATOM     35  C   UNL     1      -9.459   7.038   1.994  0.00  0.00    +0.000 A 
ATOM     36  C   UNL     1      -9.107   6.952   3.328  0.00  0.00    +0.000 A 
ATOM     37  C   UNL     1      -7.806   6.648   3.682  0.00  0.00    +0.000 A 
ATOM     38  C   UNL     1      -6.856   6.429   2.701  0.00  0.00    +0.005 A 
ENDBRANCH  32  33
ENDBRANCH  30  32
ENDBRANCH  27  30
ENDBRANCH   9  27
TORSDOF 8
