REMARK  Name = ZINC09227464
REMARK  6 active torsions:
REMARK  status: ('A' for Active; 'I' for Inactive)
REMARK    1  A    between atoms: C_1  and  C_2
REMARK    2  A    between atoms: C_2  and  C_3
REMARK    3  A    between atoms: C_12  and  C_13
REMARK    4  A    between atoms: C_13  and  C_15
REMARK    5  A    between atoms: N_17  and  C_18
REMARK    6  A    between atoms: C_19  and  C_27
REMARK                            x       y       z     vdW  Elec       q    Type
REMARK                         _______ _______ _______ _____ _____    ______ ____
ROOT
ATOM      1  C   UNL     1       4.251   2.277  -0.026  0.00  0.00    +0.289 C 
ATOM      2  O   UNL     1       3.569   3.282  -0.015  0.00  0.00    -0.266 OA
ATOM      3  N   UNL     1       5.595   2.375  -0.037  0.00  0.00    -0.273 N 
ATOM      4  H   UNL     1       6.140   1.573  -0.046  0.00  0.00    +0.156 HD
ENDROOT
BRANCH   3   5
ATOM      5  C   UNL     1       6.198   3.621  -0.036  0.00  0.00    +0.085 A 
ATOM      6  C   UNL     1       7.553   3.924  -0.042  0.00  0.00    +0.068 A 
ATOM      7  C   UNL     1       7.927   5.327  -0.043  0.00  0.00    -0.023 A 
ATOM      8  C   UNL     1       6.894   6.199  -0.028  0.00  0.00    -0.004 A 
ATOM      9  S   UNL     1       5.445   5.182  -0.021  0.00  0.00    -0.077 S 
ATOM     10  C   UNL     1       6.974   7.694  -0.020  0.00  0.00    +0.043 C 
ATOM     11  C   UNL     1       8.409   8.100   0.348  0.00  0.00    +0.005 C 
ATOM     12  C   UNL     1       9.386   7.283  -0.502  0.00  0.00    +0.005 C 
ATOM     13  C   UNL     1       9.369   5.820  -0.053  0.00  0.00    +0.037 C 
BRANCH   6  14
ATOM     14  C   UNL     1       8.569   2.866  -0.050  0.00  0.00    +0.244 C 
ATOM     15  O   UNL     1       8.986   2.431  -1.107  0.00  0.00    -0.270 OA
ATOM     16  N   UNL     1       9.040   2.376   1.114  0.00  0.00    -0.325 N 
ATOM     17  H   UNL     1       8.708   2.723   1.957  0.00  0.00    +0.145 HD
ATOM     18  H   UNL     1       9.712   1.676   1.109  0.00  0.00    +0.145 HD
ENDBRANCH   6  14
ENDBRANCH   3   5
BRANCH   1  19
ATOM     19  C   UNL     1       3.602   0.936  -0.027  0.00  0.00    +0.250 C 
ATOM     20  O   UNL     1       4.285  -0.070  -0.038  0.00  0.00    -0.282 OA
BRANCH  19  30
ATOM     21  C   UNL     1      -1.002  -0.967   0.006  0.00  0.00    -0.024 A 
ATOM     22  C   UNL     1      -0.672  -2.305  -0.005  0.00  0.00    +0.005 A 
ATOM     23  C   UNL     1       0.655  -2.706  -0.019  0.00  0.00    +0.001 A 
ATOM     24  C   UNL     1       1.665  -1.766  -0.023  0.00  0.00    +0.011 A 
ATOM     25  C   UNL     1       1.345  -0.412  -0.013  0.00  0.00    +0.011 A 
ATOM     26  C   UNL     1       0.002  -0.004   0.002  0.00  0.00    +0.050 A 
ATOM     27  N   UNL     1      -0.017   1.377   0.010  0.00  0.00    -0.360 N 
ATOM     28  H   UNL     1      -0.822   1.917   0.017  0.00  0.00    +0.165 HD
ATOM     29  C   UNL     1       1.235   1.870   0.000  0.00  0.00    +0.095 A 
ATOM     30  C   UNL     1       2.143   0.829  -0.014  0.00  0.00    +0.052 A 
BRANCH  21  32
ATOM     31  C   UNL     1      -2.917  -0.276  -1.410  0.00  0.00    +0.009 C 
ATOM     32  C   UNL     1      -2.449  -0.546   0.022  0.00  0.00    +0.034 C 
ENDBRANCH  21  32
ENDBRANCH  19  30
ENDBRANCH   1  19
TORSDOF 5
