REMARK  Name = ZINC64052302
REMARK  6 active torsions:
REMARK  status: ('A' for Active; 'I' for Inactive)
REMARK    1  A    between atoms: C_4  and  C_7
REMARK    2  A    between atoms: C_10  and  N_13
REMARK    3  A    between atoms: C_14  and  C_16
REMARK    4  A    between atoms: C_16  and  N_17
REMARK    5  A    between atoms: C_20  and  C_25
REMARK    6  A    between atoms: C_25  and  C_26
REMARK                            x       y       z     vdW  Elec       q    Type
REMARK                         _______ _______ _______ _____ _____    ______ ____
ROOT
ATOM      1  N   UNL     1       8.441  -6.228   0.189  0.00  0.00    -0.216 N 
ATOM      2  C   UNL     1       8.269  -6.899   1.344  0.00  0.00    +0.244 C 
ATOM      3  O   UNL     1       8.284  -6.441   2.467  0.00  0.00    -0.273 OA
ATOM      4  C   UNL     1       8.051  -8.347   0.949  0.00  0.00    +0.165 C 
ATOM      5  N   UNL     1       8.133  -8.320  -0.522  0.00  0.00    -0.287 N 
ATOM      6  C   UNL     1       8.358  -7.040  -0.871  0.00  0.00    +0.310 C 
ATOM      7  O   UNL     1       8.475  -6.665  -2.021  0.00  0.00    -0.252 OA
ATOM      8  H   UNL     1       8.040  -9.077  -1.121  0.00  0.00    +0.151 HD
ENDROOT
BRANCH   1   9
ATOM      9  C   UNL     1       8.682  -4.785   0.103  0.00  0.00    +0.214 C 
BRANCH   9  11
ATOM     10  N   UNL     1       7.341  -2.716  -0.083  0.00  0.00    -0.284 N 
ATOM     11  C   UNL     1       7.365  -4.060   0.006  0.00  0.00    +0.235 C 
ATOM     12  O   UNL     1       6.326  -4.687   0.008  0.00  0.00    -0.274 OA
ATOM     13  H   UNL     1       8.171  -2.220  -0.162  0.00  0.00    +0.155 HD
BRANCH  10  17
ATOM     14  C   UNL     1       3.699  -0.687  -0.020  0.00  0.00    -0.018 A 
ATOM     15  C   UNL     1       3.858  -1.860   0.717  0.00  0.00    +0.010 A 
ATOM     16  C   UNL     1       5.064  -2.529   0.695  0.00  0.00    +0.024 A 
ATOM     17  C   UNL     1       6.120  -2.035  -0.062  0.00  0.00    +0.033 A 
ATOM     18  C   UNL     1       5.963  -0.867  -0.797  0.00  0.00    +0.024 A 
ATOM     19  C   UNL     1       4.758  -0.197  -0.783  0.00  0.00    +0.010 A 
BRANCH  14  23
ATOM     20  C   UNL     1      -0.015   1.381   0.044  0.00  0.00    +0.000 A 
ATOM     21  C   UNL     1       0.140   0.221   0.781  0.00  0.00    +0.001 A 
ATOM     22  C   UNL     1       1.344  -0.455   0.764  0.00  0.00    +0.008 A 
ATOM     23  C   UNL     1       2.403   0.034   0.002  0.00  0.00    -0.018 A 
ATOM     24  C   UNL     1       2.241   1.203  -0.739  0.00  0.00    +0.008 A 
ATOM     25  C   UNL     1       1.033   1.871  -0.714  0.00  0.00    +0.001 A 
ENDBRANCH  14  23
ENDBRANCH  10  17
ENDBRANCH   9  11
ENDBRANCH   1   9
BRANCH   4  26
ATOM     26  C   UNL     1       9.148  -9.236   1.536  0.00  0.00    +0.065 C 
BRANCH  26  27
ATOM     27  C   UNL     1       8.841 -10.680   1.232  0.00  0.00    -0.039 C 
ATOM     28  C   UNL     1       9.312 -11.411   0.196  0.00  0.00    -0.001 A 
ATOM     29  C   UNL     1      10.216 -11.092  -0.915  0.00  0.00    +0.010 A 
ATOM     30  C   UNL     1      10.509 -12.055  -1.819  0.00  0.00    +0.001 A 
ATOM     31  C   UNL     1       9.972 -13.345  -1.721  0.00  0.00    +0.002 A 
ATOM     32  C   UNL     1       9.134 -13.713  -0.729  0.00  0.00    +0.026 A 
ATOM     33  C   UNL     1       8.759 -12.781   0.277  0.00  0.00    +0.043 A 
ATOM     34  N   UNL     1       7.975 -12.893   1.323  0.00  0.00    -0.380 N 
ATOM     35  C   UNL     1       7.949 -11.607   2.027  0.00  0.00    +0.144 C 
ATOM     36  H   UNL     1       7.497 -13.694   1.588  0.00  0.00    +0.160 HD
ENDBRANCH  26  27
ENDBRANCH   4  26
TORSDOF 6
