REMARK  Name = ZINC09982968
REMARK  5 active torsions:
REMARK  status: ('A' for Active; 'I' for Inactive)
REMARK    1  A    between atoms: C_3  and  C_25
REMARK    2  A    between atoms: C_7  and  C_8
REMARK    3  A    between atoms: C_7  and  N_70
REMARK    4  A    between atoms: C_8  and  C_9
REMARK    5  A    between atoms: N_14  and  C_15
REMARK                            x       y       z     vdW  Elec       q    Type
REMARK                         _______ _______ _______ _____ _____    ______ ____
ROOT
ATOM      1  C   UNL     1      -1.094   3.348   6.026  0.00  0.00    +0.219 C 
ATOM      2  O   UNL     1      -0.104   2.656   6.129  0.00  0.00    -0.275 OA
ATOM      3  N   UNL     1      -1.564   3.674   4.806  0.00  0.00    -0.240 N 
ATOM      4  C   UNL     1      -0.933   3.232   3.700  0.00  0.00    +0.306 C 
ATOM      5  O   UNL     1       0.060   2.538   3.803  0.00  0.00    -0.252 OA
ATOM      6  N   UNL     1      -1.403   3.558   2.479  0.00  0.00    -0.294 N 
ATOM      7  H   UNL     1      -2.357   4.227   4.723  0.00  0.00    +0.159 HD
ATOM      8  H   UNL     1      -2.196   4.111   2.397  0.00  0.00    +0.151 HD
ENDROOT
BRANCH   6   9
ATOM      9  C   UNL     1      -0.718   3.077   1.278  0.00  0.00    +0.037 C 
ATOM     10  C   UNL     1      -0.709   1.547   1.273  0.00  0.00    +0.029 C 
ATOM     11  C   UNL     1       0.008   1.045   0.018  0.00  0.00    -0.008 C 
ATOM     12  C   UNL     1      -0.724   1.554  -1.225  0.00  0.00    +0.007 C 
ATOM     13  C   UNL     1      -0.733   3.084  -1.221  0.00  0.00    -0.008 C 
ATOM     14  C   UNL     1      -1.450   3.586   0.034  0.00  0.00    +0.029 C 
ATOM     15  C   UNL     1       0.706   3.603  -1.228  0.00  0.00    +0.007 C 
ATOM     16  C   UNL     1       1.438   3.093   0.015  0.00  0.00    -0.008 C 
ATOM     17  C   UNL     1       1.447   1.563   0.010  0.00  0.00    +0.007 C 
ATOM     18  C   UNL     1       0.722   3.595   1.270  0.00  0.00    +0.029 C 
ENDBRANCH   6   9
BRANCH   1  19
ATOM     19  C   UNL     1      -1.800   3.842   7.262  0.00  0.00    +0.078 C 
BRANCH  19  20
ATOM     20  C   UNL     1      -1.067   3.333   8.505  0.00  0.00    -0.070 C 
BRANCH  20  26
ATOM     21  C   UNL     1      -3.833   3.854  11.007  0.00  0.00    -0.018 C 
ATOM     22  C   UNL     1      -3.035   3.612  12.291  0.00  0.00    +0.009 C 
ATOM     23  C   UNL     1      -1.630   4.197  12.127  0.00  0.00    +0.059 C 
ATOM     24  C   UNL     1      -0.954   3.555  10.913  0.00  0.00    -0.066 C 
ATOM     25  C   UNL     1      -3.094   3.222   9.826  0.00  0.00    -0.079 C 
ATOM     26  N   UNL     1      -1.758   3.845   9.707  0.00  0.00    +0.381 N 
ATOM     27  H   UNL     1      -1.871   4.861   9.619  0.00  0.00    -0.082 HD
BRANCH  23  28
ATOM     28  C   UNL     1      -0.818   3.912  13.364  0.00  0.00    +0.217 C 
ATOM     29  O   UNL     1      -0.234   2.855  13.476  0.00  0.00    -0.275 OA
ATOM     30  N   UNL     1      -0.742   4.831  14.347  0.00  0.00    -0.297 N 
ATOM     31  C   UNL     1      -1.528   6.073  14.285  0.00  0.00    +0.136 C 
ATOM     32  C   UNL     1      -2.273   6.236  15.620  0.00  0.00    +0.179 C 
ATOM     33  O   UNL     1      -1.336   6.131  16.695  0.00  0.00    -0.377 OA
ATOM     34  C   UNL     1      -0.686   4.861  16.783  0.00  0.00    +0.179 C 
ATOM     35  C   UNL     1       0.136   4.625  15.510  0.00  0.00    +0.136 C 
ENDBRANCH  23  28
ENDBRANCH  20  26
ENDBRANCH  19  20
ENDBRANCH   1  19
TORSDOF 5
