REMARK  Name = ZINC39353286
REMARK  12 active torsions:
REMARK  status: ('A' for Active; 'I' for Inactive)
REMARK    1  A    between atoms: C_1  and  C_2
REMARK    2  A    between atoms: C_2  and  N_24
REMARK    3  A    between atoms: C_4  and  C_19
REMARK    4  A    between atoms: N_6  and  C_9
REMARK    5  A    between atoms: C_19  and  C_20
REMARK    6  A    between atoms: C_20  and  O_22
REMARK    7  A    between atoms: O_22  and  C_23
REMARK    8  A    between atoms: N_24  and  C_25
REMARK    9  A    between atoms: C_25  and  C_26
REMARK   10  A    between atoms: C_26  and  C_27
REMARK   11  A    between atoms: C_30  and  O_36
REMARK   12  A    between atoms: O_36  and  C_37
REMARK                            x       y       z     vdW  Elec       q    Type
REMARK                         _______ _______ _______ _____ _____    ______ ____
ROOT
ATOM      1  C   UNL     1      -0.018   1.503   0.010  0.00  0.00    +0.061 C 
ATOM      2  C   UNL     1       0.002  -0.004   0.002  0.00  0.00    +0.015 C 
ATOM      3  C   UNL     1       0.023  -0.703   1.197  0.00  0.00    +0.078 C 
ATOM      4  C   UNL     1       0.051  -2.161   1.382  0.00  0.00    +0.084 C 
ATOM      5  N   UNL     1       0.064  -2.395   2.658  0.00  0.00    -0.178 NA
ATOM      6  N   UNL     1       0.048  -1.208   3.391  0.00  0.00    -0.158 N 
ATOM      7  C   UNL     1       0.029  -0.149   2.557  0.00  0.00    +0.272 C 
ATOM      8  O   UNL     1       0.016   1.030   2.869  0.00  0.00    -0.268 OA
ENDROOT
BRANCH   6   9
ATOM      9  C   UNL     1       0.057  -1.125   4.853  0.00  0.00    +0.249 C 
ATOM     10  N   UNL     1       1.219  -1.827   5.415  0.00  0.00    -0.315 N 
ATOM     11  C   UNL     1       0.972  -2.914   6.253  0.00  0.00    +0.043 A 
ATOM     12  C   UNL     1       1.952  -3.704   6.879  0.00  0.00    +0.024 A 
ATOM     13  C   UNL     1       1.606  -4.759   7.690  0.00  0.00    +0.002 A 
ATOM     14  C   UNL     1       0.280  -5.080   7.918  0.00  0.00    +0.001 A 
ATOM     15  C   UNL     1      -0.707  -4.319   7.314  0.00  0.00    +0.016 A 
ATOM     16  C   UNL     1      -0.359  -3.263   6.502  0.00  0.00    +0.032 A 
ATOM     17  S   UNL     1      -1.328  -2.090   5.579  0.00  0.00    -0.080 S 
ATOM     18  H   UNL     1       2.124  -1.545   5.211  0.00  0.00    +0.149 HD
ENDBRANCH   6   9
BRANCH   2  19
ATOM     19  N   UNL     1       0.000  -0.672  -1.169  0.00  0.00    -0.346 N 
ATOM     20  H   UNL     1       0.013  -1.642  -1.175  0.00  0.00    +0.146 HD
BRANCH  19  21
ATOM     21  C   UNL     1      -0.022   0.067  -2.434  0.00  0.00    +0.106 C 
BRANCH  21  22
ATOM     22  C   UNL     1      -0.020  -0.921  -3.602  0.00  0.00    +0.056 C 
BRANCH  22  23
ATOM     23  C   UNL     1      -0.042  -0.160  -4.903  0.00  0.00    -0.021 A 
ATOM     24  C   UNL     1       1.117   0.384  -5.615  0.00  0.00    +0.006 A 
ATOM     25  C   UNL     1       2.491   0.389  -5.367  0.00  0.00    +0.056 A 
ATOM     26  C   UNL     1       3.343   1.006  -6.261  0.00  0.00    +0.121 A 
ATOM     27  C   UNL     1       2.837   1.620  -7.403  0.00  0.00    +0.047 A 
ATOM     28  C   UNL     1       1.483   1.622  -7.657  0.00  0.00    +0.030 A 
ATOM     29  C   UNL     1       0.609   1.006  -6.769  0.00  0.00    +0.047 A 
ATOM     30  N   UNL     1      -0.761   0.843  -6.748  0.00  0.00    -0.360 N 
ATOM     31  C   UNL     1      -1.128   0.142  -5.633  0.00  0.00    +0.087 A 
ATOM     32  H   UNL     1      -1.372   1.173  -7.425  0.00  0.00    +0.165 HD
BRANCH  26  33
ATOM     33  O   UNL     1       4.683   1.014  -6.025  0.00  0.00    -0.495 OA
ATOM     34  C   UNL     1       5.508   1.670  -6.990  0.00  0.00    +0.277 C 
ENDBRANCH  26  33
ENDBRANCH  22  23
ENDBRANCH  21  22
ENDBRANCH  19  21
ENDBRANCH   2  19
BRANCH   4  35
ATOM     35  C   UNL     1       0.061  -3.197   0.287  0.00  0.00    +0.178 C 
BRANCH  35  36
ATOM     36  C   UNL     1       0.090  -4.574   0.899  0.00  0.00    +0.313 C 
ATOM     37  O   UNL     1       0.102  -4.701   2.100  0.00  0.00    -0.250 OA
BRANCH  36  38
ATOM     38  O   UNL     1       0.104  -5.659   0.109  0.00  0.00    -0.468 OA
ATOM     39  C   UNL     1       0.131  -6.933   0.756  0.00  0.00    +0.280 C 
ENDBRANCH  36  38
ENDBRANCH  35  36
ENDBRANCH   4  35
TORSDOF 9
