REMARK  Name = ZINC43287803
REMARK  9 active torsions:
REMARK  status: ('A' for Active; 'I' for Inactive)
REMARK    1  A    between atoms: C_1  and  C_2
REMARK    2  A    between atoms: C_2  and  C_3
REMARK    3  A    between atoms: C_3  and  C_5
REMARK    4  A    between atoms: C_3  and  N_21
REMARK    5  A    between atoms: C_5  and  C_7
REMARK    6  A    between atoms: C_5  and  N_13
REMARK    7  A    between atoms: N_13  and  C_14
REMARK    8  A    between atoms: N_13  and  C_15
REMARK    9  A    between atoms: C_15  and  C_16
REMARK                            x       y       z     vdW  Elec       q    Type
REMARK                         _______ _______ _______ _____ _____    ______ ____
ROOT
ATOM      1  C   UNL     1      -1.413  -2.059   0.130  0.00  0.00    -0.046 C 
ENDROOT
BRANCH   1   2
ATOM      2  C   UNL     1      -0.780  -2.649  -1.103  0.00  0.00    -0.024 A 
ATOM      3  C   UNL     1      -1.376  -3.194  -2.192  0.00  0.00    +0.024 A 
ATOM      4  C   UNL     1      -0.586  -3.680  -3.217  0.00  0.00    +0.025 A 
ATOM      5  C   UNL     1       0.763  -3.596  -3.103  0.00  0.00    +0.060 A 
ATOM      6  S   UNL     1       0.951  -2.806  -1.513  0.00  0.00    -0.102 S 
ATOM      7 BR   UNL     1      -1.373  -4.449  -4.755  0.00  0.00    -0.050 Br
ENDBRANCH   1   2
BRANCH   1   8
ATOM      8  N   UNL     1      -0.636  -2.449   1.314  0.00  0.00    +0.385 N 
ATOM      9  C   UNL     1      -1.254  -1.873   2.517  0.00  0.00    -0.095 C 
ATOM     10  H   UNL     1       0.309  -2.106   1.224  0.00  0.00    -0.081 HD
BRANCH   8  11
ATOM     11  C   UNL     1      -0.617  -3.913   1.427  0.00  0.00    -0.021 C 
BRANCH  11  12
ATOM     12  C   UNL     1       0.280  -4.318   2.568  0.00  0.00    +0.032 A 
ATOM     13  C   UNL     1      -0.216  -4.567   3.807  0.00  0.00    +0.068 A 
ATOM     14  S   UNL     1       1.283  -4.982   4.684  0.00  0.00    -0.084 S 
ATOM     15  C   UNL     1       2.359  -4.798   3.404  0.00  0.00    +0.156 A 
ATOM     16  N   UNL     1       1.582  -4.451   2.408  0.00  0.00    -0.254 NA
ENDBRANCH  11  12
ENDBRANCH   8  11
ENDBRANCH   1   8
BRANCH   1  17
ATOM     17  C   UNL     1      -1.433  -0.534   0.013  0.00  0.00    -0.085 C 
BRANCH  17  18
ATOM     18  N   UNL     1      -2.107  -0.147  -1.234  0.00  0.00    +0.379 N 
ATOM     19  H   UNL     1      -3.054  -0.496  -1.227  0.00  0.00    -0.090 HD
ATOM     20  H   UNL     1      -2.120   0.859  -1.311  0.00  0.00    -0.090 HD
ATOM     21  H   UNL     1      -1.610  -0.539  -2.020  0.00  0.00    -0.090 HD
ENDBRANCH  17  18
BRANCH  17  23
ATOM     22  C   UNL     1      -0.019   1.526   0.010  0.00  0.00    +0.002 C 
ATOM     23  C   UNL     1       0.002  -0.004   0.002  0.00  0.00    -0.021 C 
ENDBRANCH  17  23
ENDBRANCH   1  17
TORSDOF 7
