REMARK  Name = ZINC34852970
REMARK  11 active torsions:
REMARK  status: ('A' for Active; 'I' for Inactive)
REMARK    1  A    between atoms: C_1  and  C_2
REMARK    2  A    between atoms: C_2  and  C_3
REMARK    3  A    between atoms: C_3  and  N_4
REMARK    4  A    between atoms: N_4  and  C_5
REMARK    5  A    between atoms: C_5  and  C_6
REMARK    6  A    between atoms: C_16  and  C_18
REMARK    7  A    between atoms: C_21  and  C_24
REMARK    8  A    between atoms: C_24  and  C_25
REMARK    9  A    between atoms: C_24  and  C_26
REMARK   10  A    between atoms: N_29  and  C_30
REMARK   11  A    between atoms: C_33  and  C_36
REMARK                            x       y       z     vdW  Elec       q    Type
REMARK                         _______ _______ _______ _____ _____    ______ ____
ROOT
ATOM      1  C   UNL     1      -2.977  -3.673   1.282  0.00  0.00    +0.234 C 
ATOM      2  O   UNL     1      -3.986  -3.239   0.770  0.00  0.00    -0.274 OA
ATOM      3  N   UNL     1      -3.016  -4.169   2.535  0.00  0.00    -0.286 N 
ATOM      4  C   UNL     1      -1.824  -4.774   3.148  0.00  0.00    +0.130 C 
ATOM      5  C   UNL     1      -1.396  -3.936   4.357  0.00  0.00    +0.140 C 
ATOM      6  N   UNL     1      -2.576  -3.627   5.173  0.00  0.00    -0.347 N 
ATOM      7  C   UNL     1      -2.588  -3.225   6.473  0.00  0.00    +0.086 A 
ATOM      8  C   UNL     1      -3.872  -3.038   6.846  0.00  0.00    +0.019 A 
ATOM      9  C   UNL     1      -4.684  -3.338   5.732  0.00  0.00    +0.025 A 
ATOM     10  C   UNL     1      -3.868  -3.697   4.729  0.00  0.00    +0.044 A 
ATOM     11  C   UNL     1      -4.255  -4.116   3.333  0.00  0.00    +0.153 C 
ENDROOT
BRANCH  11  12
ATOM     12  C   UNL     1      -5.207  -3.110   2.740  0.00  0.00    -0.021 A 
ATOM     13  C   UNL     1      -4.770  -1.829   2.457  0.00  0.00    +0.006 A 
ATOM     14  C   UNL     1      -5.643  -0.905   1.913  0.00  0.00    +0.004 A 
ATOM     15  C   UNL     1      -6.952  -1.263   1.651  0.00  0.00    -0.045 A 
ATOM     16  C   UNL     1      -7.389  -2.544   1.933  0.00  0.00    +0.004 A 
ATOM     17  C   UNL     1      -6.515  -3.468   2.474  0.00  0.00    +0.006 A 
BRANCH  15  18
ATOM     18  C   UNL     1      -7.904  -0.256   1.059  0.00  0.00    +0.013 C 
ATOM     19  C   UNL     1      -8.423  -0.773  -0.284  0.00  0.00    +0.012 C 
ATOM     20  C   UNL     1      -9.081  -0.044   2.013  0.00  0.00    +0.012 C 
ENDBRANCH  15  18
ENDBRANCH  11  12
BRANCH   1  21
ATOM     21  C   UNL     1      -1.677  -3.659   0.519  0.00  0.00    +0.205 C 
BRANCH  21  22
ATOM     22  N   UNL     1      -1.897  -3.075  -0.807  0.00  0.00    -0.277 N 
ATOM     23  C   UNL     1      -2.237  -3.866  -1.844  0.00  0.00    +0.307 C 
ATOM     24  O   UNL     1      -2.362  -5.064  -1.679  0.00  0.00    -0.252 OA
ATOM     25  N   UNL     1      -2.439  -3.329  -3.063  0.00  0.00    -0.269 N 
ATOM     26  H   UNL     1      -2.268  -2.386  -3.212  0.00  0.00    +0.156 HD
BRANCH  25  27
ATOM     27  C   UNL     1      -2.896  -4.131  -4.115  0.00  0.00    +0.035 A 
ATOM     28  C   UNL     1      -2.581  -3.805  -5.427  0.00  0.00    +0.024 A 
ATOM     29  C   UNL     1      -3.033  -4.599  -6.463  0.00  0.00    +0.014 A 
ATOM     30  C   UNL     1      -3.798  -5.719  -6.193  0.00  0.00    +0.055 A 
ATOM     31  C   UNL     1      -4.113  -6.047  -4.888  0.00  0.00    +0.014 A 
ATOM     32  C   UNL     1      -3.659  -5.260  -3.847  0.00  0.00    +0.024 A 
BRANCH  30  33
ATOM     33  C   UNL     1      -4.289  -6.584  -7.325  0.00  0.00    +0.417 C 
ATOM     34  F   UNL     1      -3.345  -7.581  -7.595  0.00  0.00    -0.166 F 
ATOM     35  F   UNL     1      -5.504  -7.177  -6.966  0.00  0.00    -0.166 F 
ATOM     36  F   UNL     1      -4.474  -5.797  -8.467  0.00  0.00    -0.166 F 
ENDBRANCH  30  33
ENDBRANCH  25  27
BRANCH  22  37
ATOM     37  C   UNL     1      -1.747  -1.631  -1.005  0.00  0.00    +0.109 C 
BRANCH  37  39
ATOM     38  C   UNL     1      -0.142   0.191  -1.596  0.00  0.00    +0.005 C 
ATOM     39  C   UNL     1      -0.299  -1.317  -1.388  0.00  0.00    +0.016 C 
ENDBRANCH  37  39
ENDBRANCH  22  37
ENDBRANCH  21  22
ENDBRANCH   1  21
TORSDOF 8
