REMARK  Name = ZINC16809230
REMARK  11 active torsions:
REMARK  status: ('A' for Active; 'I' for Inactive)
REMARK    1  A    between atoms: C_1  and  C_2
REMARK    2  A    between atoms: C_5  and  C_9
REMARK    3  A    between atoms: C_6  and  C_8
REMARK    4  A    between atoms: C_9  and  C_10
REMARK    5  A    between atoms: C_11  and  C_31
REMARK    6  A    between atoms: C_22  and  C_26
REMARK    7  A    between atoms: C_23  and  C_25
REMARK    8  A    between atoms: C_26  and  C_27
REMARK    9  A    between atoms: C_27  and  C_28
REMARK   10  A    between atoms: C_28  and  C_29
REMARK   11  A    between atoms: C_28  and  C_30
REMARK                            x       y       z     vdW  Elec       q    Type
REMARK                         _______ _______ _______ _____ _____    ______ ____
ROOT
ATOM      1  C   UNL     1       3.103  -4.807   0.200  0.00  0.00    -0.027 C 
ATOM      2  C   UNL     1       1.981  -4.141  -0.053  0.00  0.00    +0.043 C 
ATOM      3  N   UNL     1       1.959  -2.786  -0.100  0.00  0.00    -0.223 NA
ATOM      4  C   UNL     1       3.067  -2.085  -0.168  0.00  0.00    +0.187 C 
ATOM      5  N   UNL     1       4.277  -2.740  -0.213  0.00  0.00    -0.313 N 
ATOM      6  C   UNL     1       4.380  -4.043   0.463  0.00  0.00    +0.137 C 
ATOM      7  N   UNL     1       3.019  -0.710  -0.188  0.00  0.00    -0.258 N 
ATOM      8  C   UNL     1       1.807  -0.064  -0.142  0.00  0.00    +0.202 A 
ATOM      9  N   UNL     1       1.774   1.296  -0.163  0.00  0.00    -0.295 N 
ATOM     10  H   UNL     1       2.600   1.802  -0.209  0.00  0.00    +0.172 HD
ATOM     11  C   UNL     1       0.587   1.938  -0.118  0.00  0.00    +0.256 A 
ATOM     12  O   UNL     1       0.539   3.157  -0.135  0.00  0.00    -0.267 OA
ATOM     13  C   UNL     1      -0.593   1.175  -0.051  0.00  0.00    +0.038 A 
ATOM     14  C   UNL     1      -0.496  -0.186  -0.034  0.00  0.00    +0.050 A 
ATOM     15  N   UNL     1       0.698  -0.772  -0.080  0.00  0.00    -0.221 NA
ATOM     16  C   UNL     1      -1.745  -1.028   0.038  0.00  0.00    +0.066 C 
ATOM     17  C   UNL     1       0.706  -4.909  -0.289  0.00  0.00    +0.066 C 
ATOM     18  H   UNL     1       5.038  -2.354  -0.675  0.00  0.00    +0.149 HD
ATOM     19  H   UNL     1       3.841  -0.196  -0.234  0.00  0.00    +0.158 HD
ENDROOT
BRANCH   1  20
ATOM     20  C   UNL     1       3.102  -6.314   0.227  0.00  0.00    +0.069 C 
BRANCH  20  25
ATOM     21  C   UNL     1       4.601  -8.334  -4.976  0.00  0.00    +0.044 C 
ATOM     22  C   UNL     1       4.210  -7.807  -3.619  0.00  0.00    -0.050 A 
ATOM     23  C   UNL     1       4.267  -6.450  -3.361  0.00  0.00    +0.003 A 
ATOM     24  C   UNL     1       3.905  -5.966  -2.118  0.00  0.00    +0.004 A 
ATOM     25  C   UNL     1       3.493  -6.841  -1.130  0.00  0.00    -0.040 A 
ATOM     26  C   UNL     1       3.435  -8.197  -1.387  0.00  0.00    -0.047 A 
ATOM     27  C   UNL     1       3.794  -8.681  -2.632  0.00  0.00    +0.007 A 
ATOM     28  C   UNL     1       2.981  -9.150  -0.311  0.00  0.00    +0.044 C 
ENDBRANCH  20  25
ENDBRANCH   1  20
BRANCH  13  29
ATOM     29  C   UNL     1      -1.940   1.849  -0.005  0.00  0.00    +0.042 C 
BRANCH  29  30
ATOM     30  C   UNL     1      -2.280   2.211   1.442  0.00  0.00    +0.008 C 
BRANCH  30  31
ATOM     31  C   UNL     1      -3.647   2.895   1.489  0.00  0.00    -0.017 C 
ATOM     32  C   UNL     1      -4.043   3.145   2.946  0.00  0.00    +0.007 C 
ATOM     33  C   UNL     1      -3.576   4.229   0.744  0.00  0.00    +0.007 C 
ENDBRANCH  30  31
ENDBRANCH  29  30
ENDBRANCH  13  29
TORSDOF 5
