REMARK  Name = ZINC14456499
REMARK  8 active torsions:
REMARK  status: ('A' for Active; 'I' for Inactive)
REMARK    1  A    between atoms: C_1  and  C_2
REMARK    2  A    between atoms: C_2  and  O_3
REMARK    3  A    between atoms: O_3  and  C_4
REMARK    4  A    between atoms: C_7  and  N_10
REMARK    5  A    between atoms: N_10  and  S_11
REMARK    6  A    between atoms: S_11  and  C_14
REMARK    7  A    between atoms: C_27  and  C_30
REMARK    8  A    between atoms: C_33  and  C_35
REMARK                            x       y       z     vdW  Elec       q    Type
REMARK                         _______ _______ _______ _____ _____    ______ ____
ROOT
ATOM      1  C   UNL     1      -4.253   1.838  -0.598  0.00  0.00    +0.109 A 
ATOM      2  C   UNL     1      -5.377   1.729   0.200  0.00  0.00    +0.030 A 
ATOM      3  C   UNL     1      -5.856   0.485   0.557  0.00  0.00    +0.025 A 
ATOM      4  C   UNL     1      -5.213  -0.666   0.118  0.00  0.00    +0.031 A 
ATOM      5  C   UNL     1      -4.083  -0.548  -0.699  0.00  0.00    -0.018 A 
ATOM      6  C   UNL     1      -3.613   0.699  -1.049  0.00  0.00    +0.034 A 
ATOM      7  C   UNL     1      -3.446  -1.798  -1.166  0.00  0.00    +0.049 C 
ATOM      8  C   UNL     1      -2.008  -1.859  -1.533  0.00  0.00    -0.023 C 
ATOM      9  C   UNL     1      -1.553  -3.077  -1.264  0.00  0.00    -0.030 C 
ATOM     10  C   UNL     1      -2.668  -3.928  -0.653  0.00  0.00    +0.033 C 
ATOM     11  C   UNL     1      -3.570  -2.855  -0.029  0.00  0.00    +0.029 C 
ATOM     12  C   UNL     1      -5.052  -3.170   0.072  0.00  0.00    +0.111 C 
ATOM     13  N   UNL     1      -5.697  -1.917   0.522  0.00  0.00    -0.336 N 
ATOM     14  H   UNL     1      -6.469  -1.962   1.107  0.00  0.00    +0.147 HD
ENDROOT
BRANCH  12  15
ATOM     15  C   UNL     1      -5.590  -3.577  -1.276  0.00  0.00    +0.010 A 
ATOM     16  C   UNL     1      -5.831  -4.821  -1.758  0.00  0.00    +0.013 A 
ATOM     17  C   UNL     1      -6.335  -4.957  -3.038  0.00  0.00    +0.011 A 
ATOM     18  C   UNL     1      -6.564  -3.844  -3.777  0.00  0.00    -0.013 A 
ATOM     19  S   UNL     1      -6.068  -2.548  -2.654  0.00  0.00    -0.097 S 
ATOM     20  C   UNL     1      -7.097  -3.730  -5.181  0.00  0.00    +0.051 C 
ENDBRANCH  12  15
BRANCH   1  21
ATOM     21  S   UNL     1      -3.640   3.429  -1.045  0.00  0.00    +0.072 S 
ATOM     22  O   UNL     1      -4.722   4.338  -0.892  0.00  0.00    -0.150 OA
ATOM     23  O   UNL     1      -2.950   3.266  -2.276  0.00  0.00    -0.150 OA
BRANCH  21  24
ATOM     24  N   UNL     1      -2.504   3.851   0.083  0.00  0.00    -0.216 N 
ATOM     25  H   UNL     1      -2.651   4.620   0.655  0.00  0.00    +0.174 HD
BRANCH  24  29
ATOM     26  C   UNL     1       0.987   1.605   0.464  0.00  0.00    +0.121 A 
ATOM     27  C   UNL     1       0.830   2.465  -0.613  0.00  0.00    +0.047 A 
ATOM     28  C   UNL     1      -0.324   3.213  -0.737  0.00  0.00    +0.028 A 
ATOM     29  C   UNL     1      -1.332   3.097   0.211  0.00  0.00    +0.048 A 
ATOM     30  C   UNL     1      -1.173   2.236   1.289  0.00  0.00    +0.028 A 
ATOM     31  C   UNL     1      -0.016   1.493   1.414  0.00  0.00    +0.047 A 
BRANCH  26  32
ATOM     32  O   UNL     1       2.127   0.873   0.588  0.00  0.00    -0.492 OA
BRANCH  32  34
ATOM     33  C   UNL     1       3.562  -0.728   1.691  0.00  0.00    +0.048 C 
ATOM     34  C   UNL     1       2.221   0.008   1.722  0.00  0.00    +0.225 C 
ENDBRANCH  32  34
ENDBRANCH  26  32
ENDBRANCH  24  29
ENDBRANCH  21  24
ENDBRANCH   1  21
TORSDOF 6
