REMARK  Name = ZINC03588421
REMARK  7 active torsions:
REMARK  status: ('A' for Active; 'I' for Inactive)
REMARK    1  A    between atoms: C_1  and  C_2
REMARK    2  A    between atoms: C_2  and  C_3
REMARK    3  A    between atoms: C_2  and  C_4
REMARK    4  A    between atoms: C_2  and  N_5
REMARK    5  A    between atoms: C_9  and  C_11
REMARK    6  A    between atoms: C_11  and  N_52
REMARK    7  A    between atoms: C_14  and  C_17
REMARK                            x       y       z     vdW  Elec       q    Type
REMARK                         _______ _______ _______ _____ _____    ______ ____
ROOT
ATOM      1  C   UNL     1       2.170   5.519   1.222  0.00  0.00    -0.078 C 
ATOM      2  C   UNL     1       1.985   4.000   1.252  0.00  0.00    -0.009 C 
ATOM      3  C   UNL     1       1.207   3.561   0.009  0.00  0.00    +0.041 C 
ATOM      4  C   UNL     1       1.962   4.013  -1.244  0.00  0.00    -0.009 C 
ATOM      5  C   UNL     1       2.148   5.532  -1.201  0.00  0.00    -0.078 C 
ATOM      6  N   UNL     1       2.925   5.887   0.006  0.00  0.00    +0.385 N 
ATOM      7  H   UNL     1       3.812   5.369  -0.004  0.00  0.00    -0.081 HD
ENDROOT
BRANCH   3   8
ATOM      8  C   UNL     1       1.073   2.060   0.003  0.00  0.00    +0.082 A 
ATOM      9  N   UNL     1      -0.016   1.345   0.009  0.00  0.00    -0.244 NA
ATOM     10  C   UNL     1       0.002  -0.004   0.002  0.00  0.00    +0.078 A 
ATOM     11  C   UNL     1      -1.082  -0.909   0.007  0.00  0.00    +0.029 A 
ATOM     12  C   UNL     1      -0.866  -2.252  -0.002  0.00  0.00    +0.002 A 
ATOM     13  C   UNL     1       0.417  -2.783  -0.017  0.00  0.00    +0.001 A 
ATOM     14  C   UNL     1       1.504  -1.931  -0.023  0.00  0.00    +0.017 A 
ATOM     15  C   UNL     1       1.296  -0.573  -0.013  0.00  0.00    +0.039 A 
ATOM     16  S   UNL     1       2.335   0.867  -0.016  0.00  0.00    -0.072 S 
ENDBRANCH   3   8
BRANCH   6  17
ATOM     17  C   UNL     1       3.216   7.335   0.011  0.00  0.00    +0.019 C 
BRANCH  17  22
ATOM     18  N   UNL     1       5.880  10.443  -2.510  0.00  0.00    -0.294 N 
ATOM     19  C   UNL     1       5.448   9.181  -2.318  0.00  0.00    +0.306 C 
ATOM     20  O   UNL     1       5.826   8.291  -3.055  0.00  0.00    -0.252 OA
ATOM     21  N   UNL     1       4.598   8.906  -1.309  0.00  0.00    -0.242 N 
ATOM     22  C   UNL     1       4.166   7.643  -1.118  0.00  0.00    +0.204 C 
ATOM     23  O   UNL     1       4.543   6.756  -1.853  0.00  0.00    -0.277 OA
ATOM     24  H   UNL     1       5.579  11.153  -1.922  0.00  0.00    +0.151 HD
ATOM     25  H   UNL     1       4.297   9.616  -0.721  0.00  0.00    +0.159 HD
BRANCH  18  27
ATOM     26  C   UNL     1       6.152  10.368  -4.939  0.00  0.00    +0.031 C 
ATOM     27  C   UNL     1       6.804  10.742  -3.607  0.00  0.00    +0.028 C 
ATOM     28  C   UNL     1       7.134  12.236  -3.602  0.00  0.00    +0.031 C 
ATOM     29  C   UNL     1       8.091   9.935  -3.424  0.00  0.00    +0.031 C 
ENDBRANCH  18  27
ENDBRANCH  17  22
ENDBRANCH   6  17
TORSDOF 4
