REMARK  Name = ZINC28060605
REMARK  5 active torsions:
REMARK  status: ('A' for Active; 'I' for Inactive)
REMARK    1  A    between atoms: C_1  and  O_2
REMARK    2  A    between atoms: O_2  and  C_3
REMARK    3  A    between atoms: C_3  and  C_5
REMARK    4  A    between atoms: C_8  and  C_11
REMARK    5  A    between atoms: C_28  and  C_30
REMARK                            x       y       z     vdW  Elec       q    Type
REMARK                         _______ _______ _______ _____ _____    ______ ____
ROOT
ATOM      1  C   UNL     1       4.094   4.250   0.650  0.00  0.00    +0.234 C 
ATOM      2  C   UNL     1       3.463   2.920   0.304  0.00  0.00    +0.026 C 
ATOM      3  C   UNL     1       4.227   1.826   0.276  0.00  0.00    +0.050 C 
ATOM      4  C   UNL     1       5.676   1.969   0.556  0.00  0.00    +0.038 A 
ATOM      5  C   UNL     1       6.467   0.871   0.871  0.00  0.00    +0.013 A 
ATOM      6  C   UNL     1       7.814   1.052   1.123  0.00  0.00    +0.001 A 
ATOM      7  C   UNL     1       8.372   2.317   1.062  0.00  0.00    +0.004 A 
ATOM      8  C   UNL     1       7.591   3.415   0.749  0.00  0.00    +0.046 A 
ATOM      9  C   UNL     1       6.242   3.249   0.495  0.00  0.00    +0.131 A 
ATOM     10  O   UNL     1       5.443   4.301   0.187  0.00  0.00    -0.479 OA
ATOM     11  N   UNL     1       3.705   0.556  -0.001  0.00  0.00    -0.282 N 
ATOM     12  C   UNL     1       2.327   0.419   0.012  0.00  0.00    +0.240 A 
ATOM     13  N   UNL     1       1.570  -0.640   0.020  0.00  0.00    -0.092 NA
ATOM     14  N   UNL     1       0.326  -0.299   0.043  0.00  0.00    -0.021 NA
ATOM     15  N   UNL     1       0.212   0.990   0.049  0.00  0.00    -0.042 NA
ATOM     16  N   UNL     1       1.508   1.503   0.026  0.00  0.00    -0.201 N 
ATOM     17  C   UNL     1       1.983   2.879   0.013  0.00  0.00    +0.181 C 
ATOM     18  H   UNL     1       4.384  -0.282  -0.217  0.00  0.00    +0.155 HD
ENDROOT
BRANCH   1  22
ATOM     19  C   UNL     1       4.038   4.773   4.894  0.00  0.00    +0.059 A 
ATOM     20  C   UNL     1       3.134   5.469   4.090  0.00  0.00    +0.015 A 
ATOM     21  C   UNL     1       3.158   5.296   2.721  0.00  0.00    +0.008 A 
ATOM     22  C   UNL     1       4.074   4.434   2.146  0.00  0.00    -0.003 A 
ATOM     23  C   UNL     1       4.970   3.737   2.937  0.00  0.00    +0.008 A 
ATOM     24  C   UNL     1       4.961   3.905   4.306  0.00  0.00    +0.015 A 
BRANCH  19  25
ATOM     25  C   UNL     1       4.019   4.954   6.360  0.00  0.00    +0.339 C 
ATOM     26  O   UNL     1       3.216   5.710   6.868  0.00  0.00    -0.245 OA
BRANCH  25  28
ATOM     27  C   UNL     1       4.817   4.508   8.565  0.00  0.00    +0.280 C 
ATOM     28  O   UNL     1       4.893   4.281   7.133  0.00  0.00    -0.464 OA
ENDBRANCH  25  28
ENDBRANCH  19  25
ENDBRANCH   1  22
BRANCH  17  29
ATOM     29  C   UNL     1       1.726   3.484  -1.343  0.00  0.00    +0.019 A 
ATOM     30  C   UNL     1       0.971   4.562  -1.667  0.00  0.00    +0.013 A 
ATOM     31  C   UNL     1       0.881   4.942  -2.993  0.00  0.00    +0.008 A 
ATOM     32  C   UNL     1       1.542   4.220  -3.931  0.00  0.00    +0.045 A 
ATOM     33  S   UNL     1       2.331   2.962  -2.940  0.00  0.00    -0.099 S 
ENDBRANCH  17  29
TORSDOF 4
