REMARK  Name = ZINC63514880
REMARK  9 active torsions:
REMARK  status: ('A' for Active; 'I' for Inactive)
REMARK    1  A    between atoms: C_1  and  C_2
REMARK    2  A    between atoms: C_2  and  C_3
REMARK    3  A    between atoms: C_3  and  C_25
REMARK    4  A    between atoms: C_4  and  C_23
REMARK    5  A    between atoms: C_4  and  O_24
REMARK    6  A    between atoms: N_5  and  C_9
REMARK    7  A    between atoms: C_9  and  C_10
REMARK    8  A    between atoms: C_10  and  C_11
REMARK    9  A    between atoms: C_19  and  C_21
REMARK                            x       y       z     vdW  Elec       q    Type
REMARK                         _______ _______ _______ _____ _____    ______ ____
ROOT
ATOM      1  C   UNL     1      -1.296  -3.467  -2.434  0.00  0.00    +0.118 C 
ENDROOT
BRANCH   1   4
ATOM      2  C   UNL     1       0.718  -0.497  -1.257  0.00  0.00    +0.157 C 
ATOM      3  C   UNL     1       0.630  -2.038  -1.375  0.00  0.00    +0.175 C 
ATOM      4  N   UNL     1      -0.559  -2.218  -2.231  0.00  0.00    -0.235 N 
ATOM      5  C   UNL     1      -0.845  -1.027  -2.791  0.00  0.00    +0.406 C 
ATOM      6  O   UNL     1      -1.791  -0.842  -3.531  0.00  0.00    -0.226 OA
ATOM      7  O   UNL     1       0.027  -0.065  -2.445  0.00  0.00    -0.439 OA
ATOM      8  C   UNL     1       0.415  -2.678  -0.002  0.00  0.00    +0.068 C 
ATOM      9  C   UNL     1       2.175  -0.030  -1.272  0.00  0.00    +0.060 C 
BRANCH   2  11
ATOM     10  C   UNL     1      -0.019   1.526   0.010  0.00  0.00    +0.008 C 
ATOM     11  C   UNL     1       0.002  -0.004   0.002  0.00  0.00    +0.049 C 
ENDBRANCH   2  11
BRANCH   3  12
ATOM     12  O   UNL     1       1.797  -2.567  -2.007  0.00  0.00    -0.368 OA
ATOM     13  H   UNL     1       1.790  -3.529  -2.104  0.00  0.00    +0.212 HD
ENDBRANCH   3  12
ENDBRANCH   1   4
BRANCH   1  14
ATOM     14  C   UNL     1      -2.406  -3.581  -1.387  0.00  0.00    +0.052 C 
BRANCH  14  15
ATOM     15  C   UNL     1      -3.164  -4.867  -1.596  0.00  0.00    -0.037 C 
ATOM     16  C   UNL     1      -2.930  -5.804  -2.543  0.00  0.00    +0.002 A 
ATOM     17  C   UNL     1      -1.938  -5.902  -3.620  0.00  0.00    +0.048 A 
ATOM     18  C   UNL     1      -1.952  -6.988  -4.429  0.00  0.00    +0.124 A 
ATOM     19  C   UNL     1      -2.891  -8.019  -4.262  0.00  0.00    +0.040 A 
ATOM     20  C   UNL     1      -3.832  -7.998  -3.296  0.00  0.00    +0.029 A 
ATOM     21  C   UNL     1      -3.908  -6.904  -2.389  0.00  0.00    +0.043 A 
ATOM     22  N   UNL     1      -4.716  -6.657  -1.387  0.00  0.00    -0.378 N 
ATOM     23  C   UNL     1      -4.336  -5.373  -0.786  0.00  0.00    +0.103 C 
ATOM     24  C   UNL     1      -5.503  -4.388  -0.874  0.00  0.00    +0.035 C 
ATOM     25  F   UNL     1      -1.041  -7.082  -5.422  0.00  0.00    -0.205 F 
ATOM     26  H   UNL     1      -5.441  -7.229  -1.089  0.00  0.00    +0.160 HD
ENDBRANCH  14  15
ENDBRANCH   1  14
TORSDOF 5
