REMARK  Name = ZINC12330278
REMARK  5 active torsions:
REMARK  status: ('A' for Active; 'I' for Inactive)
REMARK    1  A    between atoms: C_6  and  C_7
REMARK    2  A    between atoms: C_7  and  C_9
REMARK    3  A    between atoms: C_7  and  O_27
REMARK    4  A    between atoms: C_9  and  N_60
REMARK    5  A    between atoms: C_16  and  O_26
REMARK                            x       y       z     vdW  Elec       q    Type
REMARK                         _______ _______ _______ _____ _____    ______ ____
ROOT
ATOM      1  C   UNL     1       2.239  -4.673   0.698  0.00  0.00    -0.075 C 
ATOM      2  C   UNL     1       2.165  -6.197   0.578  0.00  0.00    +0.029 C 
ATOM      3  C   UNL     1       2.057  -6.810   1.975  0.00  0.00    +0.110 C 
ATOM      4  C   UNL     1       0.827  -6.240   2.685  0.00  0.00    +0.029 C 
ATOM      5  C   UNL     1       0.940  -4.714   2.744  0.00  0.00    -0.075 C 
ATOM      6  C   UNL     1       1.922  -8.332   1.854  0.00  0.00    +0.084 C 
ATOM      7  C   UNL     1       3.110  -8.855   1.042  0.00  0.00    +0.152 C 
ATOM      8  C   UNL     1       4.390  -8.272   1.585  0.00  0.00    +0.025 A 
ATOM      9  C   UNL     1       5.590  -8.885   1.265  0.00  0.00    +0.048 A 
ATOM     10  C   UNL     1       6.783  -8.377   1.745  0.00  0.00    +0.124 A 
ATOM     11  C   UNL     1       6.779  -7.251   2.552  0.00  0.00    +0.042 A 
ATOM     12  C   UNL     1       5.586  -6.638   2.873  0.00  0.00    +0.049 A 
ATOM     13  C   UNL     1       4.385  -7.146   2.389  0.00  0.00    +0.127 A 
ATOM     14  O   UNL     1       3.230  -6.514   2.729  0.00  0.00    -0.485 OA
ATOM     15  F   UNL     1       7.951  -8.977   1.427  0.00  0.00    -0.205 F 
ATOM     16  N   UNL     1       1.014  -4.184   1.366  0.00  0.00    +0.382 N 
ATOM     17  H   UNL     1       0.195  -4.509   0.840  0.00  0.00    -0.082 HD
ENDROOT
BRANCH   7  18
ATOM     18  O   UNL     1       3.159 -10.280   1.135  0.00  0.00    -0.387 OA
ATOM     19  H   UNL     1       3.887 -10.681   0.641  0.00  0.00    +0.210 HD
ENDBRANCH   7  18
BRANCH  16  20
ATOM     20  C   UNL     1       1.011  -2.707   1.394  0.00  0.00    -0.042 C 
BRANCH  20  21
ATOM     21  C   UNL     1       1.212  -2.181  -0.029  0.00  0.00    +0.128 C 
BRANCH  21  27
ATOM     22  C   UNL     1      -0.069  -0.029   0.006  0.00  0.00    +0.006 A 
ATOM     23  C   UNL     1      -0.115   1.350   0.010  0.00  0.00    +0.004 A 
ATOM     24  C   UNL     1       1.057   2.095  -0.015  0.00  0.00    -0.044 A 
ATOM     25  C   UNL     1       2.274   1.451  -0.038  0.00  0.00    -0.044 A 
ATOM     26  C   UNL     1       2.318   0.063  -0.043  0.00  0.00    +0.010 A 
ATOM     27  C   UNL     1       1.153  -0.675  -0.021  0.00  0.00    -0.021 A 
ATOM     28  C   UNL     1       3.584   2.194  -0.053  0.00  0.00    +0.035 C 
ATOM     29  C   UNL     1       3.373   3.646  -0.480  0.00  0.00    +0.005 C 
ATOM     30  C   UNL     1       2.256   4.245   0.382  0.00  0.00    +0.005 C 
ATOM     31  C   UNL     1       0.934   3.596  -0.023  0.00  0.00    +0.035 C 
ENDBRANCH  21  27
BRANCH  21  32
ATOM     32  O   UNL     1       0.181  -2.694  -0.876  0.00  0.00    -0.389 OA
ATOM     33  H   UNL     1      -0.712  -2.445  -0.604  0.00  0.00    +0.210 HD
ENDBRANCH  21  32
ENDBRANCH  20  21
ENDBRANCH  16  20
TORSDOF 5
