REMARK  Name = ZINC12809789
REMARK  6 active torsions:
REMARK  status: ('A' for Active; 'I' for Inactive)
REMARK    1  A    between atoms: C_1  and  C_2
REMARK    2  A    between atoms: C_2  and  C_3
REMARK    3  A    between atoms: C_3  and  C_27
REMARK    4  A    between atoms: N_6  and  C_10
REMARK    5  A    between atoms: C_10  and  C_11
REMARK    6  A    between atoms: C_24  and  C_26
REMARK                            x       y       z     vdW  Elec       q    Type
REMARK                         _______ _______ _______ _____ _____    ______ ____
ROOT
ATOM      1  C   UNL     1       1.600   3.794   1.427  0.00  0.00    +0.238 C 
ATOM      2  O   UNL     1       1.460   3.016   2.346  0.00  0.00    -0.273 OA
ATOM      3  N   UNL     1       1.854   5.094   1.677  0.00  0.00    -0.265 N 
ATOM      4  C   UNL     1       2.025   6.003   0.625  0.00  0.00    +0.058 A 
ATOM      5  C   UNL     1       3.177   5.984  -0.145  0.00  0.00    +0.025 A 
ATOM      6  C   UNL     1       3.343   6.909  -1.159  0.00  0.00    +0.002 A 
ATOM      7  C   UNL     1       2.365   7.856  -1.406  0.00  0.00    +0.002 A 
ATOM      8  C   UNL     1       1.194   7.877  -0.644  0.00  0.00    +0.025 A 
ATOM      9  C   UNL     1       1.020   6.943   0.363  0.00  0.00    +0.055 A 
ATOM     10  N   UNL     1      -0.152   6.918   1.127  0.00  0.00    -0.284 N 
ATOM     11  C   UNL     1      -0.093   6.861   2.477  0.00  0.00    +0.219 C 
ATOM     12  O   UNL     1      -1.116   6.763   3.121  0.00  0.00    -0.275 OA
ATOM     13  C   UNL     1       1.234   6.920   3.186  0.00  0.00    +0.118 C 
ATOM     14  C   UNL     1       1.963   5.582   3.052  0.00  0.00    +0.087 C 
ATOM     15  C   UNL     1       3.439   5.768   3.410  0.00  0.00    +0.029 C 
ATOM     16  H   UNL     1      -1.015   6.940   0.685  0.00  0.00    +0.155 HD
ENDROOT
BRANCH   1  17
ATOM     17  C   UNL     1       1.491   3.307   0.005  0.00  0.00    +0.214 C 
BRANCH  17  21
ATOM     18  C   UNL     1       1.419  -0.406  -0.014  0.00  0.00    +0.110 C 
ATOM     19  C   UNL     1       2.164   0.914  -0.014  0.00  0.00    +0.247 C 
ATOM     20  O   UNL     1       3.365   1.077  -0.025  0.00  0.00    -0.273 OA
ATOM     21  N   UNL     1       1.213   1.869   0.001  0.00  0.00    -0.215 N 
ATOM     22  C   UNL     1      -0.016   1.341   0.009  0.00  0.00    +0.310 C 
ATOM     23  O   UNL     1      -1.036   2.003   0.018  0.00  0.00    -0.252 OA
ATOM     24  N   UNL     1       0.002  -0.004   0.002  0.00  0.00    -0.285 N 
ATOM     25  C   UNL     1       1.762  -1.218   1.237  0.00  0.00    +0.041 C 
ATOM     26  H   UNL     1      -0.768  -0.594   0.006  0.00  0.00    +0.151 HD
BRANCH  18  28
ATOM     27  C   UNL     1       0.805  -2.413  -1.369  0.00  0.00    +0.006 C 
ATOM     28  C   UNL     1       1.738  -1.204  -1.279  0.00  0.00    +0.031 C 
ENDBRANCH  18  28
ENDBRANCH  17  21
ENDBRANCH   1  17
TORSDOF 3
