REMARK  Name = ZINC09161240
REMARK  6 active torsions:
REMARK  status: ('A' for Active; 'I' for Inactive)
REMARK    1  A    between atoms: C_1  and  C_2
REMARK    2  A    between atoms: C_6  and  N_8
REMARK    3  A    between atoms: C_9  and  C_25
REMARK    4  A    between atoms: C_28  and  O_33
REMARK    5  A    between atoms: C_29  and  O_31
REMARK    6  A    between atoms: O_31  and  C_32
REMARK                            x       y       z     vdW  Elec       q    Type
REMARK                         _______ _______ _______ _____ _____    ______ ____
ROOT
ATOM      1  N   UNL     1      -0.732   1.575   1.190  0.00  0.00    -0.238 N 
ATOM      2  C   UNL     1      -0.013   1.086   0.008  0.00  0.00    +0.151 C 
ATOM      3  C   UNL     1      -0.774   1.601  -1.185  0.00  0.00    +0.072 A 
ATOM      4  C   UNL     1      -0.569   1.462  -2.630  0.00  0.00    +0.199 A 
ATOM      5  O   UNL     1       0.366   0.828  -3.085  0.00  0.00    -0.287 OA
ATOM      6  C   UNL     1      -1.553   2.128  -3.506  0.00  0.00    +0.065 A 
ATOM      7  C   UNL     1      -1.453   2.061  -4.895  0.00  0.00    +0.030 A 
ATOM      8  C   UNL     1      -2.393   2.699  -5.675  0.00  0.00    +0.019 A 
ATOM      9  C   UNL     1      -3.432   3.403  -5.080  0.00  0.00    +0.019 A 
ATOM     10  C   UNL     1      -3.541   3.476  -3.709  0.00  0.00    +0.048 A 
ATOM     11  C   UNL     1      -2.603   2.840  -2.901  0.00  0.00    +0.140 A 
ATOM     12  O   UNL     1      -2.699   2.906  -1.561  0.00  0.00    -0.450 OA
ATOM     13  C   UNL     1      -1.828   2.316  -0.719  0.00  0.00    +0.199 A 
ATOM     14  C   UNL     1      -1.789   2.290   0.764  0.00  0.00    +0.288 C 
ATOM     15  O   UNL     1      -2.596   2.838   1.489  0.00  0.00    -0.266 OA
ATOM     16 BR   UNL     1      -2.268   2.614  -7.560  0.00  0.00    -0.050 Br
ENDROOT
BRANCH   1  22
ATOM     17  C   UNL     1      -1.823   2.053   5.829  0.00  0.00    +0.065 C 
ATOM     18  C   UNL     1      -0.884   1.556   4.760  0.00  0.00    +0.040 A 
ATOM     19  C   UNL     1       0.273   0.894   5.122  0.00  0.00    +0.023 A 
ATOM     20  C   UNL     1       1.133   0.438   4.133  0.00  0.00    +0.005 A 
ATOM     21  C   UNL     1       0.795   0.661   2.810  0.00  0.00    +0.044 A 
ATOM     22  C   UNL     1      -0.383   1.340   2.518  0.00  0.00    +0.129 A 
ATOM     23  N   UNL     1      -1.177   1.759   3.490  0.00  0.00    -0.237 NA
ENDBRANCH   1  22
BRANCH   2  24
ATOM     24  C   UNL     1       1.395   1.624  -0.003  0.00  0.00    -0.018 A 
ATOM     25  C   UNL     1       1.643   2.916   0.420  0.00  0.00    +0.009 A 
ATOM     26  C   UNL     1       2.933   3.412   0.418  0.00  0.00    +0.049 A 
ATOM     27  C   UNL     1       3.980   2.617  -0.020  0.00  0.00    +0.158 A 
ATOM     28  C   UNL     1       3.730   1.318  -0.451  0.00  0.00    +0.162 A 
ATOM     29  C   UNL     1       2.435   0.825  -0.440  0.00  0.00    +0.055 A 
BRANCH  28  30
ATOM     30  O   UNL     1       4.754   0.533  -0.881  0.00  0.00    -0.491 OA
ATOM     31  C   UNL     1       4.423  -0.789  -1.308  0.00  0.00    +0.277 C 
ENDBRANCH  28  30
BRANCH  27  32
ATOM     32  O   UNL     1       5.249   3.106  -0.028  0.00  0.00    -0.503 OA
ATOM     33  H   UNL     1       5.497   3.543  -0.855  0.00  0.00    +0.292 HD
ENDBRANCH  27  32
ENDBRANCH   2  24
TORSDOF 4
