REMARK  Name = ZINC44924074
REMARK  5 active torsions:
REMARK  status: ('A' for Active; 'I' for Inactive)
REMARK    1  A    between atoms: C_1  and  C_2
REMARK    2  A    between atoms: C_3  and  C_12
REMARK    3  A    between atoms: N_13  and  N_14
REMARK    4  A    between atoms: C_15  and  C_17
REMARK    5  A    between atoms: C_20  and  C_22
REMARK                            x       y       z     vdW  Elec       q    Type
REMARK                         _______ _______ _______ _____ _____    ______ ____
ROOT
ATOM      1  C   UNL     1       0.116  -0.148  -2.446  0.00  0.00    +0.140 C 
ATOM      2  N   UNL     1       0.260   1.132  -2.618  0.00  0.00    -0.188 NA
ENDROOT
BRANCH   1   5
ATOM      3  C   UNL     1       1.946  -2.372  -1.277  0.00  0.00    +0.064 C 
ATOM      4  C   UNL     1       0.822  -1.675  -0.554  0.00  0.00    +0.023 A 
ATOM      5  C   UNL     1       0.032  -0.703  -1.086  0.00  0.00    +0.023 A 
ATOM      6  C   UNL     1      -0.923  -0.316  -0.033  0.00  0.00    +0.009 A 
ATOM      7  C   UNL     1      -1.964   0.609   0.035  0.00  0.00    +0.010 A 
ATOM      8  C   UNL     1      -2.689   0.734   1.199  0.00  0.00    +0.001 A 
ATOM      9  C   UNL     1      -2.388  -0.054   2.301  0.00  0.00    +0.002 A 
ATOM     10  C   UNL     1      -1.362  -0.972   2.248  0.00  0.00    +0.026 A 
ATOM     11  C   UNL     1      -0.617  -1.114   1.081  0.00  0.00    +0.047 A 
ATOM     12  N   UNL     1       0.439  -1.927   0.729  0.00  0.00    -0.358 N 
ATOM     13  H   UNL     1       0.852  -2.583   1.312  0.00  0.00    +0.166 HD
ENDBRANCH   1   5
BRANCH   2  14
ATOM     14  N   UNL     1       0.461   1.968  -1.512  0.00  0.00    -0.207 N 
ATOM     15  C   UNL     1       0.707   3.281  -1.696  0.00  0.00    +0.236 C 
ATOM     16  O   UNL     1       0.753   3.738  -2.819  0.00  0.00    -0.274 OA
ATOM     17  H   UNL     1       0.424   1.603  -0.614  0.00  0.00    +0.177 HD
BRANCH  15  18
ATOM     18  C   UNL     1       0.923   4.181  -0.506  0.00  0.00    +0.085 C 
ATOM     19  C   UNL     1       2.329   4.748  -0.297  0.00  0.00    +0.022 C 
ATOM     20  C   UNL     1       1.199   5.660  -0.781  0.00  0.00    +0.032 C 
BRANCH  20  21
ATOM     21  C   UNL     1       1.234   6.106  -2.220  0.00  0.00    -0.044 A 
ATOM     22  C   UNL     1       2.148   5.550  -3.095  0.00  0.00    +0.004 A 
ATOM     23  C   UNL     1       2.180   5.959  -4.415  0.00  0.00    +0.000 A 
ATOM     24  C   UNL     1       1.296   6.924  -4.861  0.00  0.00    +0.000 A 
ATOM     25  C   UNL     1       0.381   7.480  -3.986  0.00  0.00    +0.000 A 
ATOM     26  C   UNL     1       0.347   7.068  -2.667  0.00  0.00    +0.004 A 
ENDBRANCH  20  21
ENDBRANCH  15  18
ENDBRANCH   2  14
TORSDOF 4
