REMARK  Name = ZINC32529106
REMARK  11 active torsions:
REMARK  status: ('A' for Active; 'I' for Inactive)
REMARK    1  A    between atoms: C_1  and  C_2
REMARK    2  A    between atoms: C_2  and  C_3
REMARK    3  A    between atoms: C_3  and  C_5
REMARK    4  A    between atoms: C_3  and  S_18
REMARK    5  A    between atoms: N_7  and  C_8
REMARK    6  A    between atoms: C_9  and  C_15
REMARK    7  A    between atoms: C_10  and  C_14
REMARK    8  A    between atoms: C_11  and  C_13
REMARK    9  A    between atoms: S_18  and  C_19
REMARK   10  A    between atoms: C_21  and  C_30
REMARK   11  A    between atoms: C_26  and  C_29
REMARK                            x       y       z     vdW  Elec       q    Type
REMARK                         _______ _______ _______ _____ _____    ______ ____
ROOT
ATOM      1  C   UNL     1       3.029   5.298  -0.012  0.00  0.00    +0.139 C 
ENDROOT
BRANCH   1   2
ATOM      2  C   UNL     1       2.945   3.803   0.158  0.00  0.00    +0.231 C 
ATOM      3  O   UNL     1       3.958   3.148   0.281  0.00  0.00    -0.274 OA
ATOM      4  N   UNL     1       1.743   3.192   0.173  0.00  0.00    -0.278 N 
ATOM      5  H   UNL     1       0.824   3.786   0.062  0.00  0.00    +0.155 HD
BRANCH   4   6
ATOM      6  C   UNL     1       1.666   1.817   0.330  0.00  0.00    +0.084 A 
ATOM      7  C   UNL     1       0.531   1.015   0.371  0.00  0.00    +0.068 A 
ATOM      8  C   UNL     1       0.744  -0.402   0.544  0.00  0.00    -0.027 A 
ATOM      9  C   UNL     1       2.017  -0.824   0.651  0.00  0.00    -0.008 A 
ATOM     10  S   UNL     1       2.959   0.682   0.520  0.00  0.00    -0.078 S 
ATOM     11  C   UNL     1       2.523  -2.231   0.837  0.00  0.00    +0.052 C 
ATOM     12  C   UNL     1      -0.411  -1.368   0.604  0.00  0.00    +0.045 C 
BRANCH   7  13
ATOM     13  C   UNL     1      -0.815   1.580   0.238  0.00  0.00    +0.244 C 
ATOM     14  O   UNL     1      -1.427   1.935   1.229  0.00  0.00    -0.270 OA
ATOM     15  N   UNL     1      -1.376   1.707  -0.981  0.00  0.00    -0.325 N 
ATOM     16  H   UNL     1      -2.386   2.131  -1.081  0.00  0.00    +0.145 HD
ATOM     17  H   UNL     1      -0.823   1.386  -1.877  0.00  0.00    +0.145 HD
ENDBRANCH   7  13
ENDBRANCH   4   6
ENDBRANCH   1   2
BRANCH   1  19
ATOM     18  C   UNL     1       2.806   7.493   1.160  0.00  0.00    +0.005 C 
ATOM     19  C   UNL     1       2.866   5.976   1.350  0.00  0.00    +0.020 C 
ENDBRANCH   1  19
BRANCH   1  20
ATOM     20  S   UNL     1       4.638   5.735  -0.716  0.00  0.00    -0.093 S 
BRANCH  20  21
ATOM     21  C   UNL     1       4.453   5.072  -2.338  0.00  0.00    +0.099 A 
ATOM     22  C   UNL     1       5.558   5.060  -3.203  0.00  0.00    +0.038 A 
ATOM     23  C   UNL     1       5.431   4.545  -4.457  0.00  0.00    -0.039 A 
ATOM     24  C   UNL     1       4.172   4.047  -4.852  0.00  0.00    +0.004 A 
ATOM     25  C   UNL     1       3.971   3.508  -6.132  0.00  0.00    +0.010 A 
ATOM     26  C   UNL     1       2.741   3.036  -6.478  0.00  0.00    +0.001 A 
ATOM     27  C   UNL     1       1.679   3.081  -5.578  0.00  0.00    +0.005 A 
ATOM     28  C   UNL     1       1.840   3.596  -4.328  0.00  0.00    -0.024 A 
ATOM     29  C   UNL     1       3.094   4.093  -3.934  0.00  0.00    +0.075 A 
ATOM     30  N   UNL     1       3.279   4.605  -2.712  0.00  0.00    -0.240 NA
ATOM     31  C   UNL     1       0.677   3.633  -3.370  0.00  0.00    +0.046 C 
ATOM     32  C   UNL     1       6.605   4.515  -5.402  0.00  0.00    +0.044 C 
ENDBRANCH  20  21
ENDBRANCH   1  20
TORSDOF 6
