REMARK  Name = ZINC14551936
REMARK  9 active torsions:
REMARK  status: ('A' for Active; 'I' for Inactive)
REMARK    1  A    between atoms: C_1  and  C_2
REMARK    2  A    between atoms: C_2  and  C_3
REMARK    3  A    between atoms: C_2  and  C_4
REMARK    4  A    between atoms: C_2  and  N_5
REMARK    5  A    between atoms: N_5  and  S_6
REMARK    6  A    between atoms: S_6  and  C_9
REMARK    7  A    between atoms: C_22  and  C_25
REMARK    8  A    between atoms: C_28  and  S_31
REMARK    9  A    between atoms: S_31  and  C_32
REMARK                            x       y       z     vdW  Elec       q    Type
REMARK                         _______ _______ _______ _____ _____    ______ ____
ROOT
ATOM      1  C   UNL     1      -8.391   2.558   1.205  0.00  0.00    +0.106 A 
ATOM      2  C   UNL     1      -8.277   2.756  -0.159  0.00  0.00    +0.030 A 
ATOM      3  C   UNL     1      -7.996   1.694  -0.993  0.00  0.00    +0.025 A 
ATOM      4  C   UNL     1      -7.823   0.418  -0.471  0.00  0.00    +0.031 A 
ATOM      5  C   UNL     1      -7.925   0.227   0.912  0.00  0.00    -0.018 A 
ATOM      6  C   UNL     1      -8.215   1.293   1.736  0.00  0.00    +0.034 A 
ATOM      7  C   UNL     1      -7.690  -1.137   1.432  0.00  0.00    +0.049 C 
ATOM      8  C   UNL     1      -8.288  -1.607   2.708  0.00  0.00    -0.023 C 
ATOM      9  C   UNL     1      -8.506  -2.913   2.619  0.00  0.00    -0.030 C 
ATOM     10  C   UNL     1      -8.092  -3.419   1.235  0.00  0.00    +0.033 C 
ATOM     11  C   UNL     1      -8.242  -2.151   0.385  0.00  0.00    +0.029 C 
ATOM     12  C   UNL     1      -7.335  -2.017  -0.826  0.00  0.00    +0.105 C 
ATOM     13  N   UNL     1      -7.554  -0.647  -1.339  0.00  0.00    -0.336 N 
ATOM     14  H   UNL     1      -7.511  -0.484  -2.294  0.00  0.00    +0.147 HD
ENDROOT
BRANCH  12  15
ATOM     15  C   UNL     1      -5.895  -2.196  -0.419  0.00  0.00    -0.027 A 
ATOM     16  C   UNL     1      -5.114  -1.090  -0.140  0.00  0.00    +0.006 A 
ATOM     17  C   UNL     1      -3.794  -1.250   0.232  0.00  0.00    +0.015 A 
ATOM     18  C   UNL     1      -3.251  -2.526   0.326  0.00  0.00    +0.008 A 
ATOM     19  C   UNL     1      -4.037  -3.636   0.039  0.00  0.00    +0.015 A 
ATOM     20  C   UNL     1      -5.358  -3.467  -0.328  0.00  0.00    +0.006 A 
BRANCH  18  21
ATOM     21  S   UNL     1      -1.567  -2.736   0.800  0.00  0.00    -0.129 S 
ATOM     22  C   UNL     1      -1.326  -4.534   0.781  0.00  0.00    +0.090 C 
ENDBRANCH  18  21
ENDBRANCH  12  15
BRANCH   1  23
ATOM     23  S   UNL     1      -8.761   3.915   2.266  0.00  0.00    +0.059 S 
ATOM     24  O   UNL     1      -8.079   3.672   3.489  0.00  0.00    -0.153 OA
ATOM     25  O   UNL     1      -8.557   5.095   1.501  0.00  0.00    -0.153 OA
BRANCH  23  26
ATOM     26  N   UNL     1     -10.380   3.844   2.606  0.00  0.00    -0.185 NA
ATOM     27  H   UNL     1     -10.679   3.633   3.504  0.00  0.00    +0.149 HD
BRANCH  26  29
ATOM     28  C   UNL     1     -11.106   3.154   0.374  0.00  0.00    +0.029 C 
ATOM     29  C   UNL     1     -11.362   4.101   1.549  0.00  0.00    +0.032 C 
ATOM     30  C   UNL     1     -12.772   3.866   2.095  0.00  0.00    +0.029 C 
ATOM     31  C   UNL     1     -11.233   5.549   1.073  0.00  0.00    +0.029 C 
ENDBRANCH  26  29
ENDBRANCH  23  26
ENDBRANCH   1  23
TORSDOF 5
