REMARK  Name = ZINC39228102
REMARK  7 active torsions:
REMARK  status: ('A' for Active; 'I' for Inactive)
REMARK    1  A    between atoms: C_1  and  C_2
REMARK    2  A    between atoms: C_2  and  C_3
REMARK    3  A    between atoms: C_3  and  C_5
REMARK    4  A    between atoms: C_3  and  C_6
REMARK    5  A    between atoms: C_6  and  N_7
REMARK    6  A    between atoms: C_8  and  C_10
REMARK    7  A    between atoms: C_12  and  O_37
REMARK                            x       y       z     vdW  Elec       q    Type
REMARK                         _______ _______ _______ _____ _____    ______ ____
ROOT
ATOM      1  C   UNL     1       2.767  -4.311   3.595  0.00  0.00    +0.107 C 
ATOM      2  C   UNL     1       2.092  -3.921   4.913  0.00  0.00    +0.127 C 
ATOM      3  C   UNL     1       2.930  -4.422   6.090  0.00  0.00    +0.032 C 
ATOM      4  C   UNL     1       3.071  -5.944   6.014  0.00  0.00    +0.004 C 
ATOM      5  C   UNL     1       3.753  -6.319   4.698  0.00  0.00    -0.024 C 
ATOM      6  C   UNL     1       2.894  -5.833   3.528  0.00  0.00    +0.004 C 
ATOM      7  C   UNL     1       3.552  -6.250   2.210  0.00  0.00    -0.005 C 
ATOM      8  C   UNL     1       3.728  -7.771   2.211  0.00  0.00    -0.020 C 
ATOM      9  C   UNL     1       4.375  -8.217   0.923  0.00  0.00    +0.006 A 
ATOM     10  H   UNL     1       3.453  -7.095  -0.569  0.00  0.00    +0.166 HD
ATOM     11  C   UNL     1       5.344  -9.161   0.883  0.00  0.00    -0.022 A 
ATOM     12  C   UNL     1       5.720  -9.327  -0.503  0.00  0.00    +0.003 A 
ATOM     13  C   UNL     1       6.654 -10.148  -1.143  0.00  0.00    +0.010 A 
ATOM     14  C   UNL     1       6.744 -10.037  -2.509  0.00  0.00    +0.001 A 
ATOM     15  C   UNL     1       5.954  -9.158  -3.231  0.00  0.00    +0.002 A 
ATOM     16  C   UNL     1       5.022  -8.334  -2.623  0.00  0.00    +0.026 A 
ATOM     17  C   UNL     1       4.908  -8.424  -1.238  0.00  0.00    +0.047 A 
ATOM     18  N   UNL     1       4.109  -7.772  -0.342  0.00  0.00    -0.359 N 
ATOM     19  C   UNL     1       5.872  -9.860   2.111  0.00  0.00    +0.019 C 
ATOM     20  C   UNL     1       4.895  -9.596   3.266  0.00  0.00    -0.073 C 
ATOM     21  N   UNL     1       4.589  -8.164   3.334  0.00  0.00    +0.386 N 
ATOM     22  C   UNL     1       3.922  -7.836   4.602  0.00  0.00    -0.074 C 
ATOM     23  H   UNL     1       5.453  -7.644   3.281  0.00  0.00    -0.081 HD
ENDROOT
BRANCH   1  25
ATOM     24  N   UNL     1       1.683  -2.507   2.295  0.00  0.00    -0.315 N 
ATOM     25  C   UNL     1       1.933  -3.824   2.438  0.00  0.00    +0.219 C 
ATOM     26  O   UNL     1       1.486  -4.617   1.637  0.00  0.00    -0.275 OA
ATOM     27  H   UNL     1       2.040  -1.873   2.937  0.00  0.00    +0.149 HD
BRANCH  24  28
ATOM     28  C   UNL     1       0.872  -2.034   1.171  0.00  0.00    +0.107 C 
BRANCH  28  29
ATOM     29  C   UNL     1       0.742  -0.511   1.242  0.00  0.00    +0.003 C 
ATOM     30  C   UNL     1      -0.042  -0.124   2.497  0.00  0.00    +0.009 C 
BRANCH  29  32
ATOM     31  C   UNL     1      -0.019   1.526   0.010  0.00  0.00    +0.004 C 
ATOM     32  C   UNL     1       0.002  -0.004   0.002  0.00  0.00    +0.001 C 
ENDBRANCH  29  32
ENDBRANCH  28  29
ENDBRANCH  24  28
ENDBRANCH   1  25
BRANCH   2  33
ATOM     33  O   UNL     1       0.791  -4.508   4.973  0.00  0.00    -0.391 OA
ATOM     34  H   UNL     1       0.303  -4.302   5.783  0.00  0.00    +0.210 HD
ENDBRANCH   2  33
TORSDOF 5
