REMARK  Name = ZINC40168866
REMARK  11 active torsions:
REMARK  status: ('A' for Active; 'I' for Inactive)
REMARK    1  A    between atoms: C_1  and  N_2
REMARK    2  A    between atoms: N_2  and  C_3
REMARK    3  A    between atoms: N_2  and  C_17
REMARK    4  A    between atoms: C_3  and  C_4
REMARK    5  A    between atoms: C_4  and  O_5
REMARK    6  A    between atoms: O_5  and  C_6
REMARK    7  A    between atoms: N_8  and  C_9
REMARK    8  A    between atoms: C_17  and  C_18
REMARK    9  A    between atoms: C_18  and  O_19
REMARK   10  A    between atoms: O_19  and  C_20
REMARK   11  A    between atoms: N_22  and  C_23
REMARK                            x       y       z     vdW  Elec       q    Type
REMARK                         _______ _______ _______ _____ _____    ______ ____
ROOT
ATOM      1  C   UNL     1      -0.042   1.483  -0.030  0.00  0.00    -0.096 C 
ATOM      2  N   UNL     1      -0.107   0.016  -0.062  0.00  0.00    +0.382 N 
ATOM      3  H   UNL     1      -1.072  -0.278  -0.084  0.00  0.00    -0.082 HD
ENDROOT
BRANCH   2   4
ATOM      4  C   UNL     1       0.582  -0.479  -1.261  0.00  0.00    -0.037 C 
BRANCH   4   5
ATOM      5  C   UNL     1       0.378  -1.991  -1.380  0.00  0.00    +0.215 C 
BRANCH   5   6
ATOM      6  O   UNL     1      -1.008  -2.269  -1.591  0.00  0.00    -0.452 OA
BRANCH   6   7
ATOM      7  C   UNL     1      -1.360  -3.562  -1.717  0.00  0.00    +0.401 C 
ATOM      8  O   UNL     1      -0.513  -4.431  -1.650  0.00  0.00    -0.226 OA
ATOM      9  N   UNL     1      -2.651  -3.893  -1.918  0.00  0.00    -0.273 N 
ATOM     10  H   UNL     1      -3.327  -3.200  -1.972  0.00  0.00    +0.153 HD
BRANCH   9  11
ATOM     11  C   UNL     1      -3.033  -5.301  -2.056  0.00  0.00    +0.122 C 
ATOM     12  C   UNL     1      -4.332  -5.398  -2.899  0.00  0.00    +0.197 C 
ATOM     13  S   UNL     1      -5.553  -5.504  -1.522  0.00  0.00    -0.008 S 
ATOM     14  O   UNL     1      -6.474  -6.563  -1.737  0.00  0.00    -0.170 OA
ATOM     15  O   UNL     1      -5.988  -4.211  -1.125  0.00  0.00    -0.170 OA
ATOM     16  C   UNL     1      -4.452  -6.067  -0.237  0.00  0.00    +0.132 C 
ATOM     17  C   UNL     1      -3.243  -5.889  -0.698  0.00  0.00    +0.016 C 
ENDBRANCH   9  11
ENDBRANCH   6   7
ENDBRANCH   5   6
ENDBRANCH   4   5
ENDBRANCH   2   4
BRANCH   2  18
ATOM     18  C   UNL     1       0.544  -0.529   1.137  0.00  0.00    -0.037 C 
BRANCH  18  19
ATOM     19  C   UNL     1      -0.247  -0.116   2.379  0.00  0.00    +0.215 C 
BRANCH  19  20
ATOM     20  O   UNL     1      -1.541  -0.722   2.343  0.00  0.00    -0.452 OA
BRANCH  20  21
ATOM     21  C   UNL     1      -2.369  -0.457   3.372  0.00  0.00    +0.401 C 
ATOM     22  O   UNL     1      -2.002   0.268   4.276  0.00  0.00    -0.226 OA
ATOM     23  N   UNL     1      -3.603  -0.997   3.400  0.00  0.00    -0.273 N 
ATOM     24  H   UNL     1      -3.896  -1.575   2.678  0.00  0.00    +0.153 HD
BRANCH  23  25
ATOM     25  C   UNL     1      -4.504  -0.709   4.519  0.00  0.00    +0.122 C 
ATOM     26  C   UNL     1      -5.510  -1.879   4.680  0.00  0.00    +0.197 C 
ATOM     27  S   UNL     1      -6.924  -1.163   3.739  0.00  0.00    -0.008 S 
ATOM     28  O   UNL     1      -6.848  -1.506   2.362  0.00  0.00    -0.170 OA
ATOM     29  O   UNL     1      -8.138  -1.287   4.468  0.00  0.00    -0.170 OA
ATOM     30  C   UNL     1      -6.465   0.557   3.841  0.00  0.00    +0.132 C 
ATOM     31  C   UNL     1      -5.226   0.573   4.253  0.00  0.00    +0.016 C 
ENDBRANCH  23  25
ENDBRANCH  20  21
ENDBRANCH  19  20
ENDBRANCH  18  19
ENDBRANCH   2  18
TORSDOF 10
