REMARK  Name = ZINC09274257
REMARK  13 active torsions:
REMARK  status: ('A' for Active; 'I' for Inactive)
REMARK    1  A    between atoms: C_1  and  C_2
REMARK    2  A    between atoms: C_2  and  N_64
REMARK    3  A    between atoms: C_3  and  C_4
REMARK    4  A    between atoms: C_3  and  N_64
REMARK    5  A    between atoms: C_5  and  C_6
REMARK    6  A    between atoms: C_5  and  N_64
REMARK    7  A    between atoms: C_6  and  C_7
REMARK    8  A    between atoms: C_7  and  N_8
REMARK    9  A    between atoms: C_9  and  C_29
REMARK   10  A    between atoms: C_12  and  C_13
REMARK   11  A    between atoms: C_12  and  O_24
REMARK   12  A    between atoms: C_19  and  O_22
REMARK   13  A    between atoms: O_22  and  C_23
REMARK                            x       y       z     vdW  Elec       q    Type
REMARK                         _______ _______ _______ _____ _____    ______ ____
ROOT
ATOM      1  N   UNL     1      -2.901  -3.928   1.747  0.00  0.00    -0.284 N 
ATOM      2  C   UNL     1      -2.260  -4.705   2.812  0.00  0.00    +0.147 C 
ATOM      3  C   UNL     1      -2.538  -6.160   2.513  0.00  0.00    +0.074 C 
ATOM      4  C   UNL     1      -2.125  -7.255   3.253  0.00  0.00    +0.168 C 
ATOM      5  C   UNL     1      -3.298  -6.178   1.336  0.00  0.00    +0.249 C 
ATOM      6  O   UNL     1      -3.719  -7.173   0.772  0.00  0.00    -0.282 OA
ATOM      7  C   UNL     1      -3.506  -4.773   0.895  0.00  0.00    +0.288 C 
ATOM      8  O   UNL     1      -4.128  -4.439  -0.092  0.00  0.00    -0.266 OA
ENDROOT
BRANCH   4   9
ATOM      9  C   UNL     1      -2.377  -8.608   2.760  0.00  0.00    +0.171 A 
ATOM     10  C   UNL     1      -2.893  -9.633   3.497  0.00  0.00    +0.061 A 
ATOM     11  C   UNL     1      -2.975 -10.757   2.637  0.00  0.00    +0.025 A 
ATOM     12  C   UNL     1      -3.414 -12.076   2.808  0.00  0.00    +0.012 A 
ATOM     13  C   UNL     1      -3.360 -12.951   1.762  0.00  0.00    +0.004 A 
ATOM     14  C   UNL     1      -2.872 -12.546   0.527  0.00  0.00    +0.049 A 
ATOM     15  C   UNL     1      -2.433 -11.248   0.334  0.00  0.00    +0.163 A 
ATOM     16  C   UNL     1      -2.479 -10.338   1.389  0.00  0.00    +0.177 A 
ATOM     17  O   UNL     1      -2.131  -9.040   1.504  0.00  0.00    -0.448 OA
BRANCH  15  18
ATOM     18  O   UNL     1      -1.958 -10.862  -0.879  0.00  0.00    -0.491 OA
ATOM     19  C   UNL     1      -1.940 -11.849  -1.913  0.00  0.00    +0.277 C 
ENDBRANCH  15  18
ENDBRANCH   4   9
BRANCH   2  20
ATOM     20  C   UNL     1      -2.849  -4.331   4.148  0.00  0.00    +0.013 A 
ATOM     21  C   UNL     1      -4.125  -3.806   4.220  0.00  0.00    +0.008 A 
ATOM     22  C   UNL     1      -4.667  -3.469   5.446  0.00  0.00    +0.001 A 
ATOM     23  C   UNL     1      -3.929  -3.646   6.601  0.00  0.00    +0.003 A 
ATOM     24  C   UNL     1      -2.650  -4.165   6.532  0.00  0.00    +0.039 A 
ATOM     25  C   UNL     1      -2.108  -4.508   5.305  0.00  0.00    +0.129 A 
ATOM     26  F   UNL     1      -0.858  -5.016   5.236  0.00  0.00    -0.205 F 
ENDBRANCH   2  20
BRANCH   4  27
ATOM     27  O   UNL     1      -1.489  -7.073   4.431  0.00  0.00    -0.503 OA
ATOM     28  H   UNL     1      -1.263  -7.962   4.829  0.00  0.00    +0.292 HD
ENDBRANCH   4  27
BRANCH   1  29
ATOM     29  C   UNL     1      -2.890  -2.467   1.633  0.00  0.00    +0.107 C 
BRANCH  29  30
ATOM     30  C   UNL     1      -1.675  -2.029   0.814  0.00  0.00    +0.000 C 
BRANCH  30  31
ATOM     31  C   UNL     1      -1.663  -0.504   0.695  0.00  0.00    -0.077 C 
BRANCH  31  32
ATOM     32  N   UNL     1      -0.475  -0.097  -0.085  0.00  0.00    +0.379 N 
ATOM     33  H   UNL     1      -0.421  -0.670  -0.935  0.00  0.00    -0.082 HD
BRANCH  32  35
ATOM     34  C   UNL     1       0.534   1.659  -1.457  0.00  0.00    -0.017 C 
ATOM     35  C   UNL     1      -0.587   1.326  -0.471  0.00  0.00    -0.082 C 
ENDBRANCH  32  35
BRANCH  32  36
ATOM     36  C   UNL     1       0.750  -0.308   0.715  0.00  0.00    -0.082 C 
ATOM     37  C   UNL     1       0.708   0.532   1.994  0.00  0.00    -0.017 C 
ENDBRANCH  32  36
ENDBRANCH  31  32
ENDBRANCH  30  31
ENDBRANCH  29  30
ENDBRANCH   1  29
TORSDOF 10
