REMARK  Name = ZINC05332296
REMARK  3 active torsions:
REMARK  status: ('A' for Active; 'I' for Inactive)
REMARK    1  A    between atoms: N_7  and  C_11
REMARK    2  A    between atoms: C_11  and  N_12
REMARK    3  A    between atoms: N_12  and  C_13
REMARK                            x       y       z     vdW  Elec       q    Type
REMARK                         _______ _______ _______ _____ _____    ______ ____
ROOT
ATOM      1  C   UNL     1      -0.013   1.076   0.008  0.00  0.00    +0.002 A 
ATOM      2  C   UNL     1      -1.228   1.738   0.017  0.00  0.00    +0.001 A 
ATOM      3  C   UNL     1      -1.241   3.122   0.029  0.00  0.00    +0.017 A 
ATOM      4  C   UNL     1      -0.053   3.812   0.022  0.00  0.00    +0.038 A 
ATOM      5  C   UNL     1       1.194   3.171   0.007  0.00  0.00    +0.058 A 
ATOM      6  C   UNL     1       1.176   1.766   0.000  0.00  0.00    +0.027 A 
ATOM      7  N   UNL     1       2.300   4.003   0.001  0.00  0.00    -0.312 N 
ATOM      8  C   UNL     1       2.153   5.343   0.010  0.00  0.00    +0.128 A 
ATOM      9  S   UNL     1       3.363   6.554   0.005  0.00  0.00    -0.025 S 
ATOM     10  S   UNL     1       0.378   5.535   0.027  0.00  0.00    -0.062 S 
ENDROOT
BRANCH   7  11
ATOM     11  C   UNL     1       3.645   3.422  -0.014  0.00  0.00    +0.228 C 
BRANCH  11  12
ATOM     12  N   UNL     1       4.081   3.235  -1.400  0.00  0.00    -0.326 N 
ATOM     13  H   UNL     1       3.495   3.489  -2.131  0.00  0.00    +0.148 HD
BRANCH  12  14
ATOM     14  C   UNL     1       5.339   2.691  -1.669  0.00  0.00    +0.028 A 
ATOM     15  C   UNL     1       6.180   2.332  -0.624  0.00  0.00    +0.024 A 
ATOM     16  C   UNL     1       7.422   1.790  -0.893  0.00  0.00    +0.017 A 
ATOM     17  C   UNL     1       7.832   1.614  -2.203  0.00  0.00    +0.018 A 
ATOM     18  C   UNL     1       6.998   1.976  -3.246  0.00  0.00    +0.017 A 
ATOM     19  C   UNL     1       5.754   2.513  -2.983  0.00  0.00    +0.024 A 
ATOM     20 BR   UNL     1       9.535   0.878  -2.567  0.00  0.00    -0.050 Br
ENDBRANCH  12  14
ENDBRANCH  11  12
ENDBRANCH   7  11
TORSDOF 3
