REMARK  Name = ZINC09703982
REMARK  12 active torsions:
REMARK  status: ('A' for Active; 'I' for Inactive)
REMARK    1  A    between atoms: C_1  and  C_2
REMARK    2  A    between atoms: C_2  and  C_4
REMARK    3  A    between atoms: C_2  and  N_57
REMARK    4  A    between atoms: C_11  and  C_12
REMARK    5  A    between atoms: C_11  and  N_57
REMARK    6  A    between atoms: C_12  and  C_14
REMARK    7  A    between atoms: C_12  and  O_33
REMARK    8  A    between atoms: C_14  and  O_15
REMARK    9  A    between atoms: O_15  and  C_16
REMARK   10  A    between atoms: C_19  and  S_25
REMARK   11  A    between atoms: C_21  and  N_22
REMARK   12  A    between atoms: S_25  and  N_28
REMARK                            x       y       z     vdW  Elec       q    Type
REMARK                         _______ _______ _______ _____ _____    ______ ____
ROOT
ATOM      1  O   UNL     1      -0.017   1.425   0.010  0.00  0.00    -0.487 OA
ENDROOT
BRANCH   1   2
ATOM      2  C   UNL     1       1.185   2.058   0.002  0.00  0.00    +0.151 A 
ATOM      3  C   UNL     1       2.360   1.319  -0.013  0.00  0.00    +0.050 A 
ATOM      4  C   UNL     1       3.580   1.966  -0.022  0.00  0.00    +0.032 A 
ATOM      5  C   UNL     1       3.633   3.348  -0.016  0.00  0.00    +0.108 A 
ATOM      6  C   UNL     1       2.464   4.086  -0.001  0.00  0.00    +0.065 A 
ATOM      7  C   UNL     1       1.240   3.444   0.003  0.00  0.00    +0.169 A 
BRANCH   7   8
ATOM      8  N   UNL     1      -0.011   4.235   0.013  0.00  0.00    +0.060 N 
ATOM      9  O   UNL     1       0.038   5.452   0.014  0.00  0.00    -0.126 OA
ATOM     10  O   UNL     1      -1.089   3.669   0.021  0.00  0.00    -0.126 OA
ENDBRANCH   7   8
BRANCH   5  11
ATOM     11  S   UNL     1       5.191   4.169  -0.028  0.00  0.00    +0.061 S 
ATOM     12  O   UNL     1       4.976   5.457   0.531  0.00  0.00    -0.153 OA
ATOM     13  O   UNL     1       6.137   3.254   0.508  0.00  0.00    -0.153 OA
BRANCH  11  14
ATOM     14  N   UNL     1       5.608   4.404  -1.614  0.00  0.00    -0.177 NA
ATOM     15  C   UNL     1       6.386   3.472  -2.443  0.00  0.00    +0.109 C 
ATOM     16  C   UNL     1       6.547   4.121  -3.834  0.00  0.00    +0.018 C 
ATOM     17  C   UNL     1       6.345   5.630  -3.537  0.00  0.00    +0.018 C 
ATOM     18  C   UNL     1       5.266   5.587  -2.425  0.00  0.00    +0.109 C 
ENDBRANCH  11  14
ENDBRANCH   5  11
ENDBRANCH   1   2
BRANCH   1  19
ATOM     19  C   UNL     1       0.002  -0.004   0.002  0.00  0.00    +0.258 C 
BRANCH  19  20
ATOM     20  C   UNL     1      -1.433  -0.534   0.013  0.00  0.00    +0.135 C 
BRANCH  20  21
ATOM     21  O   UNL     1      -2.089  -0.158  -1.200  0.00  0.00    -0.390 OA
ATOM     22  H   UNL     1      -1.665  -0.500  -1.999  0.00  0.00    +0.210 HD
ENDBRANCH  20  21
BRANCH  20  23
ATOM     23  C   UNL     1      -1.413  -2.059   0.130  0.00  0.00    -0.047 C 
BRANCH  23  24
ATOM     24  N   UNL     1      -2.800  -2.561   0.140  0.00  0.00    +0.385 N 
ATOM     25  H   UNL     1      -3.301  -2.157   0.940  0.00  0.00    -0.085 HD
ATOM     26  H   UNL     1      -3.267  -2.285  -0.732  0.00  0.00    -0.085 HD
BRANCH  24  28
ATOM     27  C   UNL     1      -2.722  -4.432   1.727  0.00  0.00    -0.009 C 
ATOM     28  C   UNL     1      -2.811  -4.032   0.253  0.00  0.00    -0.044 C 
BRANCH  28  29
ATOM     29  C   UNL     1      -4.093  -4.563  -0.336  0.00  0.00    -0.061 A 
ATOM     30  C   UNL     1      -5.284  -3.897  -0.113  0.00  0.00    +0.005 A 
ATOM     31  C   UNL     1      -6.459  -4.380  -0.656  0.00  0.00    +0.038 A 
ATOM     32  C   UNL     1      -6.445  -5.539  -1.415  0.00  0.00    +0.123 A 
ATOM     33  C   UNL     1      -5.253  -6.208  -1.633  0.00  0.00    +0.038 A 
ATOM     34  C   UNL     1      -4.078  -5.720  -1.093  0.00  0.00    +0.005 A 
ATOM     35  F   UNL     1      -7.594  -6.016  -1.941  0.00  0.00    -0.205 F 
ENDBRANCH  28  29
ENDBRANCH  24  28
ENDBRANCH  23  24
ENDBRANCH  20  23
ENDBRANCH  19  20
ENDBRANCH   1  19
TORSDOF 11
