REMARK  Name = ZINC12918037
REMARK  8 active torsions:
REMARK  status: ('A' for Active; 'I' for Inactive)
REMARK    1  A    between atoms: C_1  and  C_2
REMARK    2  A    between atoms: C_5  and  N_8
REMARK    3  A    between atoms: C_9  and  C_11
REMARK    4  A    between atoms: C_11  and  N_12
REMARK    5  A    between atoms: N_12  and  C_13
REMARK    6  A    between atoms: C_14  and  C_16
REMARK    7  A    between atoms: C_16  and  C_17
REMARK    8  A    between atoms: C_17  and  C_18
REMARK                            x       y       z     vdW  Elec       q    Type
REMARK                         _______ _______ _______ _____ _____    ______ ____
ROOT
ATOM      1  C   UNL     1       4.872   4.132   0.481  0.00  0.00    +0.103 C 
ENDROOT
BRANCH   1   4
ATOM      2  N   UNL     1       3.416   2.296  -0.311  0.00  0.00    -0.296 N 
ATOM      3  C   UNL     1       3.885   2.575  -1.671  0.00  0.00    +0.132 C 
ATOM      4  C   UNL     1       3.876   3.028   0.723  0.00  0.00    +0.216 C 
ATOM      5  O   UNL     1       3.487   2.797   1.849  0.00  0.00    -0.276 OA
BRANCH   2   6
ATOM      6  C   UNL     1       2.448   1.223  -0.076  0.00  0.00    +0.203 C 
BRANCH   6   8
ATOM      7  N   UNL     1      -0.011   0.966   0.007  0.00  0.00    -0.284 N 
ATOM      8  C   UNL     1       1.050   1.777  -0.174  0.00  0.00    +0.235 C 
ATOM      9  O   UNL     1       0.879   2.953  -0.417  0.00  0.00    -0.274 OA
ATOM     10  H   UNL     1       0.122   0.012   0.124  0.00  0.00    +0.155 HD
BRANCH   7  15
ATOM     11  C   UNL     1      -5.256   3.126   0.068  0.00  0.00    +0.044 C 
ATOM     12  C   UNL     1      -3.863   2.552   0.052  0.00  0.00    -0.050 A 
ATOM     13  C   UNL     1      -3.645   1.284  -0.456  0.00  0.00    +0.005 A 
ATOM     14  C   UNL     1      -2.369   0.756  -0.472  0.00  0.00    +0.023 A 
ATOM     15  C   UNL     1      -1.305   1.499   0.022  0.00  0.00    +0.033 A 
ATOM     16  C   UNL     1      -1.528   2.769   0.536  0.00  0.00    +0.023 A 
ATOM     17  C   UNL     1      -2.806   3.294   0.544  0.00  0.00    +0.005 A 
ENDBRANCH   7  15
ENDBRANCH   6   8
ENDBRANCH   2   6
ENDBRANCH   1   4
BRANCH   1  18
ATOM     18  C   UNL     1       5.227   4.800   1.812  0.00  0.00    +0.083 C 
BRANCH  18  19
ATOM     19  C   UNL     1       6.223   5.904   1.569  0.00  0.00    +0.111 A 
ATOM     20  N   UNL     1       6.678   6.634   2.620  0.00  0.00    -0.310 N 
ATOM     21  H   UNL     1       6.355   6.434   3.513  0.00  0.00    +0.170 HD
ATOM     22  C   UNL     1       7.568   7.629   2.449  0.00  0.00    +0.260 A 
ATOM     23  O   UNL     1       7.967   8.275   3.403  0.00  0.00    -0.267 OA
ATOM     24  C   UNL     1       8.039   7.916   1.126  0.00  0.00    +0.075 A 
ATOM     25  C   UNL     1       8.995   8.940   0.705  0.00  0.00    -0.023 A 
ATOM     26  C   UNL     1       9.276   9.009  -0.613  0.00  0.00    -0.004 A 
ATOM     27  S   UNL     1       8.298   7.733  -1.359  0.00  0.00    -0.073 S 
ATOM     28  C   UNL     1       7.513   7.109   0.105  0.00  0.00    +0.116 A 
ATOM     29  N   UNL     1       6.638   6.139   0.353  0.00  0.00    -0.227 NA
ATOM     30  C   UNL     1      10.213   9.961  -1.293  0.00  0.00    +0.043 C 
ATOM     31  C   UNL     1      10.536  11.102  -0.317  0.00  0.00    +0.005 C 
ATOM     32  C   UNL     1      10.901  10.497   1.042  0.00  0.00    +0.005 C 
ATOM     33  C   UNL     1       9.656   9.896   1.694  0.00  0.00    +0.037 C 
ENDBRANCH  18  19
ENDBRANCH   1  18
TORSDOF 6
