REMARK  Name = ZINC15040126
REMARK  8 active torsions:
REMARK  status: ('A' for Active; 'I' for Inactive)
REMARK    1  A    between atoms: C_3  and  C_6
REMARK    2  A    between atoms: N_10  and  C_14
REMARK    3  A    between atoms: C_14  and  C_15
REMARK    4  A    between atoms: C_15  and  C_16
REMARK    5  A    between atoms: C_16  and  C_17
REMARK    6  A    between atoms: N_19  and  C_20
REMARK    7  A    between atoms: C_23  and  S_26
REMARK    8  A    between atoms: S_26  and  N_29
REMARK                            x       y       z     vdW  Elec       q    Type
REMARK                         _______ _______ _______ _____ _____    ______ ____
ROOT
ATOM      1  C   UNL     1       9.221   2.617   1.369  0.00  0.00    +0.097 C 
ENDROOT
BRANCH   1   2
ATOM      2  C   UNL     1       9.733   2.551   2.785  0.00  0.00    +0.217 C 
ATOM      3  O   UNL     1       8.962   2.659   3.715  0.00  0.00    -0.275 OA
ATOM      4  N   UNL     1      11.049   2.373   3.018  0.00  0.00    -0.285 N 
ATOM      5  H   UNL     1      11.656   2.220   2.277  0.00  0.00    +0.155 HD
BRANCH   4   6
ATOM      6  C   UNL     1      11.539   2.408   4.328  0.00  0.00    +0.033 A 
ATOM      7  C   UNL     1      12.797   2.937   4.587  0.00  0.00    +0.025 A 
ATOM      8  C   UNL     1      13.274   2.976   5.882  0.00  0.00    +0.030 A 
ATOM      9  C   UNL     1      12.507   2.479   6.919  0.00  0.00    +0.105 A 
ATOM     10  C   UNL     1      11.257   1.946   6.664  0.00  0.00    +0.030 A 
ATOM     11  C   UNL     1      10.770   1.910   5.372  0.00  0.00    +0.025 A 
BRANCH   9  12
ATOM     12  S   UNL     1      13.123   2.524   8.569  0.00  0.00    +0.056 S 
ATOM     13  O   UNL     1      14.088   3.567   8.614  0.00  0.00    -0.153 OA
ATOM     14  O   UNL     1      11.991   2.497   9.427  0.00  0.00    -0.153 OA
BRANCH  12  15
ATOM     15  N   UNL     1      13.944   1.109   8.824  0.00  0.00    -0.204 NA
ATOM     16  H   UNL     1      14.006   0.449   8.115  0.00  0.00    +0.144 HD
ATOM     17  H   UNL     1      14.364   0.939   9.682  0.00  0.00    +0.144 HD
ENDBRANCH  12  15
ENDBRANCH   9  12
ENDBRANCH   4   6
ENDBRANCH   1   2
BRANCH   1  18
ATOM     18  C   UNL     1       7.705   2.824   1.385  0.00  0.00    +0.029 C 
BRANCH  18  19
ATOM     19  C   UNL     1       7.184   2.891  -0.052  0.00  0.00    +0.115 C 
BRANCH  19  24
ATOM     20  C   UNL     1       2.498   1.368  -0.001  0.00  0.00    +0.035 C 
ATOM     21  C   UNL     1       3.523   2.267  -0.013  0.00  0.00    +0.078 C 
ATOM     22  C   UNL     1       4.933   2.037  -0.021  0.00  0.00    +0.258 C 
ATOM     23  O   UNL     1       5.384   0.905  -0.018  0.00  0.00    -0.269 OA
ATOM     24  N   UNL     1       5.733   3.089  -0.037  0.00  0.00    -0.255 N 
ATOM     25  C   UNL     1       5.232   4.344  -0.033  0.00  0.00    +0.121 C 
ATOM     26  S   UNL     1       6.074   5.835  -0.043  0.00  0.00    -0.027 S 
ATOM     27  S   UNL     1       3.470   4.053  -0.014  0.00  0.00    -0.061 S 
BRANCH  20  30
ATOM     28  C   UNL     1      -1.196   1.788   0.031  0.00  0.00    +0.008 A 
ATOM     29  C   UNL     1      -0.018   1.083   0.026  0.00  0.00    +0.015 A 
ATOM     30  C   UNL     1       1.159   1.823   0.013  0.00  0.00    +0.013 A 
ATOM     31  S   UNL     1       0.540   3.496   0.016  0.00  0.00    -0.097 S 
ATOM     32  C   UNL     1      -1.158   3.146   0.034  0.00  0.00    +0.046 A 
ENDBRANCH  20  30
ENDBRANCH  19  24
ENDBRANCH  18  19
ENDBRANCH   1  18
TORSDOF 8
