REMARK  Name = ZINC20637699
REMARK  5 active torsions:
REMARK  status: ('A' for Active; 'I' for Inactive)
REMARK    1  A    between atoms: C_1  and  C_2
REMARK    2  A    between atoms: C_2  and  O_3
REMARK    3  A    between atoms: O_3  and  C_4
REMARK    4  A    between atoms: C_4  and  C_6
REMARK    5  A    between atoms: C_8  and  C_22
REMARK                            x       y       z     vdW  Elec       q    Type
REMARK                         _______ _______ _______ _____ _____    ______ ____
ROOT
ATOM      1  C   UNL     1       1.279  -0.774   0.194  0.00  0.00    +0.211 C 
ATOM      2  C   UNL     1       2.449  -0.084  -0.510  0.00  0.00    +0.145 C 
ATOM      3  N   UNL     1       2.386   1.354  -0.230  0.00  0.00    -0.303 N 
ATOM      4  C   UNL     1       3.387   2.276  -0.150  0.00  0.00    +0.071 A 
ATOM      5  C   UNL     1       4.768   2.188  -0.282  0.00  0.00    +0.028 A 
ATOM      6  C   UNL     1       5.492   3.360  -0.137  0.00  0.00    +0.002 A 
ATOM      7  C   UNL     1       4.880   4.572   0.129  0.00  0.00    +0.002 A 
ATOM      8  C   UNL     1       3.509   4.687   0.266  0.00  0.00    +0.030 A 
ATOM      9  C   UNL     1       2.756   3.515   0.124  0.00  0.00    +0.091 A 
ATOM     10  N   UNL     1       1.431   3.284   0.197  0.00  0.00    -0.214 NA
ATOM     11  C   UNL     1       1.200   2.014   0.001  0.00  0.00    +0.204 A 
ATOM     12  N   UNL     1      -0.016   1.345   0.009  0.00  0.00    -0.255 N 
ATOM     13  C   UNL     1       0.002  -0.004   0.002  0.00  0.00    +0.236 C 
ATOM     14  O   UNL     1      -1.036  -0.610  -0.164  0.00  0.00    -0.274 OA
ATOM     15  H   UNL     1      -0.957   1.915   0.021  0.00  0.00    +0.158 HD
ENDROOT
BRANCH   2  16
ATOM     16  C   UNL     1       2.353  -0.316  -1.996  0.00  0.00    +0.002 A 
ATOM     17  C   UNL     1       1.337   0.044  -2.797  0.00  0.00    +0.089 A 
ATOM     18  N   UNL     1       1.604  -0.330  -4.086  0.00  0.00    -0.360 N 
ATOM     19  H   UNL     1       0.880  -0.108  -4.884  0.00  0.00    +0.165 HD
ATOM     20  C   UNL     1       2.824  -0.965  -4.146  0.00  0.00    +0.047 A 
ATOM     21  C   UNL     1       3.347  -0.985  -2.840  0.00  0.00    +0.005 A 
ATOM     22  C   UNL     1       4.589  -1.573  -2.595  0.00  0.00    +0.010 A 
ATOM     23  C   UNL     1       5.291  -2.128  -3.627  0.00  0.00    +0.001 A 
ATOM     24  C   UNL     1       4.780  -2.112  -4.918  0.00  0.00    +0.002 A 
ATOM     25  C   UNL     1       3.556  -1.536  -5.181  0.00  0.00    +0.026 A 
ENDBRANCH   2  16
BRANCH   1  26
ATOM     26  C   UNL     1       1.578  -0.875   1.668  0.00  0.00    +0.322 C 
ATOM     27  O   UNL     1       2.605  -0.415   2.108  0.00  0.00    -0.250 OA
BRANCH  26  28
ATOM     28  O   UNL     1       0.705  -1.476   2.491  0.00  0.00    -0.464 OA
BRANCH  28  30
ATOM     29  C   UNL     1      -0.050  -2.252   4.672  0.00  0.00    +0.048 C 
ATOM     30  C   UNL     1       1.059  -1.537   3.898  0.00  0.00    +0.229 C 
ENDBRANCH  28  30
ENDBRANCH  26  28
ENDBRANCH   1  26
TORSDOF 4
