REMARK  Name = ZINC38074145
REMARK  5 active torsions:
REMARK  status: ('A' for Active; 'I' for Inactive)
REMARK    1  A    between atoms: C_1  and  O_2
REMARK    2  A    between atoms: O_2  and  C_3
REMARK    3  A    between atoms: C_6  and  C_10
REMARK    4  A    between atoms: C_10  and  C_12
REMARK    5  A    between atoms: C_10  and  N_22
REMARK                            x       y       z     vdW  Elec       q    Type
REMARK                         _______ _______ _______ _____ _____    ______ ____
ROOT
ATOM      1  C   UNL     1      -4.982  -2.629   0.036  0.00  0.00    -0.013 C 
ENDROOT
BRANCH   1   2
ATOM      2  C   UNL     1      -5.301  -3.083   1.437  0.00  0.00    -0.057 A 
ATOM      3  C   UNL     1      -4.724  -4.235   1.939  0.00  0.00    +0.006 A 
ATOM      4  C   UNL     1      -5.018  -4.651   3.221  0.00  0.00    +0.046 A 
ATOM      5  C   UNL     1      -5.893  -3.913   4.013  0.00  0.00    +0.124 A 
ATOM      6  C   UNL     1      -6.466  -2.759   3.510  0.00  0.00    -0.005 A 
ATOM      7  C   UNL     1      -6.165  -2.345   2.223  0.00  0.00    +0.009 A 
ATOM      8  C   UNL     1      -7.411  -1.925   4.338  0.00  0.00    +0.042 C 
ATOM      9  C   UNL     1      -7.935  -2.753   5.513  0.00  0.00    +0.046 C 
ATOM     10  C   UNL     1      -6.740  -3.434   6.193  0.00  0.00    +0.229 C 
ATOM     11  O   UNL     1      -6.162  -4.357   5.269  0.00  0.00    -0.492 OA
ENDBRANCH   1   2
BRANCH   1  15
ATOM     12  C   UNL     1      -1.200  -0.637   0.010  0.00  0.00    +0.134 A 
ATOM     13  C   UNL     1      -2.375   0.101   0.019  0.00  0.00    +0.047 A 
ATOM     14  C   UNL     1      -3.596  -0.545   0.028  0.00  0.00    +0.006 A 
ATOM     15  C   UNL     1      -3.648  -1.927   0.027  0.00  0.00    -0.056 A 
ATOM     16  C   UNL     1      -2.480  -2.666   0.017  0.00  0.00    +0.021 A 
ATOM     17  C   UNL     1      -1.256  -2.024   0.003  0.00  0.00    +0.060 A 
ATOM     18 BR   UNL     1       0.342  -3.035  -0.018  0.00  0.00    -0.047 Br
BRANCH  12  20
ATOM     19  C   UNL     1      -0.017   1.425   0.010  0.00  0.00    +0.277 C 
ATOM     20  O   UNL     1       0.002  -0.004   0.002  0.00  0.00    -0.494 OA
ENDBRANCH  12  20
ENDBRANCH   1  15
BRANCH   1  21
ATOM     21  N   UNL     1      -4.928  -3.795  -0.856  0.00  0.00    +0.385 N 
ATOM     22  H   UNL     1      -4.212  -4.429  -0.537  0.00  0.00    -0.089 HD
ATOM     23  H   UNL     1      -5.821  -4.264  -0.850  0.00  0.00    -0.089 HD
ATOM     24  H   UNL     1      -4.715  -3.491  -1.794  0.00  0.00    -0.089 HD
ENDBRANCH   1  21
TORSDOF 4
