REMARK  Name = ZINC36609543
REMARK  12 active torsions:
REMARK  status: ('A' for Active; 'I' for Inactive)
REMARK    1  A    between atoms: C_1  and  C_2
REMARK    2  A    between atoms: C_2  and  C_3
REMARK    3  A    between atoms: C_2  and  C_4
REMARK    4  A    between atoms: C_2  and  N_5
REMARK    5  A    between atoms: C_6  and  C_8
REMARK    6  A    between atoms: C_8  and  C_10
REMARK    7  A    between atoms: C_8  and  N_23
REMARK    8  A    between atoms: C_10  and  C_11
REMARK    9  A    between atoms: C_10  and  C_17
REMARK   10  A    between atoms: N_23  and  C_24
REMARK   11  A    between atoms: C_30  and  C_32
REMARK   12  A    between atoms: C_33  and  C_34
REMARK                            x       y       z     vdW  Elec       q    Type
REMARK                         _______ _______ _______ _____ _____    ______ ____
ROOT
ATOM      1  C   UNL     1       2.406  -0.524  -2.935  0.00  0.00    +0.180 C 
ENDROOT
BRANCH   1   3
ATOM      2  N   UNL     1       0.240  -0.004  -1.860  0.00  0.00    -0.309 N 
ATOM      3  C   UNL     1       1.586   0.034  -1.801  0.00  0.00    +0.235 C 
ATOM      4  O   UNL     1       2.137   0.517  -0.834  0.00  0.00    -0.274 OA
ATOM      5  H   UNL     1      -0.201  -0.451  -2.599  0.00  0.00    +0.149 HD
BRANCH   2   7
ATOM      6  C   UNL     1      -0.181   2.108  -0.701  0.00  0.00    +0.031 C 
ATOM      7  C   UNL     1      -0.558   0.629  -0.807  0.00  0.00    +0.026 C 
ATOM      8  C   UNL     1      -0.282  -0.064   0.529  0.00  0.00    +0.031 C 
ATOM      9  C   UNL     1      -2.044   0.505  -1.148  0.00  0.00    +0.031 C 
ENDBRANCH   2   7
ENDBRANCH   1   3
BRANCH   1  10
ATOM     10  N   UNL     1       3.751   0.056  -2.897  0.00  0.00    -0.248 N 
ATOM     11  C   UNL     1       4.228   0.722  -3.967  0.00  0.00    +0.296 C 
ATOM     12  O   UNL     1       3.513   0.915  -4.933  0.00  0.00    -0.260 OA
BRANCH  10  13
ATOM     13  C   UNL     1       4.538  -0.081  -1.750  0.00  0.00    +0.038 A 
ATOM     14  C   UNL     1       4.788   1.021  -0.942  0.00  0.00    +0.023 A 
ATOM     15  C   UNL     1       5.567   0.883   0.191  0.00  0.00    +0.002 A 
ATOM     16  C   UNL     1       6.097  -0.351   0.520  0.00  0.00    +0.000 A 
ATOM     17  C   UNL     1       5.850  -1.450  -0.282  0.00  0.00    +0.002 A 
ATOM     18  C   UNL     1       5.068  -1.320  -1.413  0.00  0.00    +0.023 A 
ENDBRANCH  10  13
BRANCH  11  19
ATOM     19  C   UNL     1       5.577   1.201  -3.968  0.00  0.00    -0.002 C 
ATOM     20  C   UNL     1       6.684   1.595  -3.969  0.00  0.00    -0.057 C 
BRANCH  20  21
ATOM     21  C   UNL     1       8.033   2.074  -3.970  0.00  0.00    +0.025 A 
ATOM     22  C   UNL     1       8.860   1.849  -2.865  0.00  0.00    +0.017 A 
ATOM     23  C   UNL     1      10.158   2.314  -2.874  0.00  0.00    +0.001 A 
ATOM     24  C   UNL     1      10.643   3.002  -3.973  0.00  0.00    +0.000 A 
ATOM     25  C   UNL     1       9.831   3.229  -5.070  0.00  0.00    +0.001 A 
ATOM     26  C   UNL     1       8.532   2.765  -5.079  0.00  0.00    +0.017 A 
ENDBRANCH  20  21
ENDBRANCH  11  19
ENDBRANCH   1  10
BRANCH   1  27
ATOM     27  C   UNL     1       2.502  -2.044  -2.796  0.00  0.00    +0.079 C 
BRANCH  27  28
ATOM     28  C   UNL     1       1.118  -2.640  -2.820  0.00  0.00    -0.038 A 
ATOM     29  C   UNL     1       0.312  -2.472  -3.930  0.00  0.00    +0.004 A 
ATOM     30  C   UNL     1      -0.958  -3.018  -3.952  0.00  0.00    +0.000 A 
ATOM     31  C   UNL     1      -1.422  -3.732  -2.863  0.00  0.00    +0.000 A 
ATOM     32  C   UNL     1      -0.616  -3.901  -1.753  0.00  0.00    +0.000 A 
ATOM     33  C   UNL     1       0.656  -3.358  -1.733  0.00  0.00    +0.004 A 
ENDBRANCH  27  28
BRANCH  27  34
ATOM     34  C   UNL     1       3.309  -2.603  -3.939  0.00  0.00    -0.038 A 
ATOM     35  C   UNL     1       3.105  -2.134  -5.223  0.00  0.00    +0.004 A 
ATOM     36  C   UNL     1       3.845  -2.647  -6.272  0.00  0.00    +0.000 A 
ATOM     37  C   UNL     1       4.790  -3.629  -6.037  0.00  0.00    +0.000 A 
ATOM     38  C   UNL     1       4.994  -4.098  -4.753  0.00  0.00    +0.000 A 
ATOM     39  C   UNL     1       4.257  -3.582  -3.703  0.00  0.00    +0.004 A 
ENDBRANCH  27  34
ENDBRANCH   1  27
TORSDOF 9
