REMARK  Name = ZINC09159990
REMARK  7 active torsions:
REMARK  status: ('A' for Active; 'I' for Inactive)
REMARK    1  A    between atoms: C_1  and  C_2
REMARK    2  A    between atoms: C_3  and  N_15
REMARK    3  A    between atoms: N_6  and  C_9
REMARK    4  A    between atoms: N_7  and  C_8
REMARK    5  A    between atoms: C_16  and  C_18
REMARK    6  A    between atoms: C_18  and  C_19
REMARK    7  A    between atoms: C_20  and  C_22
REMARK                            x       y       z     vdW  Elec       q    Type
REMARK                         _______ _______ _______ _____ _____    ______ ____
ROOT
ATOM      1  N   UNL     1       0.163  -0.368  -2.503  0.00  0.00    -0.273 N 
ATOM      2  C   UNL     1      -0.334  -1.066  -3.544  0.00  0.00    +0.288 C 
ATOM      3  O   UNL     1      -0.836  -2.156  -3.359  0.00  0.00    -0.266 OA
ATOM      4  H   UNL     1       0.627   0.469  -2.658  0.00  0.00    +0.155 HD
ENDROOT
BRANCH   1   7
ATOM      5  C   UNL     1      -1.229   1.154  -0.232  0.00  0.00    +0.067 C 
ATOM      6  C   UNL     1      -0.599  -0.214  -0.166  0.00  0.00    +0.059 A 
ATOM      7  C   UNL     1       0.007  -0.853  -1.193  0.00  0.00    +0.122 A 
ATOM      8  C   UNL     1       0.471  -2.145  -0.685  0.00  0.00    +0.293 A 
ATOM      9  O   UNL     1       1.064  -3.002  -1.315  0.00  0.00    -0.264 OA
ATOM     10  N   UNL     1       0.117  -2.205   0.616  0.00  0.00    -0.216 N 
ATOM     11  N   UNL     1      -0.539  -1.013   0.943  0.00  0.00    -0.282 N 
ATOM     12  C   UNL     1      -1.079  -0.676   2.262  0.00  0.00    +0.171 C 
BRANCH  10  13
ATOM     13  C   UNL     1       0.366  -3.271   1.486  0.00  0.00    +0.067 A 
ATOM     14  C   UNL     1      -0.654  -3.769   2.287  0.00  0.00    +0.028 A 
ATOM     15  C   UNL     1      -0.404  -4.821   3.146  0.00  0.00    +0.002 A 
ATOM     16  C   UNL     1       0.860  -5.378   3.209  0.00  0.00    +0.000 A 
ATOM     17  C   UNL     1       1.878  -4.885   2.414  0.00  0.00    +0.002 A 
ATOM     18  C   UNL     1       1.633  -3.837   1.548  0.00  0.00    +0.028 A 
ENDBRANCH  10  13
ENDBRANCH   1   7
BRANCH   2  19
ATOM     19  C   UNL     1      -0.267  -0.500  -4.920  0.00  0.00    +0.244 C 
ATOM     20  O   UNL     1       0.237   0.593  -5.105  0.00  0.00    -0.282 OA
BRANCH  19  21
ATOM     21  C   UNL     1      -0.783  -1.226  -6.003  0.00  0.00    +0.107 C 
ATOM     22  C   UNL     1      -0.721  -0.702  -7.277  0.00  0.00    +0.190 C 
ATOM     23  O   UNL     1      -0.163   0.510  -7.482  0.00  0.00    -0.287 OA
BRANCH  22  24
ATOM     24  C   UNL     1      -1.264  -1.465  -8.415  0.00  0.00    +0.022 A 
ATOM     25  C   UNL     1      -1.848  -2.719  -8.205  0.00  0.00    +0.013 A 
ATOM     26  C   UNL     1      -2.354  -3.426  -9.274  0.00  0.00    +0.016 A 
ATOM     27  C   UNL     1      -2.285  -2.899 -10.553  0.00  0.00    +0.018 A 
ATOM     28  C   UNL     1      -1.708  -1.659 -10.768  0.00  0.00    +0.016 A 
ATOM     29  C   UNL     1      -1.202  -0.937  -9.708  0.00  0.00    +0.013 A 
ATOM     30 BR   UNL     1      -2.982  -3.879 -12.013  0.00  0.00    -0.050 Br
ENDBRANCH  22  24
ENDBRANCH  19  21
ENDBRANCH   2  19
TORSDOF 5
