REMARK  Name = ZINC04086879
REMARK  6 active torsions:
REMARK  status: ('A' for Active; 'I' for Inactive)
REMARK    1  A    between atoms: C_1  and  C_2
REMARK    2  A    between atoms: C_2  and  C_4
REMARK    3  A    between atoms: C_2  and  N_10
REMARK    4  A    between atoms: N_10  and  C_11
REMARK    5  A    between atoms: C_11  and  C_12
REMARK    6  A    between atoms: C_24  and  C_31
REMARK                            x       y       z     vdW  Elec       q    Type
REMARK                         _______ _______ _______ _____ _____    ______ ____
ROOT
ATOM      1  C   UNL     1       0.700  -0.626   3.637  0.00  0.00    +0.087 C 
ATOM      2  C   UNL     1      -0.098  -0.308   4.915  0.00  0.00    +0.042 C 
ATOM      3  C   UNL     1      -0.916  -1.473   5.407  0.00  0.00    +0.016 C 
ATOM      4  C   UNL     1      -0.043  -2.666   5.800  0.00  0.00    +0.021 C 
ATOM      5  C   UNL     1      -0.940  -3.735   6.395  0.00  0.00    -0.073 C 
ATOM      6  C   UNL     1      -1.070  -4.906   5.823  0.00  0.00    +0.008 C 
ATOM      7  C   UNL     1      -1.681  -3.402   7.672  0.00  0.00    +0.030 C 
ATOM      8  C   UNL     1      -0.679  -2.874   8.703  0.00  0.00    +0.005 C 
ATOM      9  C   UNL     1       0.113  -1.710   8.102  0.00  0.00    +0.007 C 
ATOM     10  C   UNL     1       0.932  -2.202   6.891  0.00  0.00    -0.022 C 
ATOM     11  C   UNL     1       1.832  -1.112   6.333  0.00  0.00    +0.052 C 
ATOM     12  C   UNL     1       1.030   0.095   5.887  0.00  0.00    +0.181 C 
ATOM     13  O   UNL     1       1.912   0.836   4.997  0.00  0.00    -0.461 OA
ATOM     14  C   UNL     1       1.999   0.140   3.838  0.00  0.00    +0.309 C 
ATOM     15  O   UNL     1       2.947   0.128   3.089  0.00  0.00    -0.251 OA
ATOM     16  C   UNL     1       1.804  -3.382   7.324  0.00  0.00    +0.012 C 
ENDROOT
BRANCH   1  17
ATOM     17  C   UNL     1      -0.040  -0.119   2.398  0.00  0.00    -0.067 C 
BRANCH  17  18
ATOM     18  N   UNL     1       0.713  -0.491   1.192  0.00  0.00    +0.384 N 
ATOM     19  H   UNL     1       0.798  -1.495   1.145  0.00  0.00    -0.085 HD
ATOM     20  H   UNL     1       1.632  -0.076   1.228  0.00  0.00    -0.085 HD
BRANCH  18  22
ATOM     21  C   UNL     1      -0.019   1.526   0.010  0.00  0.00    -0.009 C 
ATOM     22  C   UNL     1       0.002  -0.004   0.002  0.00  0.00    -0.044 C 
BRANCH  22  23
ATOM     23  C   UNL     1       0.707  -0.490  -1.238  0.00  0.00    -0.062 A 
ATOM     24  C   UNL     1       2.089  -0.511  -1.284  0.00  0.00    +0.002 A 
ATOM     25  C   UNL     1       2.736  -0.957  -2.421  0.00  0.00    +0.000 A 
ATOM     26  C   UNL     1       2.002  -1.382  -3.512  0.00  0.00    +0.000 A 
ATOM     27  C   UNL     1       0.620  -1.362  -3.466  0.00  0.00    +0.000 A 
ATOM     28  C   UNL     1      -0.027  -0.920  -2.327  0.00  0.00    +0.002 A 
ENDBRANCH  22  23
ENDBRANCH  18  22
ENDBRANCH  17  18
ENDBRANCH   1  17
TORSDOF 4
