REMARK  Name = ZINC04740384
REMARK  7 active torsions:
REMARK  status: ('A' for Active; 'I' for Inactive)
REMARK    1  A    between atoms: C_1  and  C_2
REMARK    2  A    between atoms: C_2  and  O_3
REMARK    3  A    between atoms: O_3  and  C_4
REMARK    4  A    between atoms: N_11  and  C_12
REMARK    5  A    between atoms: C_24  and  C_29
REMARK    6  A    between atoms: C_24  and  C_30
REMARK    7  A    between atoms: C_26  and  C_28
REMARK                            x       y       z     vdW  Elec       q    Type
REMARK                         _______ _______ _______ _____ _____    ______ ____
ROOT
ATOM      1  C   UNL     1      -0.503  -2.059   1.937  0.00  0.00    +0.121 A 
ATOM      2  C   UNL     1       0.121  -2.564   3.076  0.00  0.00    +0.051 A 
ATOM      3  C   UNL     1       0.585  -3.858   3.112  0.00  0.00    -0.019 A 
ATOM      4  C   UNL     1       0.400  -4.623   1.964  0.00  0.00    +0.050 A 
ATOM      5  C   UNL     1      -0.226  -4.132   0.812  0.00  0.00    +0.031 A 
ATOM      6  C   UNL     1      -0.699  -2.822   0.786  0.00  0.00    +0.057 A 
ATOM      7  C   UNL     1      -0.216  -5.245  -0.140  0.00  0.00    +0.136 C 
ATOM      8  N   UNL     1      -0.698  -5.254  -1.360  0.00  0.00    -0.242 NA
ATOM      9  C   UNL     1       0.459  -6.369   0.576  0.00  0.00    +0.270 C 
ATOM     10  O   UNL     1       0.665  -7.479   0.125  0.00  0.00    -0.268 OA
ATOM     11  N   UNL     1       0.799  -5.944   1.800  0.00  0.00    -0.260 N 
ATOM     12  C   UNL     1       1.487  -6.649   2.894  0.00  0.00    +0.038 C 
ATOM     13  C   UNL     1       2.218  -5.610   3.754  0.00  0.00    +0.033 C 
ATOM     14  C   UNL     1       1.269  -4.524   4.270  0.00  0.00    +0.020 C 
ATOM     15  C   UNL     1       2.068  -3.482   5.057  0.00  0.00    +0.012 C 
ATOM     16  C   UNL     1       0.463  -7.398   3.749  0.00  0.00    +0.032 C 
ATOM     17  C   UNL     1       2.498  -7.640   2.312  0.00  0.00    +0.032 C 
ENDROOT
BRANCH   8  18
ATOM     18  C   UNL     1      -1.161  -4.109  -1.912  0.00  0.00    +0.068 A 
ATOM     19  C   UNL     1      -0.282  -3.050  -2.178  0.00  0.00    +0.031 A 
ATOM     20  C   UNL     1      -0.757  -1.887  -2.740  0.00  0.00    +0.051 A 
ATOM     21  C   UNL     1      -2.107  -1.757  -3.046  0.00  0.00    +0.166 A 
ATOM     22  C   UNL     1      -2.990  -2.808  -2.783  0.00  0.00    +0.168 A 
ATOM     23  C   UNL     1      -2.522  -3.980  -2.225  0.00  0.00    +0.077 A 
ATOM     24  O   UNL     1      -4.243  -2.430  -3.171  0.00  0.00    -0.453 OA
ATOM     25  C   UNL     1      -4.191  -0.996  -3.292  0.00  0.00    +0.466 C 
ATOM     26  O   UNL     1      -2.810  -0.727  -3.597  0.00  0.00    -0.453 OA
ENDBRANCH   8  18
BRANCH   1  27
ATOM     27  O   UNL     1      -0.944  -0.773   1.951  0.00  0.00    -0.492 OA
BRANCH  27  29
ATOM     28  C   UNL     1      -2.008   1.162   0.969  0.00  0.00    +0.048 C 
ATOM     29  C   UNL     1      -1.584  -0.294   0.766  0.00  0.00    +0.225 C 
ENDBRANCH  27  29
ENDBRANCH   1  27
TORSDOF 3
