REMARK  Name = ZINC10039504
REMARK  11 active torsions:
REMARK  status: ('A' for Active; 'I' for Inactive)
REMARK    1  A    between atoms: C_1  and  C_2
REMARK    2  A    between atoms: C_2  and  O_3
REMARK    3  A    between atoms: O_3  and  C_4
REMARK    4  A    between atoms: C_7  and  C_14
REMARK    5  A    between atoms: N_15  and  N_16
REMARK    6  A    between atoms: C_17  and  C_19
REMARK    7  A    between atoms: C_19  and  C_21
REMARK    8  A    between atoms: C_19  and  N_24
REMARK    9  A    between atoms: C_21  and  C_22
REMARK   10  A    between atoms: C_21  and  C_23
REMARK   11  A    between atoms: C_25  and  C_27
REMARK                            x       y       z     vdW  Elec       q    Type
REMARK                         _______ _______ _______ _____ _____    ______ ____
ROOT
ATOM      1  N   UNL     1       0.627   4.111  -0.881  0.00  0.00    -0.205 N 
ATOM      2  C   UNL     1      -0.381   3.454  -0.273  0.00  0.00    +0.253 C 
ATOM      3  O   UNL     1      -1.514   3.879  -0.347  0.00  0.00    -0.272 OA
ATOM      4  H   UNL     1       1.541   3.803  -0.775  0.00  0.00    +0.177 HD
ENDROOT
BRANCH   1   6
ATOM      5  C   UNL     1       1.308   5.804  -2.344  0.00  0.00    +0.139 C 
ATOM      6  N   UNL     1       0.355   5.240  -1.665  0.00  0.00    -0.188 NA
BRANCH   5  10
ATOM      7  C   UNL     1       5.112   3.857  -2.685  0.00  0.00    +0.128 A 
ATOM      8  C   UNL     1       3.960   3.141  -2.449  0.00  0.00    +0.047 A 
ATOM      9  C   UNL     1       2.727   3.764  -2.338  0.00  0.00    +0.013 A 
ATOM     10  C   UNL     1       2.617   5.145  -2.462  0.00  0.00    +0.002 A 
ATOM     11  C   UNL     1       3.824   5.928  -2.719  0.00  0.00    -0.006 A 
ATOM     12  C   UNL     1       5.067   5.259  -2.820  0.00  0.00    +0.024 A 
ATOM     13  C   UNL     1       6.232   6.007  -3.060  0.00  0.00    +0.012 A 
ATOM     14  C   UNL     1       6.149   7.360  -3.185  0.00  0.00    +0.001 A 
ATOM     15  C   UNL     1       4.926   8.017  -3.080  0.00  0.00    +0.001 A 
ATOM     16  C   UNL     1       3.776   7.322  -2.848  0.00  0.00    +0.009 A 
BRANCH   7  17
ATOM     17  O   UNL     1       6.300   3.207  -2.786  0.00  0.00    -0.492 OA
BRANCH  17  19
ATOM     18  C   UNL     1       7.698   1.236  -2.782  0.00  0.00    +0.048 C 
ATOM     19  C   UNL     1       6.277   1.786  -2.638  0.00  0.00    +0.226 C 
ENDBRANCH  17  19
ENDBRANCH   7  17
ENDBRANCH   5  10
ENDBRANCH   1   6
BRANCH   2  20
ATOM     20  C   UNL     1      -0.099   2.190   0.497  0.00  0.00    +0.163 C 
BRANCH  20  21
ATOM     21  N   UNL     1      -1.325   1.394   0.596  0.00  0.00    -0.300 N 
ATOM     22  C   UNL     1      -1.251   0.060   0.769  0.00  0.00    +0.245 C 
ATOM     23  O   UNL     1      -0.166  -0.484   0.844  0.00  0.00    -0.270 OA
ATOM     24  H   UNL     1      -2.191   1.828   0.536  0.00  0.00    +0.150 HD
BRANCH  22  25
ATOM     25  C   UNL     1      -2.488  -0.743   0.868  0.00  0.00    +0.037 A 
ATOM     26  C   UNL     1      -3.735  -0.121   0.788  0.00  0.00    +0.014 A 
ATOM     27  C   UNL     1      -4.886  -0.876   0.875  0.00  0.00    +0.021 A 
ATOM     28  C   UNL     1      -4.806  -2.247   1.054  0.00  0.00    +0.041 A 
ATOM     29  C   UNL     1      -3.571  -2.869   1.140  0.00  0.00    +0.021 A 
ATOM     30  C   UNL     1      -2.413  -2.125   1.048  0.00  0.00    +0.014 A 
ATOM     31 CL   UNL     1      -6.259  -3.190   1.169  0.00  0.00    -0.084 Cl
ENDBRANCH  22  25
ENDBRANCH  20  21
BRANCH  20  32
ATOM     32  C   UNL     1       0.391   2.547   1.902  0.00  0.00    +0.012 C 
ATOM     33  C   UNL     1       0.742   1.266   2.661  0.00  0.00    +0.009 C 
ATOM     34  C   UNL     1       1.632   3.436   1.798  0.00  0.00    +0.009 C 
ENDBRANCH  20  32
ENDBRANCH   2  20
TORSDOF 8
