REMARK  Name = ZINC13563033
REMARK  5 active torsions:
REMARK  status: ('A' for Active; 'I' for Inactive)
REMARK    1  A    between atoms: C_1  and  O_2
REMARK    2  A    between atoms: O_2  and  C_3
REMARK    3  A    between atoms: C_6  and  C_9
REMARK    4  A    between atoms: N_10  and  N_11
REMARK    5  A    between atoms: N_21  and  C_22
REMARK                            x       y       z     vdW  Elec       q    Type
REMARK                         _______ _______ _______ _____ _____    ______ ____
ROOT
ATOM      1  N   UNL     1      -4.889   0.946  -0.423  0.00  0.00    -0.218 N 
ATOM      2  C   UNL     1      -6.058   1.613  -0.120  0.00  0.00    +0.181 A 
ATOM      3  C   UNL     1      -7.290   0.851   0.116  0.00  0.00    +0.167 A 
ATOM      4  N   UNL     1      -8.416   1.467   0.407  0.00  0.00    -0.203 NA
ATOM      5  C   UNL     1      -8.437   2.804   0.487  0.00  0.00    +0.244 A 
ATOM      6  C   UNL     1      -7.193   3.575   0.248  0.00  0.00    +0.244 A 
ATOM      7  N   UNL     1      -6.056   2.929  -0.041  0.00  0.00    -0.202 NA
ATOM      8  N   UNL     1      -7.586   4.816   0.408  0.00  0.00    -0.027 NA
ATOM      9  O   UNL     1      -8.769   4.826   0.677  0.00  0.00    -0.238 OA
ATOM     10  N   UNL     1      -9.315   3.744   0.740  0.00  0.00    -0.027 NA
ATOM     11  N   UNL     1      -7.267  -0.527   0.033  0.00  0.00    -0.297 N 
ATOM     12  H   UNL     1      -4.883  -0.152  -0.486  0.00  0.00    +0.176 HD
ATOM     13  H   UNL     1      -6.312  -1.054  -0.117  0.00  0.00    +0.154 HD
ENDROOT
BRANCH  11  14
ATOM     14  C   UNL     1      -8.456  -1.254   0.140  0.00  0.00    +0.033 A 
ATOM     15  C   UNL     1      -8.474  -2.462   0.825  0.00  0.00    +0.024 A 
ATOM     16  C   UNL     1      -9.652  -3.175   0.934  0.00  0.00    +0.016 A 
ATOM     17  C   UNL     1     -10.810  -2.692   0.353  0.00  0.00    +0.013 A 
ATOM     18  C   UNL     1     -10.794  -1.492  -0.335  0.00  0.00    +0.016 A 
ATOM     19  C   UNL     1      -9.621  -0.772  -0.443  0.00  0.00    +0.024 A 
ATOM     20  I   UNL     1     -12.593  -3.781   0.514  0.00  0.00    -0.044 I 
ENDBRANCH  11  14
BRANCH   1  22
ATOM     21  C   UNL     1      -2.609   1.039  -0.934  0.00  0.00    +0.138 C 
ATOM     22  N   UNL     1      -3.710   1.667  -0.649  0.00  0.00    -0.189 NA
BRANCH  21  26
ATOM     23  C   UNL     1       0.964   3.224  -1.628  0.00  0.00    +0.120 A 
ATOM     24  C   UNL     1       0.974   1.837  -1.708  0.00  0.00    +0.046 A 
ATOM     25  C   UNL     1      -0.183   1.124  -1.480  0.00  0.00    +0.013 A 
ATOM     26  C   UNL     1      -1.368   1.798  -1.173  0.00  0.00    -0.005 A 
ATOM     27  C   UNL     1      -1.372   3.193  -1.089  0.00  0.00    +0.013 A 
ATOM     28  C   UNL     1      -0.211   3.898  -1.319  0.00  0.00    +0.046 A 
BRANCH  23  30
ATOM     29  C   UNL     1       2.026   5.347  -1.756  0.00  0.00    +0.277 C 
ATOM     30  O   UNL     1       2.106   3.923  -1.853  0.00  0.00    -0.495 OA
ENDBRANCH  23  30
ENDBRANCH  21  26
ENDBRANCH   1  22
TORSDOF 4
