REMARK  Name = ZINC02276041
REMARK  11 active torsions:
REMARK  status: ('A' for Active; 'I' for Inactive)
REMARK    1  A    between atoms: C_1  and  C_2
REMARK    2  A    between atoms: C_2  and  C_35
REMARK    3  A    between atoms: C_6  and  C_22
REMARK    4  A    between atoms: C_8  and  C_12
REMARK    5  A    between atoms: C_9  and  N_11
REMARK    6  A    between atoms: C_12  and  O_14
REMARK    7  A    between atoms: O_14  and  C_15
REMARK    8  A    between atoms: C_15  and  C_16
REMARK    9  A    between atoms: C_25  and  C_28
REMARK   10  A    between atoms: C_28  and  O_30
REMARK   11  A    between atoms: O_30  and  C_31
REMARK                            x       y       z     vdW  Elec       q    Type
REMARK                         _______ _______ _______ _____ _____    ______ ____
ROOT
ATOM      1  C   UNL     1      -4.220   8.412  -6.166  0.00  0.00    +0.012 C 
ATOM      2  C   UNL     1      -4.862   7.396  -7.112  0.00  0.00    -0.021 C 
ATOM      3  C   UNL     1      -6.029   6.702  -6.407  0.00  0.00    +0.081 C 
ATOM      4  C   UNL     1      -5.522   5.966  -5.189  0.00  0.00    +0.115 C 
ATOM      5  C   UNL     1      -4.280   5.451  -5.165  0.00  0.00    +0.045 C 
ATOM      6  C   UNL     1      -3.777   4.711  -3.950  0.00  0.00    +0.097 C 
ATOM      7  C   UNL     1      -4.620   5.052  -2.753  0.00  0.00    +0.105 C 
ATOM      8  C   UNL     1      -5.856   5.593  -2.916  0.00  0.00    +0.195 C 
ATOM      9  O   UNL     1      -6.353   5.841  -4.136  0.00  0.00    -0.446 OA
ATOM     10  C   UNL     1      -3.411   5.585  -6.266  0.00  0.00    +0.164 C 
ATOM     11  O   UNL     1      -2.303   5.089  -6.215  0.00  0.00    -0.292 OA
ATOM     12  C   UNL     1      -3.830   6.332  -7.503  0.00  0.00    +0.086 C 
ATOM     13  C   UNL     1      -5.370   8.106  -8.369  0.00  0.00    +0.012 C 
ENDROOT
BRANCH   6  14
ATOM     14  C   UNL     1      -3.845   3.227  -4.203  0.00  0.00    -0.035 A 
ATOM     15  C   UNL     1      -5.066   2.629  -4.463  0.00  0.00    +0.005 A 
ATOM     16  C   UNL     1      -5.135   1.272  -4.702  0.00  0.00    +0.015 A 
ATOM     17  C   UNL     1      -3.972   0.500  -4.670  0.00  0.00    +0.059 A 
ATOM     18  C   UNL     1      -2.744   1.110  -4.401  0.00  0.00    +0.015 A 
ATOM     19  C   UNL     1      -2.689   2.469  -4.170  0.00  0.00    +0.005 A 
BRANCH  17  20
ATOM     20  C   UNL     1      -4.039  -0.954  -4.917  0.00  0.00    +0.339 C 
ATOM     21  O   UNL     1      -3.026  -1.623  -4.888  0.00  0.00    -0.245 OA
BRANCH  20  22
ATOM     22  O   UNL     1      -5.225  -1.539  -5.176  0.00  0.00    -0.464 OA
ATOM     23  C   UNL     1      -5.216  -2.972  -5.410  0.00  0.00    +0.280 C 
ENDBRANCH  20  22
ENDBRANCH  17  20
ENDBRANCH   6  14
BRANCH   8  24
ATOM     24  N   UNL     1      -6.606   5.896  -1.812  0.00  0.00    -0.329 N 
ATOM     25  H   UNL     1      -6.173   6.200  -0.999  0.00  0.00    +0.145 HD
ATOM     26  H   UNL     1      -7.572   5.805  -1.842  0.00  0.00    +0.145 HD
ENDBRANCH   8  24
BRANCH   7  27
ATOM     27  C   UNL     1      -4.131   4.805  -1.461  0.00  0.00    +0.341 C 
ATOM     28  O   UNL     1      -4.854   4.969  -0.494  0.00  0.00    -0.245 OA
BRANCH  27  29
ATOM     29  O   UNL     1      -2.859   4.385  -1.289  0.00  0.00    -0.456 OA
BRANCH  29  30
ATOM     30  C   UNL     1      -2.428   4.153   0.054  0.00  0.00    +0.268 C 
BRANCH  30  31
ATOM     31  C   UNL     1      -0.993   3.693   0.048  0.00  0.00    -0.010 A 
ATOM     32  C   UNL     1      -0.700   2.345  -0.038  0.00  0.00    +0.007 A 
ATOM     33  C   UNL     1       0.617   1.923  -0.038  0.00  0.00    +0.000 A 
ATOM     34  C   UNL     1       1.640   2.850   0.038  0.00  0.00    +0.000 A 
ATOM     35  C   UNL     1       1.346   4.198   0.120  0.00  0.00    +0.000 A 
ATOM     36  C   UNL     1       0.030   4.620   0.126  0.00  0.00    +0.007 A 
ENDBRANCH  30  31
ENDBRANCH  29  30
ENDBRANCH  27  29
ENDBRANCH   7  27
TORSDOF 8
