REMARK  Name = ZINC01335159
REMARK  6 active torsions:
REMARK  status: ('A' for Active; 'I' for Inactive)
REMARK    1  A    between atoms: C_3  and  S_8
REMARK    2  A    between atoms: S_8  and  N_11
REMARK    3  A    between atoms: N_11  and  C_12
REMARK    4  A    between atoms: N_11  and  C_29
REMARK    5  A    between atoms: C_12  and  C_13
REMARK    6  A    between atoms: C_29  and  C_30
REMARK                            x       y       z     vdW  Elec       q    Type
REMARK                         _______ _______ _______ _____ _____    ______ ____
ROOT
ATOM      1  N   UNL     1       0.006   6.302  -1.631  0.00  0.00    -0.170 NA
ENDROOT
BRANCH   1   2
ATOM      2  S   UNL     1       0.297   6.165  -0.006  0.00  0.00    +0.061 S 
ATOM      3  O   UNL     1      -0.826   6.730   0.656  0.00  0.00    -0.153 OA
ATOM      4  O   UNL     1       1.622   6.630   0.209  0.00  0.00    -0.153 OA
BRANCH   2   7
ATOM      5  C   UNL     1      -0.858   2.492   1.141  0.00  0.00    +0.040 A 
ATOM      6  C   UNL     1      -0.856   3.842   0.843  0.00  0.00    +0.031 A 
ATOM      7  C   UNL     1       0.298   4.446   0.380  0.00  0.00    +0.106 A 
ATOM      8  C   UNL     1       1.452   3.703   0.220  0.00  0.00    +0.031 A 
ATOM      9  C   UNL     1       1.454   2.354   0.523  0.00  0.00    +0.040 A 
ATOM     10  C   UNL     1       0.299   1.748   0.986  0.00  0.00    +0.124 A 
ATOM     11  F   UNL     1       0.299   0.430   1.282  0.00  0.00    -0.205 F 
ENDBRANCH   2   7
ENDBRANCH   1   2
BRANCH   1  12
ATOM     12  C   UNL     1       1.111   6.183  -2.586  0.00  0.00    +0.150 C 
BRANCH  12  13
ATOM     13  C   UNL     1       1.563   7.558  -3.004  0.00  0.00    +0.033 A 
ATOM     14  C   UNL     1       2.579   8.167  -2.341  0.00  0.00    +0.020 A 
ATOM     15  C   UNL     1       2.994   9.502  -2.772  0.00  0.00    +0.003 A 
ATOM     16  C   UNL     1       4.035  10.178  -2.124  0.00  0.00    +0.059 A 
ATOM     17  C   UNL     1       4.404  11.437  -2.551  0.00  0.00    +0.163 A 
ATOM     18  C   UNL     1       3.745  12.036  -3.629  0.00  0.00    +0.164 A 
ATOM     19  C   UNL     1       2.715  11.374  -4.274  0.00  0.00    +0.075 A 
ATOM     20  C   UNL     1       2.330  10.107  -3.856  0.00  0.00    +0.053 A 
ATOM     21  N   UNL     1       1.305   9.433  -4.488  0.00  0.00    -0.322 N 
ATOM     22  H   UNL     1       0.831   9.864  -5.256  0.00  0.00    +0.169 HD
ATOM     23  C   UNL     1       0.934   8.204  -4.087  0.00  0.00    +0.254 A 
ATOM     24  O   UNL     1       0.027   7.637  -4.672  0.00  0.00    -0.268 OA
ATOM     25  O   UNL     1       4.107  13.274  -4.061  0.00  0.00    -0.485 OA
ATOM     26  C   UNL     1       4.887  14.067  -3.160  0.00  0.00    +0.270 C 
ATOM     27  C   UNL     1       6.012  13.189  -2.596  0.00  0.00    +0.270 C 
ATOM     28  O   UNL     1       5.415  12.084  -1.908  0.00  0.00    -0.485 OA
ENDBRANCH  12  13
ENDBRANCH   1  12
BRANCH   1  29
ATOM     29  C   UNL     1      -1.356   6.541  -2.114  0.00  0.00    +0.143 C 
BRANCH  29  30
ATOM     30  C   UNL     1      -1.586   8.046  -2.265  0.00  0.00    +0.160 C 
ATOM     31  C   UNL     1      -2.982   8.295  -2.844  0.00  0.00    +0.192 C 
ATOM     32  O   UNL     1      -3.232   9.703  -2.877  0.00  0.00    -0.375 OA
ATOM     33  C   UNL     1      -3.136  10.333  -1.596  0.00  0.00    +0.188 C 
ATOM     34  C   UNL     1      -1.740  10.084  -1.017  0.00  0.00    +0.188 C 
ATOM     35  O   UNL     1      -1.490   8.675  -0.983  0.00  0.00    -0.371 OA
ENDBRANCH  29  30
ENDBRANCH   1  29
TORSDOF 6
