REMARK  Name = ZINC12501630
REMARK  6 active torsions:
REMARK  status: ('A' for Active; 'I' for Inactive)
REMARK    1  A    between atoms: C_1  and  C_2
REMARK    2  A    between atoms: C_5  and  C_8
REMARK    3  A    between atoms: N_10  and  N_11
REMARK    4  A    between atoms: N_11  and  C_12
REMARK    5  A    between atoms: C_12  and  N_14
REMARK    6  A    between atoms: C_15  and  C_17
REMARK                            x       y       z     vdW  Elec       q    Type
REMARK                         _______ _______ _______ _____ _____    ______ ____
ROOT
ATOM      1  N   UNL     1       2.366   1.217  -0.014  0.00  0.00    -0.245 N 
ATOM      2  H   UNL     1       2.379   0.247  -0.019  0.00  0.00    +0.172 HD
ENDROOT
BRANCH   1   5
ATOM      3  C   UNL     1      -0.014   1.211   0.009  0.00  0.00    +0.260 C 
ATOM      4  O   UNL     1       0.002  -0.004   0.002  0.00  0.00    -0.269 OA
ATOM      5  N   UNL     1       1.143   1.901   0.001  0.00  0.00    -0.231 N 
ATOM      6  H   UNL     1       1.130   2.871   0.007  0.00  0.00    +0.173 HD
BRANCH   3  11
ATOM      7  C   UNL     1      -5.037   4.021   0.047  0.00  0.00    +0.044 C 
ATOM      8  C   UNL     1      -3.721   3.285   0.037  0.00  0.00    -0.050 A 
ATOM      9  C   UNL     1      -3.706   1.901   0.030  0.00  0.00    +0.004 A 
ATOM     10  C   UNL     1      -2.506   1.222   0.021  0.00  0.00    +0.013 A 
ATOM     11  C   UNL     1      -1.305   1.933   0.019  0.00  0.00    +0.038 A 
ATOM     12  C   UNL     1      -1.327   3.329   0.032  0.00  0.00    +0.013 A 
ATOM     13  C   UNL     1      -2.534   3.996   0.036  0.00  0.00    +0.004 A 
ENDBRANCH   3  11
ENDBRANCH   1   5
BRANCH   1  14
ATOM     14  C   UNL     1       3.524   1.907  -0.021  0.00  0.00    +0.153 C 
ATOM     15  S   UNL     1       5.018   1.071  -0.040  0.00  0.00    -0.017 S 
BRANCH  14  16
ATOM     16  N   UNL     1       3.506   3.254  -0.014  0.00  0.00    -0.263 N 
ATOM     17  C   UNL     1       4.664   3.944  -0.021  0.00  0.00    +0.251 C 
ATOM     18  O   UNL     1       5.724   3.351  -0.035  0.00  0.00    -0.270 OA
ATOM     19  H   UNL     1       2.659   3.728  -0.003  0.00  0.00    +0.157 HD
BRANCH  17  20
ATOM     20  C   UNL     1       4.644   5.421  -0.013  0.00  0.00    +0.055 A 
ATOM     21  C   UNL     1       3.427   6.106  -0.004  0.00  0.00    +0.014 A 
ATOM     22  C   UNL     1       3.415   7.485   0.008  0.00  0.00    +0.001 A 
ATOM     23  C   UNL     1       4.606   8.191   0.001  0.00  0.00    +0.001 A 
ATOM     24  C   UNL     1       5.815   7.521  -0.014  0.00  0.00    +0.021 A 
ATOM     25  C   UNL     1       5.842   6.139  -0.021  0.00  0.00    +0.053 A 
ATOM     26 CL   UNL     1       7.361   5.299  -0.040  0.00  0.00    -0.083 Cl
ENDBRANCH  17  20
ENDBRANCH  14  16
ENDBRANCH   1  14
TORSDOF 5
