REMARK  Name = ZINC06587751
REMARK  4 active torsions:
REMARK  status: ('A' for Active; 'I' for Inactive)
REMARK    1  A    between atoms: C_1  and  C_2
REMARK    2  A    between atoms: C_14  and  C_15
REMARK    3  A    between atoms: C_21  and  O_25
REMARK    4  A    between atoms: O_25  and  C_26
REMARK                            x       y       z     vdW  Elec       q    Type
REMARK                         _______ _______ _______ _____ _____    ______ ____
ROOT
ATOM      1  C   UNL     1       1.625   3.718   0.059  0.00  0.00    +0.009 C 
ATOM      2  C   UNL     1       1.696   2.195   0.191  0.00  0.00    +0.003 C 
ATOM      3  C   UNL     1       0.314   1.649   0.557  0.00  0.00    +0.006 C 
ATOM      4  C   UNL     1       0.392   0.129   0.721  0.00  0.00    +0.019 C 
ATOM      5  C   UNL     1       0.825  -0.502  -0.605  0.00  0.00    +0.107 C 
ATOM      6  N   UNL     1       2.083   0.123  -1.038  0.00  0.00    -0.311 N 
ATOM      7  C   UNL     1       2.145   1.587  -1.141  0.00  0.00    +0.110 C 
ATOM      8  C   UNL     1       3.177  -0.645  -1.338  0.00  0.00    +0.154 C 
ATOM      9  N   UNL     1       4.373  -0.249  -1.744  0.00  0.00    -0.154 NA
ATOM     10  C   UNL     1       5.348  -1.095  -1.998  0.00  0.00    +0.276 C 
ATOM     11  O   UNL     1       6.449  -0.717  -2.367  0.00  0.00    -0.267 OA
ATOM     12  C   UNL     1       5.037  -2.530  -1.817  0.00  0.00    +0.079 C 
ATOM     13  C   UNL     1       5.828  -3.626  -2.004  0.00  0.00    +0.027 C 
ATOM     14  S   UNL     1       3.333  -2.424  -1.284  0.00  0.00    -0.052 S 
ENDROOT
BRANCH  13  15
ATOM     15  C   UNL     1       5.271  -4.917  -1.928  0.00  0.00    -0.009 C 
ATOM     16  C   UNL     1       6.077  -6.013  -1.980  0.00  0.00    +0.018 C 
ATOM     17  C   UNL     1       5.440  -7.337  -1.916  0.00  0.00    +0.021 A 
ATOM     18  C   UNL     1       6.177  -8.487  -1.632  0.00  0.00    +0.012 A 
ATOM     19  C   UNL     1       5.540  -9.710  -1.581  0.00  0.00    +0.004 A 
ATOM     20  C   UNL     1       4.176  -9.799  -1.810  0.00  0.00    +0.049 A 
ATOM     21  C   UNL     1       3.432  -8.665  -2.094  0.00  0.00    +0.162 A 
ATOM     22  C   UNL     1       4.057  -7.427  -2.150  0.00  0.00    +0.169 A 
ATOM     23  O   UNL     1       3.359  -6.297  -2.428  0.00  0.00    -0.483 OA
ATOM     24  C   UNL     1       3.782  -5.092  -1.783  0.00  0.00    +0.264 C 
BRANCH  21  25
ATOM     25  O   UNL     1       2.095  -8.764  -2.318  0.00  0.00    -0.491 OA
ATOM     26  C   UNL     1       1.520 -10.070  -2.245  0.00  0.00    +0.277 C 
ENDBRANCH  21  25
ENDBRANCH  13  15
TORSDOF 2
