REMARK  Name = ZINC39578104
REMARK  4 active torsions:
REMARK  status: ('A' for Active; 'I' for Inactive)
REMARK    1  A    between atoms: C_13  and  C_15
REMARK    2  A    between atoms: N_17  and  N_18
REMARK    3  A    between atoms: C_19  and  C_20
REMARK    4  A    between atoms: C_24  and  O_26
REMARK                            x       y       z     vdW  Elec       q    Type
REMARK                         _______ _______ _______ _____ _____    ______ ____
ROOT
ATOM      1  C   UNL     1       5.515  -2.984  -1.734  0.00  0.00    +0.263 C 
ATOM      2  O   UNL     1       6.150  -2.269  -2.481  0.00  0.00    -0.271 OA
ATOM      3  N   UNL     1       5.201  -4.240  -2.110  0.00  0.00    -0.205 N 
ATOM      4  H   UNL     1       4.693  -4.811  -1.513  0.00  0.00    +0.177 HD
ENDROOT
BRANCH   1  17
ATOM      5  C   UNL     1      -0.017   1.378   0.010  0.00  0.00    +0.000 A 
ATOM      6  C   UNL     1       1.165   2.099   0.002  0.00  0.00    +0.001 A 
ATOM      7  C   UNL     1       2.376   1.433  -0.031  0.00  0.00    +0.010 A 
ATOM      8  C   UNL     1       2.396   0.048  -0.056  0.00  0.00    +0.005 A 
ATOM      9  C   UNL     1       1.206  -0.684  -0.013  0.00  0.00    -0.038 A 
ATOM     10  C   UNL     1       0.002  -0.004   0.002  0.00  0.00    +0.004 A 
ATOM     11  C   UNL     1       1.218  -2.186   0.066  0.00  0.00    +0.040 C 
ATOM     12  C   UNL     1       2.381  -2.796  -0.718  0.00  0.00    +0.040 C 
ATOM     13  C   UNL     1       3.638  -2.039  -0.426  0.00  0.00    -0.007 C 
ATOM     14  C   UNL     1       3.667  -0.716  -0.125  0.00  0.00    +0.095 C 
ATOM     15  N   UNL     1       4.941  -0.317   0.071  0.00  0.00    -0.153 NA
ATOM     16  N   UNL     1       5.784  -1.215  -0.052  0.00  0.00    -0.170 NA
ATOM     17  C   UNL     1       5.077  -2.468  -0.388  0.00  0.00    +0.243 C 
ENDBRANCH   1  17
BRANCH   3  18
ATOM     18  N   UNL     1       5.609  -4.719  -3.361  0.00  0.00    -0.188 NA
ATOM     19  C   UNL     1       5.307  -5.928  -3.722  0.00  0.00    +0.138 C 
BRANCH  19  20
ATOM     20  C   UNL     1       5.736  -6.433  -5.040  0.00  0.00    -0.002 A 
ATOM     21  C   UNL     1       6.473  -5.614  -5.899  0.00  0.00    +0.010 A 
ATOM     22  C   UNL     1       6.872  -6.090  -7.131  0.00  0.00    +0.004 A 
ATOM     23  C   UNL     1       6.546  -7.377  -7.519  0.00  0.00    +0.045 A 
ATOM     24  C   UNL     1       5.814  -8.198  -6.672  0.00  0.00    +0.117 A 
ATOM     25  C   UNL     1       5.413  -7.734  -5.431  0.00  0.00    +0.054 A 
BRANCH  24  26
ATOM     26  O   UNL     1       5.496  -9.462  -7.060  0.00  0.00    -0.507 OA
ATOM     27  H   UNL     1       6.154 -10.126  -6.813  0.00  0.00    +0.292 HD
ENDBRANCH  24  26
ENDBRANCH  19  20
ENDBRANCH   3  18
TORSDOF 4
