REMARK  Name = ZINC20732044
REMARK  3 active torsions:
REMARK  status: ('A' for Active; 'I' for Inactive)
REMARK    1  A    between atoms: C_3  and  N_23
REMARK    2  A    between atoms: C_6  and  C_7
REMARK    3  A    between atoms: C_16  and  C_19
REMARK                            x       y       z     vdW  Elec       q    Type
REMARK                         _______ _______ _______ _____ _____    ______ ____
ROOT
ATOM      1  C   UNL     1      -0.076   5.747   0.034  0.00  0.00    +0.189 C 
ATOM      2  N   UNL     1      -1.375   6.273  -0.508  0.00  0.00    -0.212 N 
ATOM      3  C   UNL     1      -2.107   7.016   0.410  0.00  0.00    +0.098 C 
ATOM      4  C   UNL     1      -1.679   7.235   1.663  0.00  0.00    +0.075 C 
ATOM      5  S   UNL     1      -0.113   6.394   1.748  0.00  0.00    -0.101 S 
ATOM      6  S   UNL     1      -3.565   7.487  -0.526  0.00  0.00    -0.031 S 
ATOM      7  C   UNL     1      -3.147   6.695  -2.055  0.00  0.00    +0.215 A 
ATOM      8  N   UNL     1      -1.943   6.118  -1.797  0.00  0.00    -0.209 N 
ATOM      9  C   UNL     1      -1.605   5.497  -2.983  0.00  0.00    +0.256 A 
ATOM     10  N   UNL     1      -2.565   5.721  -3.833  0.00  0.00    -0.123 NA
ATOM     11  N   UNL     1      -3.484   6.434  -3.282  0.00  0.00    -0.120 NA
ENDROOT
BRANCH   1  17
ATOM     12  C   UNL     1       1.151   3.566   0.010  0.00  0.00    +0.008 A 
ATOM     13  C   UNL     1       1.170   2.183   0.003  0.00  0.00    +0.033 A 
ATOM     14  C   UNL     1      -0.018   1.476   0.010  0.00  0.00    +0.126 A 
ATOM     15  C   UNL     1      -1.224   2.151   0.019  0.00  0.00    +0.033 A 
ATOM     16  C   UNL     1      -1.243   3.533   0.032  0.00  0.00    +0.008 A 
ATOM     17  C   UNL     1      -0.056   4.240   0.025  0.00  0.00    -0.015 A 
BRANCH  14  18
ATOM     18  N   UNL     1       0.002  -0.004   0.002  0.00  0.00    +0.056 N 
ATOM     19  O   UNL     1       1.065  -0.599  -0.011  0.00  0.00    -0.126 OA
ATOM     20  O   UNL     1      -1.044  -0.627   0.009  0.00  0.00    -0.126 OA
ENDBRANCH  14  18
ENDBRANCH   1  17
BRANCH   9  21
ATOM     21  C   UNL     1      -0.351   4.703  -3.245  0.00  0.00    +0.454 C 
ATOM     22  F   UNL     1      -0.194   4.522  -4.623  0.00  0.00    -0.163 F 
ATOM     23  F   UNL     1       0.753   5.394  -2.736  0.00  0.00    -0.163 F 
ATOM     24  F   UNL     1      -0.449   3.456  -2.619  0.00  0.00    -0.163 F 
ENDBRANCH   9  21
TORSDOF 3
