REMARK  Name = ZINC35037262
REMARK  11 active torsions:
REMARK  status: ('A' for Active; 'I' for Inactive)
REMARK    1  A    between atoms: C_1  and  C_2
REMARK    2  A    between atoms: C_5  and  N_8
REMARK    3  A    between atoms: N_11  and  C_12
REMARK    4  A    between atoms: N_11  and  C_17
REMARK    5  A    between atoms: C_12  and  C_13
REMARK    6  A    between atoms: C_13  and  N_14
REMARK    7  A    between atoms: N_14  and  C_15
REMARK    8  A    between atoms: N_14  and  C_16
REMARK    9  A    between atoms: C_17  and  C_19
REMARK   10  A    between atoms: C_17  and  C_20
REMARK   11  A    between atoms: N_30  and  C_31
REMARK                            x       y       z     vdW  Elec       q    Type
REMARK                         _______ _______ _______ _____ _____    ______ ____
ROOT
ATOM      1  C   UNL     1       0.575  -6.913   2.523  0.00  0.00    +0.141 C 
ATOM      2  C   UNL     1      -0.808  -7.564   2.462  0.00  0.00    +0.036 C 
ENDROOT
BRANCH   1   3
ATOM      3  C   UNL     1       1.579  -7.912   3.036  0.00  0.00    +0.138 A 
ATOM      4  N   UNL     1       1.257  -9.170   3.025  0.00  0.00    -0.231 NA
ATOM      5  C   UNL     1       2.110 -10.126   3.471  0.00  0.00    +0.078 A 
ATOM      6  C   UNL     1       1.764 -11.479   3.459  0.00  0.00    +0.028 A 
ATOM      7  C   UNL     1       2.661 -12.416   3.921  0.00  0.00    +0.002 A 
ATOM      8  C   UNL     1       3.907 -12.033   4.401  0.00  0.00    +0.001 A 
ATOM      9  C   UNL     1       4.271 -10.705   4.423  0.00  0.00    +0.015 A 
ATOM     10  C   UNL     1       3.378  -9.741   3.959  0.00  0.00    +0.065 A 
ATOM     11  C   UNL     1       3.712  -8.309   3.958  0.00  0.00    +0.266 A 
ATOM     12  O   UNL     1       4.788  -7.910   4.365  0.00  0.00    -0.267 OA
ATOM     13  N   UNL     1       2.779  -7.452   3.482  0.00  0.00    -0.263 N 
BRANCH  13  14
ATOM     14  C   UNL     1       3.049  -6.077   3.454  0.00  0.00    +0.051 A 
ATOM     15  C   UNL     1       2.439  -5.230   4.370  0.00  0.00    +0.026 A 
ATOM     16  C   UNL     1       2.708  -3.876   4.340  0.00  0.00    +0.002 A 
ATOM     17  C   UNL     1       3.582  -3.363   3.400  0.00  0.00    +0.000 A 
ATOM     18  C   UNL     1       4.191  -4.204   2.486  0.00  0.00    +0.002 A 
ATOM     19  C   UNL     1       3.931  -5.561   2.514  0.00  0.00    +0.026 A 
ENDBRANCH  13  14
ENDBRANCH   1   3
BRANCH   1  23
ATOM     20  N   UNL     1       1.459  -4.752  -0.318  0.00  0.00    -0.269 N 
ATOM     21  C   UNL     1       1.099  -5.157   0.916  0.00  0.00    +0.307 C 
ATOM     22  O   UNL     1       0.894  -4.337   1.790  0.00  0.00    -0.252 OA
ATOM     23  N   UNL     1       0.967  -6.472   1.181  0.00  0.00    -0.277 N 
ATOM     24  H   UNL     1       1.560  -5.401  -1.031  0.00  0.00    +0.156 HD
BRANCH  20  29
ATOM     25  C   UNL     1       2.388   0.751  -1.337  0.00  0.00    +0.044 C 
ATOM     26  C   UNL     1       2.141  -0.710  -1.067  0.00  0.00    -0.050 A 
ATOM     27  C   UNL     1       2.434  -1.241   0.176  0.00  0.00    +0.005 A 
ATOM     28  C   UNL     1       2.209  -2.580   0.428  0.00  0.00    +0.023 A 
ATOM     29  C   UNL     1       1.688  -3.394  -0.569  0.00  0.00    +0.035 A 
ATOM     30  C   UNL     1       1.395  -2.858  -1.816  0.00  0.00    +0.023 A 
ATOM     31  C   UNL     1       1.616  -1.517  -2.059  0.00  0.00    +0.005 A 
ENDBRANCH  20  29
BRANCH  23  32
ATOM     32  C   UNL     1       1.213  -7.460   0.129  0.00  0.00    +0.091 C 
BRANCH  32  33
ATOM     33  C   UNL     1       2.710  -7.772   0.063  0.00  0.00    -0.060 C 
BRANCH  33  34
ATOM     34  N   UNL     1       2.971  -8.686  -1.057  0.00  0.00    +0.377 N 
ATOM     35  C   UNL     1       2.658  -8.011  -2.324  0.00  0.00    -0.097 C 
ATOM     36  C   UNL     1       4.386  -9.080  -1.049  0.00  0.00    -0.097 C 
ATOM     37  H   UNL     1       2.393  -9.508  -0.963  0.00  0.00    -0.083 HD
ENDBRANCH  33  34
ENDBRANCH  32  33
ENDBRANCH  23  32
ENDBRANCH   1  23
TORSDOF 7
