REMARK  Name = ZINC08789979
REMARK  9 active torsions:
REMARK  status: ('A' for Active; 'I' for Inactive)
REMARK    1  A    between atoms: C_1  and  C_2
REMARK    2  A    between atoms: C_2  and  C_3
REMARK    3  A    between atoms: C_17  and  C_19
REMARK    4  A    between atoms: C_19  and  C_20
REMARK    5  A    between atoms: C_20  and  S_21
REMARK    6  A    between atoms: S_21  and  C_22
REMARK    7  A    between atoms: N_25  and  C_28
REMARK    8  A    between atoms: C_28  and  C_29
REMARK    9  A    between atoms: C_29  and  C_30
REMARK                            x       y       z     vdW  Elec       q    Type
REMARK                         _______ _______ _______ _____ _____    ______ ____
ROOT
ATOM      1  C   UNL     1      -4.104   3.193  -3.159  0.00  0.00    -0.026 A 
ATOM      2  C   UNL     1      -4.725   4.023  -2.249  0.00  0.00    +0.005 A 
ATOM      3  C   UNL     1      -4.079   4.389  -1.084  0.00  0.00    +0.001 A 
ATOM      4  C   UNL     1      -2.802   3.922  -0.828  0.00  0.00    +0.004 A 
ATOM      5  C   UNL     1      -2.177   3.093  -1.733  0.00  0.00    -0.027 A 
ATOM      6  C   UNL     1      -2.818   2.718  -2.910  0.00  0.00    +0.039 A 
ATOM      7  N   UNL     1      -1.993   1.881  -3.664  0.00  0.00    -0.286 N 
ATOM      8  C   UNL     1      -0.809   1.659  -3.062  0.00  0.00    +0.211 C 
ATOM      9  O   UNL     1       0.101   0.975  -3.483  0.00  0.00    -0.277 OA
ATOM     10  C   UNL     1      -0.833   2.424  -1.767  0.00  0.00    +0.050 C 
ATOM     11  C   UNL     1      -0.635   1.493  -0.564  0.00  0.00    +0.088 C 
ATOM     12  C   UNL     1       0.875   1.616  -0.219  0.00  0.00    +0.073 C 
ATOM     13  C   UNL     1       1.436   2.621  -1.247  0.00  0.00    -0.057 C 
ATOM     14  C   UNL     1       0.869   2.254   1.152  0.00  0.00    +0.224 C 
ATOM     15  O   UNL     1       1.856   2.538   1.796  0.00  0.00    -0.275 OA
ATOM     16  N   UNL     1      -0.394   2.457   1.542  0.00  0.00    -0.241 N 
ATOM     17  C   UNL     1      -1.319   2.066   0.657  0.00  0.00    +0.225 C 
ATOM     18  O   UNL     1      -2.518   2.157   0.811  0.00  0.00    -0.275 OA
ATOM     19  H   UNL     1      -2.243   1.503  -4.522  0.00  0.00    +0.155 HD
ATOM     20  N   UNL     1       0.261   3.382  -1.674  0.00  0.00    +0.394 N 
ATOM     21  H   UNL     1       0.039   4.110  -0.986  0.00  0.00    -0.083 HD
ATOM     22  H   UNL     1       0.432   3.816  -2.589  0.00  0.00    -0.083 HD
ENDROOT
BRANCH   1  24
ATOM     23  C   UNL     1      -5.512   1.451  -4.223  0.00  0.00    +0.009 C 
ATOM     24  C   UNL     1      -4.817   2.799  -4.427  0.00  0.00    +0.033 C 
ENDBRANCH   1  24
BRANCH  13  25
ATOM     25  C   UNL     1       2.045   1.879  -2.438  0.00  0.00    -0.004 C 
BRANCH  25  26
ATOM     26  C   UNL     1       3.543   1.678  -2.202  0.00  0.00    +0.067 C 
BRANCH  26  27
ATOM     27  S   UNL     1       4.266   0.798  -3.614  0.00  0.00    -0.164 S 
ATOM     28  C   UNL     1       6.021   0.642  -3.183  0.00  0.00    +0.084 C 
ENDBRANCH  26  27
ENDBRANCH  25  26
ENDBRANCH  13  25
BRANCH  16  29
ATOM     29  C   UNL     1      -0.738   3.059   2.833  0.00  0.00    +0.121 C 
BRANCH  29  30
ATOM     30  C   UNL     1      -0.833   4.579   2.678  0.00  0.00    +0.054 C 
BRANCH  30  31
ATOM     31  C   UNL     1      -1.186   5.198   4.005  0.00  0.00    -0.046 A 
ATOM     32  C   UNL     1      -2.511   5.388   4.349  0.00  0.00    +0.004 A 
ATOM     33  C   UNL     1      -2.835   5.951   5.569  0.00  0.00    +0.000 A 
ATOM     34  C   UNL     1      -1.833   6.335   6.441  0.00  0.00    +0.000 A 
ATOM     35  C   UNL     1      -0.508   6.150   6.095  0.00  0.00    +0.000 A 
ATOM     36  C   UNL     1      -0.184   5.582   4.877  0.00  0.00    +0.004 A 
ENDBRANCH  30  31
ENDBRANCH  29  30
ENDBRANCH  16  29
TORSDOF 7
