REMARK  Name = ZINC44814425
REMARK  6 active torsions:
REMARK  status: ('A' for Active; 'I' for Inactive)
REMARK    1  A    between atoms: C_1  and  C_2
REMARK    2  A    between atoms: C_2  and  C_3
REMARK    3  A    between atoms: C_2  and  C_4
REMARK    4  A    between atoms: C_4  and  C_6
REMARK    5  A    between atoms: C_4  and  C_8
REMARK    6  A    between atoms: N_10  and  C_11
REMARK                            x       y       z     vdW  Elec       q    Type
REMARK                         _______ _______ _______ _____ _____    ______ ____
ROOT
ATOM      1  C   UNL     1      -3.122   0.397  -0.357  0.00  0.00    +0.234 C 
ATOM      2  O   UNL     1      -3.360   1.587  -0.381  0.00  0.00    -0.274 OA
ATOM      3  N   UNL     1      -3.450  -0.376  -1.411  0.00  0.00    -0.282 N 
ATOM      4  H   UNL     1      -3.195  -1.312  -1.423  0.00  0.00    +0.155 HD
ENDROOT
BRANCH   3   5
ATOM      5  C   UNL     1      -4.159   0.171  -2.488  0.00  0.00    +0.071 A 
ATOM      6  C   UNL     1      -3.474   0.711  -3.570  0.00  0.00    +0.065 A 
ATOM      7  C   UNL     1      -4.176   1.250  -4.631  0.00  0.00    +0.037 A 
ATOM      8  C   UNL     1      -5.559   1.252  -4.617  0.00  0.00    +0.021 A 
ATOM      9  C   UNL     1      -6.244   0.716  -3.542  0.00  0.00    +0.037 A 
ATOM     10  C   UNL     1      -5.548   0.170  -2.480  0.00  0.00    +0.065 A 
ATOM     11 CL   UNL     1      -6.408  -0.511  -1.134  0.00  0.00    -0.082 Cl
ATOM     12 BR   UNL     1      -6.516   1.991  -6.072  0.00  0.00    -0.050 Br
ATOM     13 CL   UNL     1      -1.738   0.709  -3.587  0.00  0.00    -0.082 Cl
ENDBRANCH   3   5
BRANCH   1  14
ATOM     14  C   UNL     1      -2.461  -0.215   0.851  0.00  0.00    +0.180 C 
BRANCH  14  16
ATOM     15  C   UNL     1      -3.524   1.513   2.309  0.00  0.00    +0.009 C 
ATOM     16  C   UNL     1      -2.198   0.873   1.894  0.00  0.00    +0.009 C 
ATOM     17  C   UNL     1      -1.526   0.251   3.120  0.00  0.00    +0.009 C 
ENDBRANCH  14  16
BRANCH  14  18
ATOM     18  C   UNL     1      -1.185  -0.831   0.452  0.00  0.00    +0.076 C 
ATOM     19  N   UNL     1      -0.200  -1.307   0.144  0.00  0.00    -0.196 NA
ENDBRANCH  14  18
ENDBRANCH   1  14
TORSDOF 4
