REMARK  Name = ZINC61616869
REMARK  5 active torsions:
REMARK  status: ('A' for Active; 'I' for Inactive)
REMARK    1  A    between atoms: C_4  and  C_7
REMARK    2  A    between atoms: C_7  and  C_9
REMARK    3  A    between atoms: C_7  and  C_13
REMARK    4  A    between atoms: N_10  and  O_11
REMARK    5  A    between atoms: N_15  and  C_16
REMARK                            x       y       z     vdW  Elec       q    Type
REMARK                         _______ _______ _______ _____ _____    ______ ____
ROOT
ATOM      1  C   UNL     1       3.717  -0.695  -0.046  0.00  0.00    +0.171 C 
ENDROOT
BRANCH   1   5
ATOM      2  C   UNL     1      -0.006   1.399  -0.006  0.00  0.00    +0.000 A 
ATOM      3  C   UNL     1       1.183   2.104  -0.021  0.00  0.00    +0.000 A 
ATOM      4  C   UNL     1       2.388   1.426  -0.034  0.00  0.00    +0.005 A 
ATOM      5  C   UNL     1       2.404   0.044  -0.031  0.00  0.00    -0.028 A 
ATOM      6  C   UNL     1       1.215  -0.661  -0.016  0.00  0.00    +0.005 A 
ATOM      7  C   UNL     1       0.010   0.017  -0.005  0.00  0.00    +0.000 A 
ENDBRANCH   1   5
BRANCH   1   8
ATOM      8  C   UNL     1       3.822  -1.558   1.184  0.00  0.00    +0.148 C 
ATOM      9  N   UNL     1       3.475  -2.801   1.133  0.00  0.00    -0.076 NA
ATOM     10  N   UNL     1       4.288  -1.022   2.364  0.00  0.00    -0.343 N 
ATOM     11  H   UNL     1       4.549  -0.088   2.403  0.00  0.00    +0.144 HD
ATOM     12  H   UNL     1       4.356  -1.577   3.156  0.00  0.00    +0.144 HD
BRANCH   9  13
ATOM     13  O   UNL     1       3.574  -3.613   2.289  0.00  0.00    -0.408 OA
ATOM     14  H   UNL     1       3.291  -4.527   2.153  0.00  0.00    +0.328 HD
ENDBRANCH   9  13
ENDBRANCH   1   8
BRANCH   1  15
ATOM     15  C   UNL     1       3.792  -1.562  -1.276  0.00  0.00    +0.232 C 
ATOM     16  O   UNL     1       2.869  -1.579  -2.063  0.00  0.00    -0.274 OA
ATOM     17  N   UNL     1       4.884  -2.319  -1.502  0.00  0.00    -0.284 N 
ATOM     18  H   UNL     1       5.648  -2.257  -0.908  0.00  0.00    +0.155 HD
BRANCH  17  19
ATOM     19  C   UNL     1       4.915  -3.196  -2.592  0.00  0.00    +0.047 A 
ATOM     20  C   UNL     1       4.282  -2.852  -3.780  0.00  0.00    +0.024 A 
ATOM     21  C   UNL     1       4.315  -3.718  -4.854  0.00  0.00    +0.002 A 
ATOM     22  C   UNL     1       4.976  -4.928  -4.750  0.00  0.00    +0.001 A 
ATOM     23  C   UNL     1       5.607  -5.274  -3.569  0.00  0.00    +0.016 A 
ATOM     24  C   UNL     1       5.583  -4.409  -2.492  0.00  0.00    +0.035 A 
ATOM     25  I   UNL     1       6.546  -4.931  -0.706  0.00  0.00    -0.042 I 
ENDBRANCH  17  19
ENDBRANCH   1  15
TORSDOF 5
