REMARK  Name = ZINC15017785
REMARK  8 active torsions:
REMARK  status: ('A' for Active; 'I' for Inactive)
REMARK    1  A    between atoms: C_1  and  C_2
REMARK    2  A    between atoms: C_5  and  C_8
REMARK    3  A    between atoms: C_8  and  C_10
REMARK    4  A    between atoms: C_8  and  N_25
REMARK    5  A    between atoms: C_10  and  C_12
REMARK    6  A    between atoms: C_10  and  O_24
REMARK    7  A    between atoms: C_12  and  C_14
REMARK    8  A    between atoms: C_28  and  N_31
REMARK                            x       y       z     vdW  Elec       q    Type
REMARK                         _______ _______ _______ _____ _____    ______ ____
ROOT
ATOM      1  C   UNL     1      -0.018   1.503   0.010  0.00  0.00    +0.123 C 
ENDROOT
BRANCH   1   6
ATOM      2  C   UNL     1      -0.687  -4.116   1.185  0.00  0.00    +0.044 C 
ATOM      3  C   UNL     1      -0.513  -2.651   0.878  0.00  0.00    -0.050 A 
ATOM      4  C   UNL     1      -1.324  -1.715   1.493  0.00  0.00    +0.003 A 
ATOM      5  C   UNL     1      -1.163  -0.371   1.212  0.00  0.00    +0.005 A 
ATOM      6  C   UNL     1      -0.193   0.038   0.317  0.00  0.00    -0.027 A 
ATOM      7  C   UNL     1       0.614  -0.899  -0.302  0.00  0.00    +0.005 A 
ATOM      8  C   UNL     1       0.458  -2.242  -0.018  0.00  0.00    +0.003 A 
ENDBRANCH   1   6
BRANCH   1   9
ATOM      9  N   UNL     1       1.413   1.815  -0.092  0.00  0.00    -0.293 NA
ATOM     10  C   UNL     1       1.620   3.200  -0.534  0.00  0.00    +0.083 C 
ATOM     11  C   UNL     1       3.112   3.444  -0.769  0.00  0.00    +0.000 C 
ATOM     12  C   UNL     1       3.878   3.184   0.531  0.00  0.00    -0.066 C 
ATOM     13  C   UNL     1       3.607   1.751   0.996  0.00  0.00    +0.000 C 
ATOM     14  C   UNL     1       2.101   1.555   1.180  0.00  0.00    +0.083 C 
BRANCH  12  15
ATOM     15  N   UNL     1       5.318   3.361   0.297  0.00  0.00    +0.382 N 
ATOM     16  C   UNL     1       6.092   3.015   1.496  0.00  0.00    -0.078 C 
ATOM     17  C   UNL     1       7.587   3.070   1.173  0.00  0.00    -0.019 C 
ATOM     18  C   UNL     1       7.950   4.479   0.697  0.00  0.00    -0.004 C 
ATOM     19  C   UNL     1       7.095   4.834  -0.523  0.00  0.00    -0.019 C 
ATOM     20  C   UNL     1       5.614   4.728  -0.151  0.00  0.00    -0.078 C 
ATOM     21  H   UNL     1       5.618   2.672  -0.506  0.00  0.00    -0.081 HD
ENDBRANCH  12  15
ENDBRANCH   1   9
BRANCH   1  22
ATOM     22  C   UNL     1      -0.708   1.832  -1.315  0.00  0.00    +0.207 C 
BRANCH  22  23
ATOM     23  C   UNL     1      -2.180   1.531  -1.204  0.00  0.00    +0.195 C 
ATOM     24  O   UNL     1      -2.625   0.498  -1.662  0.00  0.00    -0.289 OA
BRANCH  23  25
ATOM     25  C   UNL     1      -3.046   2.453  -0.565  0.00  0.00    +0.045 A 
ATOM     26  C   UNL     1      -2.696   3.658   0.007  0.00  0.00    +0.095 A 
ATOM     27  N   UNL     1      -3.793   4.255   0.512  0.00  0.00    -0.360 N 
ATOM     28  H   UNL     1      -3.708   5.235   1.004  0.00  0.00    +0.165 HD
ATOM     29  C   UNL     1      -4.912   3.473   0.307  0.00  0.00    +0.047 A 
ATOM     30  C   UNL     1      -4.503   2.314  -0.372  0.00  0.00    +0.010 A 
ATOM     31  C   UNL     1      -5.434   1.338  -0.712  0.00  0.00    +0.011 A 
ATOM     32  C   UNL     1      -6.760   1.515  -0.379  0.00  0.00    +0.001 A 
ATOM     33  C   UNL     1      -7.166   2.658   0.292  0.00  0.00    +0.002 A 
ATOM     34  C   UNL     1      -6.254   3.632   0.635  0.00  0.00    +0.026 A 
ENDBRANCH  23  25
ENDBRANCH  22  23
BRANCH  22  35
ATOM     35  O   UNL     1      -0.137   1.040  -2.359  0.00  0.00    -0.382 OA
ATOM     36  H   UNL     1      -0.507   1.140  -3.390  0.00  0.00    +0.210 HD
ENDBRANCH  22  35
ENDBRANCH   1  22
TORSDOF 7
