REMARK  Name = ZINC67591002
REMARK  4 active torsions:
REMARK  status: ('A' for Active; 'I' for Inactive)
REMARK    1  A    between atoms: C_4  and  C_7
REMARK    2  A    between atoms: C_8  and  C_9
REMARK    3  A    between atoms: C_9  and  N_10
REMARK    4  A    between atoms: C_17  and  C_20
REMARK                            x       y       z     vdW  Elec       q    Type
REMARK                         _______ _______ _______ _____ _____    ______ ____
ROOT
ATOM      1  N   UNL     1       5.723  -3.392  -0.068  0.00  0.00    -0.288 N 
ATOM      2  C   UNL     1       6.761  -4.252  -0.087  0.00  0.00    +0.303 C 
ATOM      3  O   UNL     1       7.897  -3.831  -0.192  0.00  0.00    -0.253 OA
ATOM      4  N   UNL     1       6.540  -5.578   0.010  0.00  0.00    -0.281 N 
ATOM      5  C   UNL     1       5.171  -6.119   0.017  0.00  0.00    +0.137 C 
ATOM      6  C   UNL     1       5.090  -7.240  -1.026  0.00  0.00    +0.179 C 
ATOM      7  O   UNL     1       6.144  -8.177  -0.794  0.00  0.00    -0.369 OA
ATOM      8  C   UNL     1       7.456  -7.628  -0.936  0.00  0.00    +0.166 C 
ATOM      9  C   UNL     1       7.660  -6.528   0.105  0.00  0.00    +0.145 C 
ATOM     10  H   UNL     1       4.814  -3.730  -0.057  0.00  0.00    +0.151 HD
ENDROOT
BRANCH   8  11
ATOM     11  C   UNL     1       8.481  -8.714  -0.732  0.00  0.00    -0.017 A 
ATOM     12  C   UNL     1       8.244  -9.725   0.181  0.00  0.00    +0.007 A 
ATOM     13  C   UNL     1       9.183 -10.721   0.369  0.00  0.00    +0.015 A 
ATOM     14  C   UNL     1      10.361 -10.707  -0.357  0.00  0.00    +0.018 A 
ATOM     15  C   UNL     1      10.598  -9.695  -1.270  0.00  0.00    +0.015 A 
ATOM     16  C   UNL     1       9.655  -8.702  -1.461  0.00  0.00    +0.007 A 
ATOM     17 BR   UNL     1      11.646 -12.070  -0.100  0.00  0.00    -0.050 Br
ENDBRANCH   8  11
BRANCH   1  18
ATOM     18  C   UNL     1       5.968  -1.948  -0.063  0.00  0.00    +0.195 C 
BRANCH  18  20
ATOM     19  C   UNL     1       3.656  -0.662  -0.023  0.00  0.00    -0.065 C 
ATOM     20  C   UNL     1       4.682  -1.232  -0.041  0.00  0.00    -0.078 C 
BRANCH  19  24
ATOM     21  C   UNL     1      -0.015   1.381   0.039  0.00  0.00    +0.000 A 
ATOM     22  C   UNL     1       1.171   2.095   0.027  0.00  0.00    +0.001 A 
ATOM     23  C   UNL     1       2.379   1.430   0.006  0.00  0.00    +0.017 A 
ATOM     24  C   UNL     1       2.405   0.035  -0.002  0.00  0.00    +0.025 A 
ATOM     25  C   UNL     1       1.206  -0.679   0.011  0.00  0.00    +0.017 A 
ATOM     26  C   UNL     1       0.004  -0.002   0.031  0.00  0.00    +0.001 A 
ENDBRANCH  19  24
ENDBRANCH  18  20
ENDBRANCH   1  18
TORSDOF 4
