REMARK  Name = ZINC20493138
REMARK  10 active torsions:
REMARK  status: ('A' for Active; 'I' for Inactive)
REMARK    1  A    between atoms: C_1  and  C_2
REMARK    2  A    between atoms: C_2  and  O_3
REMARK    3  A    between atoms: O_3  and  C_4
REMARK    4  A    between atoms: C_9  and  N_10
REMARK    5  A    between atoms: N_10  and  C_11
REMARK    6  A    between atoms: N_10  and  S_24
REMARK    7  A    between atoms: C_11  and  C_12
REMARK    8  A    between atoms: N_14  and  N_15
REMARK    9  A    between atoms: C_16  and  C_17
REMARK   10  A    between atoms: S_24  and  C_27
REMARK                            x       y       z     vdW  Elec       q    Type
REMARK                         _______ _______ _______ _____ _____    ______ ____
ROOT
ATOM      1  N   UNL     1      -3.901  -1.567   0.031  0.00  0.00    -0.191 N 
ENDROOT
BRANCH   1   7
ATOM      2  C   UNL     1      -1.498  -1.849   0.006  0.00  0.00    +0.143 A 
ATOM      3  C   UNL     1      -0.390  -2.680  -0.003  0.00  0.00    +0.047 A 
ATOM      4  C   UNL     1      -0.554  -4.053  -0.009  0.00  0.00    +0.004 A 
ATOM      5  C   UNL     1      -1.823  -4.601  -0.006  0.00  0.00    +0.002 A 
ATOM      6  C   UNL     1      -2.935  -3.779   0.004  0.00  0.00    +0.028 A 
ATOM      7  C   UNL     1      -2.778  -2.401   0.016  0.00  0.00    +0.093 A 
BRANCH   2   8
ATOM      8  O   UNL     1      -1.339  -0.499   0.012  0.00  0.00    -0.490 OA
BRANCH   8  10
ATOM      9  C   UNL     1      -0.019   1.526   0.010  0.00  0.00    +0.048 C 
ATOM     10  C   UNL     1       0.002  -0.004   0.002  0.00  0.00    +0.226 C 
ENDBRANCH   8  10
ENDBRANCH   2   8
ENDBRANCH   1   7
BRANCH   1  11
ATOM     11  S   UNL     1      -4.506  -0.965  -1.388  0.00  0.00    +0.075 S 
ATOM     12  O   UNL     1      -5.219   0.219  -1.056  0.00  0.00    -0.150 OA
ATOM     13  O   UNL     1      -3.434  -0.973  -2.321  0.00  0.00    -0.150 OA
BRANCH  11  14
ATOM     14  C   UNL     1      -5.697  -2.121  -1.979  0.00  0.00    +0.109 A 
ATOM     15  C   UNL     1      -5.305  -3.151  -2.815  0.00  0.00    +0.029 A 
ATOM     16  C   UNL     1      -6.239  -4.058  -3.279  0.00  0.00    +0.002 A 
ATOM     17  C   UNL     1      -7.565  -3.936  -2.907  0.00  0.00    +0.000 A 
ATOM     18  C   UNL     1      -7.957  -2.907  -2.071  0.00  0.00    +0.002 A 
ATOM     19  C   UNL     1      -7.021  -2.002  -1.603  0.00  0.00    +0.029 A 
ENDBRANCH  11  14
ENDBRANCH   1  11
BRANCH   1  20
ATOM     20  C   UNL     1      -4.543  -1.227   1.304  0.00  0.00    +0.229 C 
BRANCH  20  21
ATOM     21  C   UNL     1      -3.838  -0.047   1.922  0.00  0.00    +0.251 C 
ATOM     22  O   UNL     1      -2.893   0.460   1.356  0.00  0.00    -0.272 OA
ATOM     23  N   UNL     1      -4.258   0.445   3.104  0.00  0.00    -0.206 N 
ATOM     24  H   UNL     1      -5.015   0.040   3.557  0.00  0.00    +0.177 HD
BRANCH  23  25
ATOM     25  N   UNL     1      -3.603   1.542   3.679  0.00  0.00    -0.188 NA
ATOM     26  C   UNL     1      -4.008   2.016   4.817  0.00  0.00    +0.138 C 
BRANCH  26  27
ATOM     27  C   UNL     1      -3.318   3.170   5.423  0.00  0.00    -0.005 A 
ATOM     28  C   UNL     1      -2.232   3.760   4.770  0.00  0.00    +0.011 A 
ATOM     29  C   UNL     1      -1.592   4.839   5.341  0.00  0.00    +0.020 A 
ATOM     30  C   UNL     1      -2.022   5.339   6.559  0.00  0.00    +0.041 A 
ATOM     31  C   UNL     1      -3.098   4.759   7.211  0.00  0.00    +0.020 A 
ATOM     32  C   UNL     1      -3.751   3.683   6.648  0.00  0.00    +0.011 A 
ATOM     33 CL   UNL     1      -1.210   6.698   7.271  0.00  0.00    -0.084 Cl
ENDBRANCH  26  27
ENDBRANCH  23  25
ENDBRANCH  20  21
ENDBRANCH   1  20
TORSDOF 9
