REMARK  Name = ZINC57234781
REMARK  13 active torsions:
REMARK  status: ('A' for Active; 'I' for Inactive)
REMARK    1  A    between atoms: C_1  and  C_2
REMARK    2  A    between atoms: C_2  and  C_3
REMARK    3  A    between atoms: C_3  and  C_8
REMARK    4  A    between atoms: C_8  and  C_9
REMARK    5  A    between atoms: C_8  and  C_23
REMARK    6  A    between atoms: C_8  and  O_29
REMARK    7  A    between atoms: C_10  and  C_11
REMARK    8  A    between atoms: C_11  and  N_12
REMARK    9  A    between atoms: N_12  and  C_13
REMARK   10  A    between atoms: N_12  and  C_20
REMARK   11  A    between atoms: C_13  and  C_14
REMARK   12  A    between atoms: C_20  and  C_21
REMARK   13  A    between atoms: C_20  and  C_22
REMARK                            x       y       z     vdW  Elec       q    Type
REMARK                         _______ _______ _______ _____ _____    ______ ____
ROOT
ATOM      1  C   UNL     1       0.733  -2.176   1.679  0.00  0.00    +0.157 C 
ENDROOT
BRANCH   1   2
ATOM      2  C   UNL     1       1.850  -2.489   0.716  0.00  0.00    -0.004 A 
ATOM      3  C   UNL     1       3.161  -2.477   1.153  0.00  0.00    +0.007 A 
ATOM      4  C   UNL     1       4.186  -2.764   0.270  0.00  0.00    +0.000 A 
ATOM      5  C   UNL     1       3.898  -3.063  -1.049  0.00  0.00    +0.000 A 
ATOM      6  C   UNL     1       2.587  -3.075  -1.485  0.00  0.00    +0.000 A 
ATOM      7  C   UNL     1       1.562  -2.792  -0.601  0.00  0.00    +0.007 A 
ENDBRANCH   1   2
BRANCH   1   8
ATOM      8  C   UNL     1       0.640  -0.662   1.877  0.00  0.00    +0.015 C 
ATOM      9  C   UNL     1       1.925  -0.136   2.549  0.00  0.00    +0.011 C 
ATOM     10  C   UNL     1       1.428   0.977   3.504  0.00  0.00    +0.001 C 
ATOM     11  C   UNL     1       0.099   0.393   4.045  0.00  0.00    +0.001 C 
ATOM     12  C   UNL     1      -0.522  -0.325   2.829  0.00  0.00    +0.011 C 
BRANCH   8  14
ATOM     13  C   UNL     1       0.357   1.545   0.741  0.00  0.00    +0.004 C 
ATOM     14  C   UNL     1       0.431   0.032   0.530  0.00  0.00    +0.008 C 
ENDBRANCH   8  14
ENDBRANCH   1   8
BRANCH   1  15
ATOM     15  C   UNL     1       1.003  -2.825   2.972  0.00  0.00    -0.061 C 
ATOM     16  C   UNL     1       1.219  -3.343   4.003  0.00  0.00    -0.083 C 
BRANCH  16  17
ATOM     17  C   UNL     1       1.489  -3.992   5.296  0.00  0.00    +0.174 C 
BRANCH  17  18
ATOM     18  N   UNL     1       1.579  -5.446   5.106  0.00  0.00    -0.285 NA
BRANCH  18  19
ATOM     19  C   UNL     1       0.282  -6.004   4.699  0.00  0.00    +0.052 C 
ATOM     20  C   UNL     1       0.467  -7.458   4.263  0.00  0.00    +0.024 C 
ATOM     21  C   UNL     1      -0.691  -5.944   5.878  0.00  0.00    +0.024 C 
ENDBRANCH  18  19
BRANCH  18  22
ATOM     22  C   UNL     1       2.079  -6.106   6.319  0.00  0.00    +0.120 C 
BRANCH  22  23
ATOM     23  C   UNL     1       3.566  -5.890   6.431  0.00  0.00    -0.033 A 
ATOM     24  C   UNL     1       4.439  -6.724   5.759  0.00  0.00    +0.005 A 
ATOM     25  C   UNL     1       5.803  -6.526   5.862  0.00  0.00    +0.000 A 
ATOM     26  C   UNL     1       6.294  -5.493   6.638  0.00  0.00    +0.000 A 
ATOM     27  C   UNL     1       5.421  -4.658   7.310  0.00  0.00    +0.000 A 
ATOM     28  C   UNL     1       4.057  -4.853   7.203  0.00  0.00    +0.005 A 
ENDBRANCH  22  23
ENDBRANCH  18  22
ENDBRANCH  17  18
ENDBRANCH  16  17
ENDBRANCH   1  15
BRANCH   1  29
ATOM     29  O   UNL     1      -0.502  -2.664   1.150  0.00  0.00    -0.372 OA
ATOM     30  H   UNL     1      -0.515  -3.619   0.998  0.00  0.00    +0.212 HD
ENDBRANCH   1  29
TORSDOF 10
