REMARK  Name = ZINC62496063
REMARK  7 active torsions:
REMARK  status: ('A' for Active; 'I' for Inactive)
REMARK    1  A    between atoms: C_1  and  C_2
REMARK    2  A    between atoms: C_6  and  C_9
REMARK    3  A    between atoms: C_7  and  C_8
REMARK    4  A    between atoms: C_9  and  C_10
REMARK    5  A    between atoms: N_14  and  C_23
REMARK    6  A    between atoms: C_17  and  N_22
REMARK    7  A    between atoms: C_23  and  C_24
REMARK                            x       y       z     vdW  Elec       q    Type
REMARK                         _______ _______ _______ _____ _____    ______ ____
ROOT
ATOM      1  C   UNL     1      -1.363  -2.933   2.884  0.00  0.00    +0.263 C 
ATOM      2  C   UNL     1      -1.462  -3.716   4.168  0.00  0.00    +0.261 C 
ATOM      3  O   UNL     1      -1.640  -4.915   4.138  0.00  0.00    -0.271 OA
ATOM      4  N   UNL     1      -1.351  -3.077   5.352  0.00  0.00    -0.261 N 
ATOM      5  C   UNL     1      -1.272  -1.678   5.370  0.00  0.00    +0.080 A 
ATOM      6  C   UNL     1      -0.931  -1.008   6.533  0.00  0.00    +0.050 A 
ATOM      7  C   UNL     1      -0.844   0.378   6.531  0.00  0.00    +0.027 A 
ATOM      8  C   UNL     1      -1.097   1.088   5.365  0.00  0.00    +0.026 A 
ATOM      9  C   UNL     1      -1.442   0.420   4.205  0.00  0.00    +0.049 A 
ATOM     10  C   UNL     1      -1.536  -0.961   4.205  0.00  0.00    +0.143 A 
ATOM     11  O   UNL     1      -1.906  -1.625   3.076  0.00  0.00    -0.477 OA
ENDROOT
BRANCH   7  12
ATOM     12  N   UNL     1      -0.500   1.058   7.705  0.00  0.00    -0.358 N 
ATOM     13  H   UNL     1      -0.323   0.562   8.519  0.00  0.00    +0.142 HD
ATOM     14  H   UNL     1      -0.439   2.026   7.703  0.00  0.00    +0.142 HD
ENDBRANCH   7  12
BRANCH   1  15
ATOM     15  C   UNL     1       0.105  -2.818   2.469  0.00  0.00    +0.089 C 
BRANCH  15  21
ATOM     16  C   UNL     1       0.574  -6.607  -0.767  0.00  0.00    +0.044 C 
ATOM     17  C   UNL     1       0.863  -5.999   0.581  0.00  0.00    -0.047 A 
ATOM     18  C   UNL     1       1.618  -6.695   1.506  0.00  0.00    +0.003 A 
ATOM     19  C   UNL     1       1.883  -6.138   2.742  0.00  0.00    +0.001 A 
ATOM     20  C   UNL     1       1.394  -4.883   3.054  0.00  0.00    +0.004 A 
ATOM     21  C   UNL     1       0.639  -4.186   2.129  0.00  0.00    -0.040 A 
ATOM     22  C   UNL     1       0.378  -4.742   0.890  0.00  0.00    -0.044 A 
ATOM     23  C   UNL     1      -0.440  -3.980  -0.120  0.00  0.00    +0.044 C 
ENDBRANCH  15  21
ENDBRANCH   1  15
BRANCH   4  24
ATOM     24  C   UNL     1      -1.314  -3.838   6.604  0.00  0.00    +0.140 C 
BRANCH  24  25
ATOM     25  C   UNL     1       0.114  -4.178   6.943  0.00  0.00    -0.015 C 
ATOM     26  C   UNL     1       0.609  -3.839   8.108  0.00  0.00    +0.005 C 
ENDBRANCH  24  25
ENDBRANCH   4  24
TORSDOF 5
