REMARK  Name = ZINC64981649
REMARK  7 active torsions:
REMARK  status: ('A' for Active; 'I' for Inactive)
REMARK    1  A    between atoms: C_1  and  O_2
REMARK    2  A    between atoms: O_2  and  C_3
REMARK    3  A    between atoms: C_5  and  C_19
REMARK    4  A    between atoms: C_8  and  O_9
REMARK    5  A    between atoms: O_9  and  C_10
REMARK    6  A    between atoms: C_10  and  C_11
REMARK    7  A    between atoms: N_20  and  N_21
REMARK                            x       y       z     vdW  Elec       q    Type
REMARK                         _______ _______ _______ _____ _____    ______ ____
ROOT
ATOM      1  C   UNL     1       0.626  -0.619   1.042  0.00  0.00    +0.162 A 
ATOM      2  C   UNL     1       1.200   0.137   2.048  0.00  0.00    +0.059 A 
ATOM      3  C   UNL     1       1.840  -0.498   3.115  0.00  0.00    -0.002 A 
ATOM      4  C   UNL     1       1.897  -1.894   3.161  0.00  0.00    +0.013 A 
ATOM      5  C   UNL     1       1.322  -2.640   2.154  0.00  0.00    +0.050 A 
ATOM      6  C   UNL     1       0.682  -2.010   1.097  0.00  0.00    +0.162 A 
ENDROOT
BRANCH   1   8
ATOM      7  C   UNL     1      -0.017   1.425   0.010  0.00  0.00    +0.277 C 
ATOM      8  O   UNL     1       0.002  -0.004   0.002  0.00  0.00    -0.491 OA
ENDBRANCH   1   8
BRANCH   3   9
ATOM      9  C   UNL     1       2.455   0.302   4.190  0.00  0.00    +0.138 C 
ATOM     10  N   UNL     1       3.049  -0.290   5.181  0.00  0.00    -0.187 NA
BRANCH  10  11
ATOM     11  N   UNL     1       3.633   0.471   6.203  0.00  0.00    -0.204 N 
ATOM     12  C   UNL     1       4.266  -0.160   7.260  0.00  0.00    +0.256 A 
ATOM     13  N   UNL     1       4.810   0.572   8.223  0.00  0.00    -0.192 NA
ATOM     14  C   UNL     1       5.418  -0.035   9.237  0.00  0.00    +0.163 A 
ATOM     15  C   UNL     1       5.459  -1.445   9.246  0.00  0.00    +0.137 A 
ATOM     16  C   UNL     1       6.183  -1.830  10.469  0.00  0.00    +0.029 A 
ATOM     17  C   UNL     1       6.541  -3.055  11.028  0.00  0.00    +0.012 A 
ATOM     18  C   UNL     1       7.237  -3.088  12.218  0.00  0.00    +0.001 A 
ATOM     19  C   UNL     1       7.581  -1.907  12.858  0.00  0.00    +0.002 A 
ATOM     20  C   UNL     1       7.233  -0.689  12.316  0.00  0.00    +0.026 A 
ATOM     21  C   UNL     1       6.531  -0.635  11.116  0.00  0.00    +0.050 A 
ATOM     22  N   UNL     1       6.061   0.426  10.359  0.00  0.00    -0.338 N 
ATOM     23  H   UNL     1       6.171   1.362  10.588  0.00  0.00    +0.167 HD
ATOM     24  N   UNL     1       4.897  -2.119   8.253  0.00  0.00    -0.142 NA
ATOM     25  N   UNL     1       4.314  -1.488   7.292  0.00  0.00    -0.111 NA
ATOM     26  H   UNL     1       3.593   1.440   6.170  0.00  0.00    +0.177 HD
ENDBRANCH  10  11
ENDBRANCH   3   9
BRANCH   6  27
ATOM     27  O   UNL     1       0.113  -2.751   0.110  0.00  0.00    -0.484 OA
BRANCH  27  28
ATOM     28  C   UNL     1       0.206  -4.172   0.229  0.00  0.00    +0.269 C 
BRANCH  28  29
ATOM     29  C   UNL     1      -0.476  -4.820  -0.948  0.00  0.00    +0.043 A 
ATOM     30  C   UNL     1      -1.824  -5.131  -0.881  0.00  0.00    +0.131 A 
ATOM     31  C   UNL     1      -2.450  -5.727  -1.963  0.00  0.00    +0.039 A 
ATOM     32  C   UNL     1      -1.730  -6.012  -3.108  0.00  0.00    +0.004 A 
ATOM     33  C   UNL     1      -0.384  -5.702  -3.174  0.00  0.00    +0.020 A 
ATOM     34  C   UNL     1       0.242  -5.101  -2.096  0.00  0.00    +0.050 A 
ATOM     35 CL   UNL     1       1.930  -4.706  -2.182  0.00  0.00    -0.083 Cl
ATOM     36  F   UNL     1      -2.528  -4.853   0.238  0.00  0.00    -0.205 F 
ENDBRANCH  28  29
ENDBRANCH  27  28
ENDBRANCH   6  27
TORSDOF 6
