REMARK  Name = ZINC12348565
REMARK  4 active torsions:
REMARK  status: ('A' for Active; 'I' for Inactive)
REMARK    1  A    between atoms: C_1  and  O_2
REMARK    2  A    between atoms: O_2  and  C_3
REMARK    3  A    between atoms: C_8  and  C_9
REMARK    4  A    between atoms: N_15  and  C_18
REMARK                            x       y       z     vdW  Elec       q    Type
REMARK                         _______ _______ _______ _____ _____    ______ ____
ROOT
ATOM      1  C   UNL     1       0.018  -2.829  -0.013  0.00  0.00    +0.096 C 
ATOM      2  C   UNL     1       0.052  -3.688  -1.245  0.00  0.00    +0.070 A 
ATOM      3  C   UNL     1      -0.151  -5.045  -1.202  0.00  0.00    +0.125 A 
ATOM      4  N   UNL     1      -0.063  -5.528  -2.471  0.00  0.00    -0.277 N 
ATOM      5  H   UNL     1      -0.168  -6.454  -2.739  0.00  0.00    +0.189 HD
ATOM      6  N   UNL     1       0.205  -4.446  -3.326  0.00  0.00    -0.218 N 
ATOM      7  C   UNL     1       0.275  -3.326  -2.574  0.00  0.00    +0.278 A 
ATOM      8  O   UNL     1       0.494  -2.199  -2.984  0.00  0.00    -0.265 OA
ATOM      9  N   UNL     1      -0.389  -5.697  -0.016  0.00  0.00    -0.303 N 
ATOM     10  C   UNL     1      -0.122  -5.040   1.163  0.00  0.00    +0.017 C 
ATOM     11  C   UNL     1       0.075  -3.708   1.218  0.00  0.00    +0.024 C 
ATOM     12  C   UNL     1       0.344  -3.067   2.443  0.00  0.00    +0.162 C 
ATOM     13  O   UNL     1       0.538  -1.867   2.456  0.00  0.00    -0.292 OA
ATOM     14  C   UNL     1       0.396  -3.833   3.736  0.00  0.00    +0.080 C 
ATOM     15  C   UNL     1      -0.510  -5.063   3.619  0.00  0.00    +0.014 C 
ATOM     16  C   UNL     1      -0.049  -5.885   2.415  0.00  0.00    +0.051 C 
ATOM     17  H   UNL     1      -0.739  -6.601  -0.011  0.00  0.00    +0.153 HD
ENDROOT
BRANCH   1  23
ATOM     18  C   UNL     1      -1.200  -0.637   0.010  0.00  0.00    +0.124 A 
ATOM     19  C   UNL     1      -2.375   0.101   0.019  0.00  0.00    +0.046 A 
ATOM     20  C   UNL     1      -3.596  -0.545   0.027  0.00  0.00    +0.004 A 
ATOM     21  C   UNL     1      -3.648  -1.927   0.026  0.00  0.00    +0.001 A 
ATOM     22  C   UNL     1      -2.479  -2.665   0.017  0.00  0.00    +0.008 A 
ATOM     23  C   UNL     1      -1.255  -2.023   0.003  0.00  0.00    +0.006 A 
BRANCH  18  25
ATOM     24  C   UNL     1      -0.017   1.425   0.010  0.00  0.00    +0.277 C 
ATOM     25  O   UNL     1       0.002  -0.004   0.002  0.00  0.00    -0.495 OA
ENDBRANCH  18  25
ENDBRANCH   1  23
BRANCH   6  26
ATOM     26  C   UNL     1       0.370  -4.516  -4.713  0.00  0.00    +0.067 A 
ATOM     27  C   UNL     1       0.638  -3.364  -5.441  0.00  0.00    +0.028 A 
ATOM     28  C   UNL     1       0.801  -3.437  -6.811  0.00  0.00    +0.002 A 
ATOM     29  C   UNL     1       0.696  -4.655  -7.457  0.00  0.00    +0.000 A 
ATOM     30  C   UNL     1       0.429  -5.804  -6.736  0.00  0.00    +0.002 A 
ATOM     31  C   UNL     1       0.271  -5.739  -5.365  0.00  0.00    +0.028 A 
ENDBRANCH   6  26
TORSDOF 3
