REMARK  Name = ZINC01244712
REMARK  5 active torsions:
REMARK  status: ('A' for Active; 'I' for Inactive)
REMARK    1  A    between atoms: C_1  and  O_2
REMARK    2  A    between atoms: O_2  and  C_3
REMARK    3  A    between atoms: C_3  and  C_5
REMARK    4  A    between atoms: C_6  and  N_24
REMARK    5  A    between atoms: C_8  and  C_19
REMARK                            x       y       z     vdW  Elec       q    Type
REMARK                         _______ _______ _______ _____ _____    ______ ____
ROOT
ATOM      1  C   UNL     1       0.509  -1.745   1.006  0.00  0.00    +0.119 A 
ATOM      2  C   UNL     1       1.198  -2.509   1.927  0.00  0.00    +0.056 A 
ATOM      3  C   UNL     1       1.243  -3.946   1.734  0.00  0.00    +0.038 A 
ATOM      4  C   UNL     1       1.876  -4.940   2.540  0.00  0.00    +0.005 A 
ATOM      5  C   UNL     1       1.792  -6.285   2.162  0.00  0.00    -0.017 A 
ATOM      6  C   UNL     1       1.117  -6.632   1.017  0.00  0.00    +0.046 A 
ATOM      7  N   UNL     1       0.522  -5.697   0.282  0.00  0.00    -0.244 NA
ATOM      8  C   UNL     1       0.563  -4.422   0.592  0.00  0.00    +0.112 A 
ATOM      9  S   UNL     1      -0.106  -2.954  -0.150  0.00  0.00    -0.060 S 
ATOM     10  C   UNL     1       1.022  -8.053   0.527  0.00  0.00    +0.056 C 
ATOM     11  C   UNL     1       0.546  -8.986   1.643  0.00  0.00    +0.006 C 
ATOM     12  C   UNL     1       1.781  -9.564   2.327  0.00  0.00    +0.001 C 
ATOM     13  C   UNL     1       2.908  -8.529   2.311  0.00  0.00    +0.005 C 
ATOM     14  C   UNL     1       2.443  -7.293   3.078  0.00  0.00    +0.037 C 
ENDROOT
BRANCH   4  15
ATOM     15  C   UNL     1       2.610  -4.553   3.757  0.00  0.00    +0.020 A 
ATOM     16  C   UNL     1       2.120  -4.086   4.951  0.00  0.00    +0.016 A 
ATOM     17  C   UNL     1       3.008  -3.787   5.958  0.00  0.00    +0.008 A 
ATOM     18  C   UNL     1       4.339  -3.962   5.742  0.00  0.00    +0.046 A 
ATOM     19  S   UNL     1       4.369  -4.578   4.067  0.00  0.00    -0.097 S 
ENDBRANCH   4  15
BRANCH   2  20
ATOM     20  N   UNL     1       1.831  -1.917   3.011  0.00  0.00    -0.356 N 
ATOM     21  H   UNL     1       1.580  -1.022   3.290  0.00  0.00    +0.142 HD
ATOM     22  H   UNL     1       2.526  -2.397   3.489  0.00  0.00    +0.142 HD
ENDBRANCH   2  20
BRANCH   1  23
ATOM     23  C   UNL     1       0.329  -0.344   0.988  0.00  0.00    +0.348 C 
ATOM     24  O   UNL     1       0.817   0.344   1.867  0.00  0.00    -0.244 OA
BRANCH  23  26
ATOM     25  C   UNL     1      -0.525   1.654   0.042  0.00  0.00    +0.280 C 
ATOM     26  O   UNL     1      -0.384   0.233  -0.003  0.00  0.00    -0.464 OA
ENDBRANCH  23  26
ENDBRANCH   1  23
TORSDOF 4
