REMARK  Name = ZINC13640466
REMARK  8 active torsions:
REMARK  status: ('A' for Active; 'I' for Inactive)
REMARK    1  A    between atoms: C_1  and  C_2
REMARK    2  A    between atoms: C_2  and  N_3
REMARK    3  A    between atoms: N_3  and  C_4
REMARK    4  A    between atoms: C_4  and  C_5
REMARK    5  A    between atoms: C_6  and  C_8
REMARK    6  A    between atoms: C_21  and  C_24
REMARK    7  A    between atoms: C_27  and  O_31
REMARK    8  A    between atoms: C_29  and  O_30
REMARK                            x       y       z     vdW  Elec       q    Type
REMARK                         _______ _______ _______ _____ _____    ______ ____
ROOT
ATOM      1  C   UNL     1      -4.093   5.119   2.251  0.00  0.00    +0.037 A 
ATOM      2  C   UNL     1      -3.182   5.768   3.089  0.00  0.00    +0.015 A 
ATOM      3  C   UNL     1      -2.042   5.110   3.489  0.00  0.00    +0.024 A 
ATOM      4  C   UNL     1      -1.796   3.808   3.061  0.00  0.00    +0.031 A 
ATOM      5  C   UNL     1      -2.696   3.154   2.227  0.00  0.00    -0.019 A 
ATOM      6  C   UNL     1      -3.843   3.815   1.825  0.00  0.00    +0.019 A 
ATOM      7  C   UNL     1      -2.469   1.756   1.745  0.00  0.00    +0.049 C 
ATOM      8  C   UNL     1      -3.359   0.781   2.480  0.00  0.00    -0.023 C 
ATOM      9  C   UNL     1      -2.721  -0.344   2.692  0.00  0.00    -0.030 C 
ATOM     10  C   UNL     1      -1.321  -0.279   2.112  0.00  0.00    +0.033 C 
ATOM     11  C   UNL     1      -1.040   1.250   2.021  0.00  0.00    +0.029 C 
ATOM     12  C   UNL     1      -0.582   1.712   3.407  0.00  0.00    +0.108 C 
ATOM     13  N   UNL     1      -0.636   3.162   3.482  0.00  0.00    -0.336 N 
ATOM     14  H   UNL     1       0.123   3.668   3.812  0.00  0.00    +0.147 HD
ENDROOT
BRANCH  12  15
ATOM     15  C   UNL     1      -1.500   1.143   4.458  0.00  0.00    +0.015 A 
ATOM     16  C   UNL     1      -2.655   1.818   4.805  0.00  0.00    +0.012 A 
ATOM     17  C   UNL     1      -3.499   1.298   5.768  0.00  0.00    +0.046 A 
ATOM     18  C   UNL     1      -3.189   0.096   6.388  0.00  0.00    +0.120 A 
ATOM     19  C   UNL     1      -2.031  -0.583   6.042  0.00  0.00    +0.091 A 
ATOM     20  C   UNL     1      -1.188  -0.062   5.072  0.00  0.00    +0.125 A 
BRANCH  20  21
ATOM     21  O   UNL     1      -0.056  -0.728   4.726  0.00  0.00    -0.506 OA
ATOM     22  H   UNL     1       0.719  -0.487   5.252  0.00  0.00    +0.292 HD
ENDBRANCH  20  21
BRANCH  18  23
ATOM     23  O   UNL     1      -4.019  -0.414   7.335  0.00  0.00    -0.507 OA
ATOM     24  H   UNL     1      -4.704  -1.000   6.984  0.00  0.00    +0.292 HD
ENDBRANCH  18  23
ENDBRANCH  12  15
BRANCH   1  26
ATOM     25  N   UNL     1      -6.031   6.543   2.700  0.00  0.00    -0.298 N 
ATOM     26  C   UNL     1      -5.320   5.815   1.816  0.00  0.00    +0.247 C 
ATOM     27  O   UNL     1      -5.689   5.731   0.661  0.00  0.00    -0.270 OA
BRANCH  25  29
ATOM     28  C   UNL     1      -4.828   8.117   4.133  0.00  0.00    +0.024 C 
ATOM     29  C   UNL     1      -5.518   6.754   4.056  0.00  0.00    +0.104 C 
ENDBRANCH  25  29
BRANCH  25  30
ATOM     30  C   UNL     1      -7.316   7.123   2.304  0.00  0.00    +0.104 C 
ATOM     31  C   UNL     1      -8.439   6.130   2.608  0.00  0.00    +0.024 C 
ENDBRANCH  25  30
ENDBRANCH   1  26
TORSDOF 6
