REMARK  Name = ZINC12416330
REMARK  5 active torsions:
REMARK  status: ('A' for Active; 'I' for Inactive)
REMARK    1  A    between atoms: C_1  and  C_2
REMARK    2  A    between atoms: C_3  and  C_29
REMARK    3  A    between atoms: C_4  and  C_20
REMARK    4  A    between atoms: C_10  and  C_15
REMARK    5  A    between atoms: N_31  and  C_32
REMARK                            x       y       z     vdW  Elec       q    Type
REMARK                         _______ _______ _______ _____ _____    ______ ____
ROOT
ATOM      1  C   UNL     1      -5.965   1.644  -0.028  0.00  0.00    +0.061 C 
ATOM      2  C   UNL     1      -5.994   3.147  -0.137  0.00  0.00    +0.029 C 
ATOM      3  C   UNL     1      -4.841   3.836  -0.151  0.00  0.00    +0.131 C 
ATOM      4  C   UNL     1      -4.832   5.335  -0.243  0.00  0.00    +0.072 C 
ATOM      5  C   UNL     1      -6.155   5.851  -0.755  0.00  0.00    +0.025 C 
ATOM      6  C   UNL     1      -7.260   5.076  -0.709  0.00  0.00    +0.049 C 
ATOM      7  N   UNL     1      -7.193   3.799  -0.222  0.00  0.00    -0.260 NA
ATOM      8  C   UNL     1      -8.592   5.594  -1.192  0.00  0.00    +0.065 C 
ATOM      9  C   UNL     1      -8.366   6.590  -2.338  0.00  0.00    +0.039 C 
ATOM     10  C   UNL     1      -7.486   7.730  -1.817  0.00  0.00    +0.088 C 
ATOM     11  C   UNL     1      -6.204   7.154  -1.280  0.00  0.00    +0.162 C 
ATOM     12  O   UNL     1      -5.193   7.828  -1.298  0.00  0.00    -0.292 OA
ENDROOT
BRANCH   4  13
ATOM     13  C   UNL     1      -4.562   5.920   1.120  0.00  0.00    -0.035 A 
ATOM     14  C   UNL     1      -5.426   5.655   2.167  0.00  0.00    +0.008 A 
ATOM     15  C   UNL     1      -5.183   6.189   3.419  0.00  0.00    +0.050 A 
ATOM     16  C   UNL     1      -4.073   6.992   3.627  0.00  0.00    +0.166 A 
ATOM     17  C   UNL     1      -3.204   7.258   2.572  0.00  0.00    +0.167 A 
ATOM     18  C   UNL     1      -3.450   6.715   1.322  0.00  0.00    +0.053 A 
ATOM     19  O   UNL     1      -2.199   8.063   3.027  0.00  0.00    -0.453 OA
ATOM     20  C   UNL     1      -2.239   7.953   4.462  0.00  0.00    +0.466 C 
ATOM     21  O   UNL     1      -3.614   7.630   4.743  0.00  0.00    -0.453 OA
ENDBRANCH   4  13
BRANCH   9  22
ATOM     22  C   UNL     1      -9.692   7.138  -2.799  0.00  0.00    -0.006 A 
ATOM     23  C   UNL     1     -10.265   7.069  -4.025  0.00  0.00    +0.011 A 
ATOM     24  C   UNL     1     -11.504   7.651  -4.221  0.00  0.00    +0.008 A 
ATOM     25  C   UNL     1     -12.109   8.273  -3.180  0.00  0.00    +0.045 A 
ATOM     26  S   UNL     1     -10.920   8.041  -1.868  0.00  0.00    -0.101 S 
ENDBRANCH   9  22
BRANCH   3  27
ATOM     27  C   UNL     1      -3.612   3.137  -0.067  0.00  0.00    +0.227 C 
ATOM     28  O   UNL     1      -3.602   1.920  -0.080  0.00  0.00    -0.275 OA
ATOM     29  N   UNL     1      -2.454   3.820   0.026  0.00  0.00    -0.285 N 
ATOM     30  H   UNL     1      -2.465   4.787   0.102  0.00  0.00    +0.155 HD
BRANCH  29  31
ATOM     31  C   UNL     1      -1.235   3.134   0.014  0.00  0.00    +0.033 A 
ATOM     32  C   UNL     1      -0.122   3.703  -0.591  0.00  0.00    +0.023 A 
ATOM     33  C   UNL     1       1.078   3.020  -0.607  0.00  0.00    +0.002 A 
ATOM     34  C   UNL     1       1.176   1.777  -0.010  0.00  0.00    +0.000 A 
ATOM     35  C   UNL     1       0.071   1.210   0.600  0.00  0.00    +0.002 A 
ATOM     36  C   UNL     1      -1.133   1.885   0.614  0.00  0.00    +0.023 A 
ENDBRANCH  29  31
ENDBRANCH   3  27
TORSDOF 4
