REMARK  Name = ZINC01638970
REMARK  1 active torsions:
REMARK  status: ('A' for Active; 'I' for Inactive)
REMARK    1  A    between atoms: C_4  and  C_7
REMARK                            x       y       z     vdW  Elec       q    Type
REMARK                         _______ _______ _______ _____ _____    ______ ____
ROOT
ATOM      1  C   UNL     1       2.877   3.372  -1.744  0.00  0.00    +0.240 C 
ATOM      2  C   UNL     1       3.575   2.229  -1.038  0.00  0.00    +0.028 A 
ATOM      3  C   UNL     1       4.958   2.035  -1.058  0.00  0.00    +0.017 A 
ATOM      4  C   UNL     1       5.508   0.966  -0.437  0.00  0.00    +0.047 A 
ATOM      5  S   UNL     1       4.069   0.154   0.245  0.00  0.00    -0.079 S 
ATOM      6  C   UNL     1       2.857   1.299  -0.336  0.00  0.00    +0.092 A 
ATOM      7  N   UNL     1       1.481   1.336  -0.167  0.00  0.00    -0.305 N 
ATOM      8  C   UNL     1       0.526   0.397  -0.223  0.00  0.00    +0.092 A 
ATOM      9  C   UNL     1      -0.678   0.982   0.019  0.00  0.00    +0.020 A 
ATOM     10  C   UNL     1      -0.458   2.348   0.243  0.00  0.00    +0.035 A 
ATOM     11  C   UNL     1       0.888   2.562   0.122  0.00  0.00    +0.132 A 
ATOM     12  C   UNL     1       1.677   3.781   0.246  0.00  0.00    +0.357 C 
ATOM     13  O   UNL     1       1.788   4.318   1.332  0.00  0.00    -0.243 OA
ATOM     14  O   UNL     1       2.294   4.326  -0.844  0.00  0.00    -0.447 OA
ENDROOT
BRANCH   1  18
ATOM     15  C   UNL     1      -0.205   1.770  -4.229  0.00  0.00    +0.000 A 
ATOM     16  C   UNL     1      -0.471   2.849  -3.407  0.00  0.00    +0.000 A 
ATOM     17  C   UNL     1       0.526   3.367  -2.603  0.00  0.00    +0.007 A 
ATOM     18  C   UNL     1       1.790   2.807  -2.620  0.00  0.00    -0.003 A 
ATOM     19  C   UNL     1       2.057   1.731  -3.447  0.00  0.00    +0.007 A 
ATOM     20  C   UNL     1       1.058   1.210  -4.248  0.00  0.00    +0.000 A 
ENDBRANCH   1  18
TORSDOF 1
