REMARK  Name = ZINC67496944
REMARK  10 active torsions:
REMARK  status: ('A' for Active; 'I' for Inactive)
REMARK    1  A    between atoms: C_1  and  C_2
REMARK    2  A    between atoms: C_9  and  N_12
REMARK    3  A    between atoms: C_13  and  C_15
REMARK    4  A    between atoms: N_17  and  C_18
REMARK    5  A    between atoms: C_18  and  C_19
REMARK    6  A    between atoms: C_19  and  C_21
REMARK    7  A    between atoms: C_19  and  N_24
REMARK    8  A    between atoms: C_21  and  C_22
REMARK    9  A    between atoms: C_21  and  C_23
REMARK   10  A    between atoms: C_27  and  C_30
REMARK                            x       y       z     vdW  Elec       q    Type
REMARK                         _______ _______ _______ _____ _____    ______ ____
ROOT
ATOM      1  C   UNL     1       1.470  -0.421   7.138  0.00  0.00    +0.299 C 
ATOM      2  O   UNL     1       0.503  -0.128   6.466  0.00  0.00    -0.265 OA
ATOM      3  N   UNL     1       1.381  -1.403   8.056  0.00  0.00    -0.309 N 
ATOM      4  H   UNL     1       2.154  -1.637   8.594  0.00  0.00    +0.149 HD
ENDROOT
BRANCH   1   6
ATOM      5  N   UNL     1       2.849   1.291   6.030  0.00  0.00    -0.276 N 
ATOM      6  C   UNL     1       2.760   0.308   6.949  0.00  0.00    +0.303 C 
ATOM      7  O   UNL     1       3.727   0.016   7.621  0.00  0.00    -0.265 OA
ATOM      8  H   UNL     1       2.058   1.575   5.546  0.00  0.00    +0.155 HD
BRANCH   5  17
ATOM      9  C   UNL     1       1.761   5.822   4.204  0.00  0.00    +0.065 C 
ATOM     10  C   UNL     1       3.053   5.101   4.487  0.00  0.00    +0.039 A 
ATOM     11  C   UNL     1       4.261   5.742   4.219  0.00  0.00    +0.023 A 
ATOM     12  C   UNL     1       5.441   5.103   4.470  0.00  0.00    +0.012 A 
ATOM     13  C   UNL     1       5.392   3.799   4.999  0.00  0.00    +0.002 A 
ATOM     14  C   UNL     1       6.566   3.082   5.282  0.00  0.00    +0.010 A 
ATOM     15  C   UNL     1       6.486   1.822   5.793  0.00  0.00    +0.003 A 
ATOM     16  C   UNL     1       5.253   1.227   6.042  0.00  0.00    +0.025 A 
ATOM     17  C   UNL     1       4.079   1.899   5.777  0.00  0.00    +0.060 A 
ATOM     18  C   UNL     1       4.130   3.207   5.247  0.00  0.00    +0.092 A 
ATOM     19  N   UNL     1       3.012   3.888   4.984  0.00  0.00    -0.250 NA
ENDBRANCH   5  17
ENDBRANCH   1   6
BRANCH   3  20
ATOM     20  C   UNL     1       0.116  -2.119   8.243  0.00  0.00    +0.089 C 
BRANCH  20  21
ATOM     21  C   UNL     1       0.237  -3.066   9.438  0.00  0.00    -0.049 C 
BRANCH  21  22
ATOM     22  N   UNL     1       1.444  -3.889   9.290  0.00  0.00    +0.383 N 
ATOM     23  C   UNL     1       1.411  -4.574   7.992  0.00  0.00    -0.078 C 
ATOM     24  C   UNL     1       2.704  -5.369   7.798  0.00  0.00    -0.016 C 
ATOM     25  C   UNL     1       2.834  -6.404   8.920  0.00  0.00    -0.018 C 
ATOM     26  C   UNL     1       2.792  -5.685  10.271  0.00  0.00    -0.016 C 
ATOM     27  C   UNL     1       1.496  -4.878  10.374  0.00  0.00    -0.078 C 
ATOM     28  C   UNL     1       4.163  -7.149   8.777  0.00  0.00    +0.007 C 
ATOM     29  H   UNL     1       2.261  -3.298   9.336  0.00  0.00    -0.081 HD
ENDBRANCH  21  22
BRANCH  21  30
ATOM     30  C   UNL     1       0.332  -2.249  10.729  0.00  0.00    -0.029 C 
ATOM     31  C   UNL     1       1.498  -1.264  10.624  0.00  0.00    +0.005 C 
ATOM     32  C   UNL     1      -0.972  -1.475  10.939  0.00  0.00    +0.005 C 
ENDBRANCH  21  30
ENDBRANCH  20  21
ENDBRANCH   3  20
TORSDOF 6
