REMARK  Name = ZINC64074615
REMARK  8 active torsions:
REMARK  status: ('A' for Active; 'I' for Inactive)
REMARK    1  A    between atoms: C_1  and  C_2
REMARK    2  A    between atoms: C_6  and  C_8
REMARK    3  A    between atoms: N_22  and  C_23
REMARK    4  A    between atoms: C_23  and  C_24
REMARK    5  A    between atoms: C_28  and  O_30
REMARK    6  A    between atoms: O_30  and  C_31
REMARK    7  A    between atoms: C_31  and  C_32
REMARK    8  A    between atoms: C_32  and  O_33
REMARK                            x       y       z     vdW  Elec       q    Type
REMARK                         _______ _______ _______ _____ _____    ______ ____
ROOT
ATOM      1  C   UNL     1       0.042  -2.688   2.545  0.00  0.00    +0.132 C 
ATOM      2  C   UNL     1       1.298  -2.290   3.325  0.00  0.00    +0.129 C 
ATOM      3  C   UNL     1       2.482  -2.830   2.530  0.00  0.00    -0.035 C 
ATOM      4  C   UNL     1       3.290  -1.801   2.316  0.00  0.00    -0.001 A 
ATOM      5  C   UNL     1       4.618  -1.710   1.688  0.00  0.00    +0.010 A 
ATOM      6  C   UNL     1       5.167  -0.468   1.622  0.00  0.00    +0.001 A 
ATOM      7  C   UNL     1       4.535   0.679   2.112  0.00  0.00    +0.002 A 
ATOM      8  C   UNL     1       3.317   0.687   2.711  0.00  0.00    +0.026 A 
ATOM      9  C   UNL     1       2.643  -0.561   2.844  0.00  0.00    +0.043 A 
ATOM     10  N   UNL     1       1.479  -0.841   3.399  0.00  0.00    -0.376 N 
ATOM     11  C   UNL     1       2.532  -4.263   2.058  0.00  0.00    +0.049 C 
ATOM     12  C   UNL     1       1.165  -4.550   1.410  0.00  0.00    +0.090 C 
ATOM     13  N   UNL     1       0.082  -4.140   2.311  0.00  0.00    -0.288 NA
ATOM     14  H   UNL     1       0.852  -0.210   3.784  0.00  0.00    +0.160 HD
ENDROOT
BRANCH   1  20
ATOM     15  C   UNL     1       2.338  -1.412  -1.569  0.00  0.00    +0.065 C 
ATOM     16  C   UNL     1       1.096  -1.358  -0.716  0.00  0.00    +0.039 A 
ATOM     17  C   UNL     1      -0.009  -0.658  -1.162  0.00  0.00    +0.023 A 
ATOM     18  C   UNL     1      -1.146  -0.615  -0.371  0.00  0.00    +0.004 A 
ATOM     19  C   UNL     1      -1.129  -1.281   0.846  0.00  0.00    +0.025 A 
ATOM     20  C   UNL     1       0.013  -1.960   1.225  0.00  0.00    +0.061 A 
ATOM     21  N   UNL     1       1.075  -1.984   0.444  0.00  0.00    -0.255 NA
ENDBRANCH   1  20
BRANCH  13  22
ATOM     22  C   UNL     1      -1.217  -4.632   1.833  0.00  0.00    +0.120 C 
BRANCH  22  23
ATOM     23  C   UNL     1      -1.271  -6.131   1.980  0.00  0.00    -0.030 A 
ATOM     24  C   UNL     1      -0.838  -6.943   0.948  0.00  0.00    +0.005 A 
ATOM     25  C   UNL     1      -0.887  -8.318   1.081  0.00  0.00    +0.004 A 
ATOM     26  C   UNL     1      -1.369  -8.884   2.245  0.00  0.00    +0.045 A 
ATOM     27  C   UNL     1      -1.804  -8.072   3.282  0.00  0.00    +0.121 A 
ATOM     28  C   UNL     1      -1.748  -6.692   3.149  0.00  0.00    +0.050 A 
BRANCH  27  29
ATOM     29  O   UNL     1      -2.278  -8.627   4.428  0.00  0.00    -0.490 OA
BRANCH  29  30
ATOM     30  C   UNL     1      -2.301 -10.054   4.497  0.00  0.00    +0.256 C 
BRANCH  30  31
ATOM     31  C   UNL     1      -2.862 -10.490   5.852  0.00  0.00    +0.196 C 
BRANCH  31  32
ATOM     32  O   UNL     1      -4.229 -10.085   5.954  0.00  0.00    -0.392 OA
ATOM     33  H   UNL     1      -4.650 -10.329   6.789  0.00  0.00    +0.210 HD
ENDBRANCH  31  32
ENDBRANCH  30  31
ENDBRANCH  29  30
ENDBRANCH  27  29
ENDBRANCH  22  23
ENDBRANCH  13  22
TORSDOF 7
