REMARK  Name = ZINC64136994
REMARK  7 active torsions:
REMARK  status: ('A' for Active; 'I' for Inactive)
REMARK    1  A    between atoms: C_1  and  C_2
REMARK    2  A    between atoms: C_2  and  C_3
REMARK    3  A    between atoms: C_6  and  C_9
REMARK    4  A    between atoms: C_9  and  C_26
REMARK    5  A    between atoms: N_10  and  N_11
REMARK    6  A    between atoms: C_12  and  C_14
REMARK    7  A    between atoms: C_16  and  C_25
REMARK                            x       y       z     vdW  Elec       q    Type
REMARK                         _______ _______ _______ _____ _____    ______ ____
ROOT
ATOM      1  N   UNL     1       2.675  -2.528  -6.970  0.00  0.00    -0.205 N 
ATOM      2  C   UNL     1       1.975  -2.752  -8.099  0.00  0.00    +0.259 C 
ATOM      3  O   UNL     1       0.777  -2.561  -8.118  0.00  0.00    -0.271 OA
ATOM      4  H   UNL     1       3.633  -2.681  -6.954  0.00  0.00    +0.177 HD
ENDROOT
BRANCH   2   5
ATOM      5  C   UNL     1       2.680  -3.239  -9.339  0.00  0.00    +0.194 C 
ATOM      6  C   UNL     1       2.900  -4.733  -9.261  0.00  0.00    -0.033 C 
ATOM      7  C   UNL     1       2.232  -5.265 -10.310  0.00  0.00    +0.000 A 
ATOM      8  C   UNL     1       2.059  -6.644 -10.782  0.00  0.00    +0.025 A 
ATOM      9  C   UNL     1       1.317  -6.869 -11.891  0.00  0.00    +0.019 A 
ATOM     10  C   UNL     1       0.712  -5.821 -12.599  0.00  0.00    +0.017 A 
ATOM     11  C   UNL     1       0.826  -4.528 -12.227  0.00  0.00    +0.027 A 
ATOM     12  C   UNL     1       1.583  -4.176 -11.075  0.00  0.00    +0.043 A 
ATOM     13  N   UNL     1       1.839  -3.015 -10.520  0.00  0.00    -0.370 N 
ATOM     14 BR   UNL     1       1.090  -8.644 -12.503  0.00  0.00    -0.050 Br
ATOM     15  C   UNL     1       3.700  -5.479  -8.224  0.00  0.00    +0.042 C 
ATOM     16  H   UNL     1       1.526  -2.153 -10.836  0.00  0.00    +0.161 HD
ENDBRANCH   2   5
BRANCH   1  18
ATOM     17  C   UNL     1       2.694  -1.860  -4.730  0.00  0.00    +0.063 C 
ATOM     18  N   UNL     1       2.020  -2.075  -5.817  0.00  0.00    -0.184 NA
ATOM     19  C   UNL     1       4.182  -2.097  -4.706  0.00  0.00    +0.068 C 
BRANCH  17  23
ATOM     20  C   UNL     1       0.707  -0.490  -1.238  0.00  0.00    -0.048 A 
ATOM     21  C   UNL     1      -0.014  -0.718  -2.396  0.00  0.00    +0.004 A 
ATOM     22  C   UNL     1       0.625  -1.163  -3.535  0.00  0.00    +0.010 A 
ATOM     23  C   UNL     1       2.004  -1.384  -3.516  0.00  0.00    -0.003 A 
ATOM     24  C   UNL     1       2.726  -1.151  -2.344  0.00  0.00    +0.010 A 
ATOM     25  C   UNL     1       2.075  -0.701  -1.214  0.00  0.00    +0.004 A 
BRANCH  20  27
ATOM     26  C   UNL     1      -0.019   1.526   0.010  0.00  0.00    +0.009 C 
ATOM     27  C   UNL     1       0.002  -0.004   0.002  0.00  0.00    +0.032 C 
ENDBRANCH  20  27
ENDBRANCH  17  23
ENDBRANCH   1  18
TORSDOF 4
