REMARK  Name = ZINC02455620
REMARK  6 active torsions:
REMARK  status: ('A' for Active; 'I' for Inactive)
REMARK    1  A    between atoms: C_1  and  C_2
REMARK    2  A    between atoms: C_5  and  S_8
REMARK    3  A    between atoms: S_8  and  N_11
REMARK    4  A    between atoms: N_13  and  C_20
REMARK    5  A    between atoms: C_15  and  C_17
REMARK    6  A    between atoms: C_20  and  C_21
REMARK                            x       y       z     vdW  Elec       q    Type
REMARK                         _______ _______ _______ _____ _____    ______ ____
ROOT
ATOM      1  N   UNL     1       1.394  -4.804  -0.250  0.00  0.00    -0.103 NA
ATOM      2  C   UNL     1       1.842  -6.019  -0.069  0.00  0.00    +0.196 A 
ATOM      3  N   UNL     1       1.137  -7.202   0.048  0.00  0.00    -0.305 N 
ATOM      4  C   UNL     1       1.810  -8.348   0.232  0.00  0.00    +0.129 A 
ATOM      5  C   UNL     1       3.174  -8.328   0.301  0.00  0.00    +0.090 A 
ATOM      6  S   UNL     1       3.527  -6.590   0.086  0.00  0.00    -0.044 S 
ATOM      7 CL   UNL     1       0.951  -9.849   0.383  0.00  0.00    -0.062 Cl
ENDROOT
BRANCH   1   8
ATOM      8  S   UNL     1      -0.213  -4.471  -0.025  0.00  0.00    +0.101 S 
ATOM      9  O   UNL     1      -0.509  -4.796   1.327  0.00  0.00    -0.146 OA
ATOM     10  O   UNL     1      -0.906  -5.057  -1.118  0.00  0.00    -0.146 OA
BRANCH   8  15
ATOM     11  C   UNL     1      -0.893   1.501  -0.551  0.00  0.00    +0.044 C 
ATOM     12  C   UNL     1      -0.723   0.009  -0.419  0.00  0.00    -0.050 A 
ATOM     13  C   UNL     1      -0.835  -0.800  -1.534  0.00  0.00    +0.005 A 
ATOM     14  C   UNL     1      -0.679  -2.168  -1.414  0.00  0.00    +0.029 A 
ATOM     15  C   UNL     1      -0.411  -2.727  -0.178  0.00  0.00    +0.113 A 
ATOM     16  C   UNL     1      -0.298  -1.918   0.936  0.00  0.00    +0.029 A 
ATOM     17  C   UNL     1      -0.449  -0.549   0.815  0.00  0.00    +0.005 A 
ENDBRANCH   8  15
ENDBRANCH   1   8
BRANCH   5  18
ATOM     18  C   UNL     1       4.069  -9.399   0.488  0.00  0.00    +0.269 C 
ATOM     19  O   UNL     1       5.266  -9.192   0.523  0.00  0.00    -0.295 OA
ENDBRANCH   5  18
BRANCH   3  20
ATOM     20  C   UNL     1      -0.327  -7.205  -0.028  0.00  0.00    +0.152 C 
BRANCH  20  21
ATOM     21  C   UNL     1      -0.755  -7.350  -1.465  0.00  0.00    -0.013 C 
ATOM     22  C   UNL     1      -1.599  -8.292  -1.805  0.00  0.00    +0.005 C 
ENDBRANCH  20  21
ENDBRANCH   3  20
TORSDOF 5
