REMARK  Name = ZINC19818998
REMARK  9 active torsions:
REMARK  status: ('A' for Active; 'I' for Inactive)
REMARK    1  A    between atoms: C_1  and  C_2
REMARK    2  A    between atoms: C_4  and  N_26
REMARK    3  A    between atoms: C_7  and  S_8
REMARK    4  A    between atoms: S_8  and  N_11
REMARK    5  A    between atoms: N_11  and  C_12
REMARK    6  A    between atoms: C_12  and  C_13
REMARK    7  A    between atoms: C_13  and  C_15
REMARK    8  A    between atoms: C_13  and  N_20
REMARK    9  A    between atoms: C_29  and  C_35
REMARK                            x       y       z     vdW  Elec       q    Type
REMARK                         _______ _______ _______ _____ _____    ______ ____
ROOT
ATOM      1  S   UNL     1       6.105   1.513   2.907  0.00  0.00    +0.059 S 
ATOM      2  O   UNL     1       7.369   0.878   2.765  0.00  0.00    -0.153 OA
ATOM      3  O   UNL     1       5.971   2.920   3.046  0.00  0.00    -0.153 OA
ENDROOT
BRANCH   1  10
ATOM      4  C   UNL     1       5.892  -1.464   3.385  0.00  0.00    +0.046 C 
ATOM      5  C   UNL     1       5.286  -0.585   4.449  0.00  0.00    -0.022 A 
ATOM      6  C   UNL     1       4.682  -1.154   5.553  0.00  0.00    +0.030 A 
ATOM      7  C   UNL     1       4.124  -0.343   6.532  0.00  0.00    +0.060 A 
ATOM      8  C   UNL     1       4.174   1.039   6.397  0.00  0.00    +0.027 A 
ATOM      9  C   UNL     1       4.783   1.601   5.293  0.00  0.00    +0.030 A 
ATOM     10  C   UNL     1       5.334   0.791   4.317  0.00  0.00    +0.108 A 
BRANCH   7  11
ATOM     11  N   UNL     1       3.512  -0.916   7.652  0.00  0.00    -0.144 N 
ATOM     12  C   UNL     1       2.969  -2.141   7.715  0.00  0.00    +0.243 C 
ATOM     13  O   UNL     1       3.002  -2.884   6.756  0.00  0.00    -0.273 OA
ATOM     14  C   UNL     1       2.324  -2.573   8.997  0.00  0.00    +0.097 C 
ATOM     15  C   UNL     1       2.837  -1.662  10.143  0.00  0.00    +0.201 C 
ATOM     16  S   UNL     1       3.322  -0.191   9.150  0.00  0.00    +0.053 S 
ATOM     17  O   UNL     1       4.614   0.268   9.521  0.00  0.00    -0.155 OA
ATOM     18  O   UNL     1       2.230   0.707   9.006  0.00  0.00    -0.155 OA
ATOM     19  C   UNL     1       0.805  -2.440   8.873  0.00  0.00    +0.019 C 
ENDBRANCH   7  11
ENDBRANCH   1  10
BRANCH   1  20
ATOM     20  N   UNL     1       5.208   1.081   1.583  0.00  0.00    -0.188 NA
ATOM     21  H   UNL     1       5.598   0.315   0.896  0.00  0.00    +0.148 HD
BRANCH  20  22
ATOM     22  C   UNL     1       3.826   1.548   1.451  0.00  0.00    +0.132 C 
BRANCH  22  23
ATOM     23  C   UNL     1       3.366   1.376   0.002  0.00  0.00    +0.139 C 
BRANCH  23  24
ATOM     24  N   UNL     1       4.304   2.063  -0.894  0.00  0.00    -0.287 NA
ATOM     25  C   UNL     1       4.427   3.485  -0.539  0.00  0.00    +0.113 C 
ATOM     26  C   UNL     1       5.457   4.148  -1.458  0.00  0.00    +0.175 C 
ATOM     27  O   UNL     1       5.063   3.962  -2.820  0.00  0.00    -0.377 OA
ATOM     28  C   UNL     1       4.934   2.590  -3.200  0.00  0.00    +0.175 C 
ATOM     29  C   UNL     1       3.899   1.911  -2.299  0.00  0.00    +0.113 C 
ENDBRANCH  23  24
BRANCH  23  30
ATOM     30  C   UNL     1       1.990   1.968  -0.162  0.00  0.00    +0.123 A 
ATOM     31  C   UNL     1       0.850   1.274  -0.332  0.00  0.00    +0.046 A 
ATOM     32  C   UNL     1      -0.193   2.222  -0.449  0.00  0.00    +0.041 A 
ATOM     33  C   UNL     1       0.371   3.438  -0.333  0.00  0.00    +0.195 A 
ATOM     34  O   UNL     1       1.693   3.278  -0.163  0.00  0.00    -0.466 OA
ENDBRANCH  23  30
ENDBRANCH  22  23
ENDBRANCH  20  22
ENDBRANCH   1  20
TORSDOF 7
