REMARK  Name = ZINC59516365
REMARK  6 active torsions:
REMARK  status: ('A' for Active; 'I' for Inactive)
REMARK    1  A    between atoms: C_1  and  C_2
REMARK    2  A    between atoms: C_2  and  C_24
REMARK    3  A    between atoms: N_3  and  N_4
REMARK    4  A    between atoms: C_5  and  S_7
REMARK    5  A    between atoms: S_7  and  C_8
REMARK    6  A    between atoms: N_13  and  C_16
REMARK                            x       y       z     vdW  Elec       q    Type
REMARK                         _______ _______ _______ _____ _____    ______ ____
ROOT
ATOM      1  N   UNL     1      -1.214  -3.887   0.419  0.00  0.00    -0.217 N 
ATOM      2  C   UNL     1      -1.470  -3.737   1.764  0.00  0.00    +0.146 C 
ATOM      3  N   UNL     1      -0.848  -2.815   2.447  0.00  0.00    -0.380 N 
ATOM      4  H   UNL     1      -1.676  -4.572  -0.089  0.00  0.00    +0.176 HD
ATOM      5  H   UNL     1      -1.028  -2.709   3.394  0.00  0.00    +0.158 HD
ATOM      6  H   UNL     1      -0.206  -2.236   2.007  0.00  0.00    +0.158 HD
ENDROOT
BRANCH   1   9
ATOM      7  C   UNL     1       0.987  -2.348  -2.164  0.00  0.00    +0.068 C 
ATOM      8  C   UNL     1      -0.131  -3.113  -1.502  0.00  0.00    +0.063 C 
ATOM      9  N   UNL     1      -0.286  -3.050  -0.216  0.00  0.00    -0.185 NA
BRANCH   8  10
ATOM     10  C   UNL     1      -1.047  -3.932  -2.317  0.00  0.00    -0.002 A 
ATOM     11  C   UNL     1      -2.414  -3.952  -2.029  0.00  0.00    +0.011 A 
ATOM     12  C   UNL     1      -3.266  -4.720  -2.795  0.00  0.00    +0.020 A 
ATOM     13  C   UNL     1      -2.769  -5.469  -3.849  0.00  0.00    +0.041 A 
ATOM     14  C   UNL     1      -1.415  -5.453  -4.140  0.00  0.00    +0.020 A 
ATOM     15  C   UNL     1      -0.553  -4.685  -3.385  0.00  0.00    +0.011 A 
ATOM     16 CL   UNL     1      -3.848  -6.433  -4.808  0.00  0.00    -0.084 Cl
ENDBRANCH   8  10
ENDBRANCH   1   9
BRANCH   2  17
ATOM     17  S   UNL     1      -2.636  -4.789   2.562  0.00  0.00    -0.078 S 
BRANCH  17  18
ATOM     18  C   UNL     1      -2.631  -4.222   4.285  0.00  0.00    +0.149 C 
ATOM     19  C   UNL     1      -3.667  -5.006   5.117  0.00  0.00    +0.120 C 
ATOM     20  C   UNL     1      -2.827  -5.700   6.166  0.00  0.00    +0.228 C 
ATOM     21  O   UNL     1      -3.252  -6.430   7.036  0.00  0.00    -0.275 OA
ATOM     22  N   UNL     1      -1.540  -5.382   5.981  0.00  0.00    -0.209 N 
ATOM     23  C   UNL     1      -1.313  -4.553   4.950  0.00  0.00    +0.240 C 
ATOM     24  O   UNL     1      -0.228  -4.136   4.605  0.00  0.00    -0.274 OA
BRANCH  22  25
ATOM     25  C   UNL     1      -0.511  -5.872   6.800  0.00  0.00    +0.045 A 
ATOM     26  C   UNL     1      -0.053  -5.115   7.869  0.00  0.00    +0.025 A 
ATOM     27  C   UNL     1       0.959  -5.600   8.674  0.00  0.00    +0.023 A 
ATOM     28  C   UNL     1       1.517  -6.839   8.416  0.00  0.00    +0.059 A 
ATOM     29  C   UNL     1       1.062  -7.597   7.349  0.00  0.00    +0.061 A 
ATOM     30  C   UNL     1       0.045  -7.117   6.544  0.00  0.00    +0.045 A 
ATOM     31 CL   UNL     1       1.764  -9.151   7.027  0.00  0.00    -0.082 Cl
ATOM     32 CL   UNL     1       2.790  -7.445   9.429  0.00  0.00    -0.082 Cl
ENDBRANCH  22  25
ENDBRANCH  17  18
ENDBRANCH   2  17
TORSDOF 5
