REMARK  Name = ZINC21024458
REMARK  11 active torsions:
REMARK  status: ('A' for Active; 'I' for Inactive)
REMARK    1  A    between atoms: C_1  and  C_2
REMARK    2  A    between atoms: C_5  and  C_29
REMARK    3  A    between atoms: C_6  and  C_8
REMARK    4  A    between atoms: C_8  and  N_9
REMARK    5  A    between atoms: C_10  and  C_28
REMARK    6  A    between atoms: C_11  and  C_18
REMARK    7  A    between atoms: C_12  and  C_15
REMARK    8  A    between atoms: C_13  and  C_14
REMARK    9  A    between atoms: C_18  and  N_19
REMARK   10  A    between atoms: N_19  and  C_20
REMARK   11  A    between atoms: C_20  and  C_21
REMARK                            x       y       z     vdW  Elec       q    Type
REMARK                         _______ _______ _______ _____ _____    ______ ____
ROOT
ATOM      1  N   UNL     1      -5.399   0.627   4.501  0.00  0.00    -0.343 N 
ATOM      2  C   UNL     1      -5.126   1.808   3.875  0.00  0.00    +0.018 A 
ATOM      3  C   UNL     1      -4.330   1.570   2.818  0.00  0.00    -0.030 A 
ATOM      4  C   UNL     1      -4.101   0.121   2.789  0.00  0.00    +0.085 A 
ATOM      5  C   UNL     1      -4.791  -0.393   3.866  0.00  0.00    +0.031 A 
ATOM      6  C   UNL     1      -4.857  -1.845   4.262  0.00  0.00    +0.064 C 
ATOM      7  C   UNL     1      -5.633   3.161   4.301  0.00  0.00    +0.064 C 
ENDROOT
BRANCH   4   8
ATOM      8  C   UNL     1      -3.296  -0.629   1.813  0.00  0.00    +0.388 C 
ATOM      9  O   UNL     1      -2.112  -0.817   2.017  0.00  0.00    -0.241 OA
ATOM     10  O   UNL     1      -3.871  -1.109   0.693  0.00  0.00    -0.241 OA
ENDBRANCH   4   8
BRANCH   1  11
ATOM     11  C   UNL     1      -6.236   0.488   5.696  0.00  0.00    +0.157 C 
BRANCH  11  17
ATOM     12  C   UNL     1     -10.422   1.525   3.156  0.00  0.00    +0.044 C 
ATOM     13  C   UNL     1      -9.642   0.617   4.071  0.00  0.00    -0.050 A 
ATOM     14  C   UNL     1     -10.213  -0.554   4.533  0.00  0.00    +0.003 A 
ATOM     15  C   UNL     1      -9.497  -1.388   5.372  0.00  0.00    +0.004 A 
ATOM     16  C   UNL     1      -8.208  -1.053   5.744  0.00  0.00    -0.046 A 
ATOM     17  C   UNL     1      -7.639   0.120   5.286  0.00  0.00    -0.025 A 
ATOM     18  C   UNL     1      -8.355   0.954   4.447  0.00  0.00    +0.009 A 
ATOM     19  C   UNL     1      -7.426  -1.965   6.654  0.00  0.00    +0.044 C 
ENDBRANCH  11  17
ENDBRANCH   1  11
BRANCH   3  20
ATOM     20  C   UNL     1      -3.787   2.590   1.849  0.00  0.00    -0.044 C 
BRANCH  20  21
ATOM     21  N   UNL     1      -2.494   3.088   2.337  0.00  0.00    +0.384 N 
ATOM     22  H   UNL     1      -2.630   3.555   3.324  0.00  0.00    -0.085 HD
ATOM     23  H   UNL     1      -1.787   2.250   2.423  0.00  0.00    -0.085 HD
BRANCH  21  24
ATOM     24  C   UNL     1      -1.934   4.086   1.417  0.00  0.00    -0.046 C 
BRANCH  24  25
ATOM     25  C   UNL     1      -0.611   4.573   1.949  0.00  0.00    -0.062 A 
ATOM     26  C   UNL     1       0.558   3.926   1.592  0.00  0.00    +0.002 A 
ATOM     27  C   UNL     1       1.773   4.375   2.075  0.00  0.00    +0.003 A 
ATOM     28  C   UNL     1       1.820   5.468   2.920  0.00  0.00    +0.038 A 
ATOM     29  C   UNL     1       0.650   6.113   3.282  0.00  0.00    +0.124 A 
ATOM     30  C   UNL     1      -0.567   5.663   2.797  0.00  0.00    +0.040 A 
ATOM     31  F   UNL     1       0.695   7.181   4.108  0.00  0.00    -0.205 F 
ENDBRANCH  24  25
ENDBRANCH  21  24
ENDBRANCH  20  21
ENDBRANCH   3  20
TORSDOF 7
