REMARK  Name = ZINC06003489
REMARK  6 active torsions:
REMARK  status: ('A' for Active; 'I' for Inactive)
REMARK    1  A    between atoms: C_1  and  C_2
REMARK    2  A    between atoms: C_2  and  C_3
REMARK    3  A    between atoms: C_3  and  C_5
REMARK    4  A    between atoms: C_3  and  S_6
REMARK    5  A    between atoms: S_6  and  C_7
REMARK    6  A    between atoms: C_18  and  C_20
REMARK                            x       y       z     vdW  Elec       q    Type
REMARK                         _______ _______ _______ _____ _____    ______ ____
ROOT
ATOM      1  C   UNL     1      -1.192   3.250   0.027  0.00  0.00    +0.171 A 
ATOM      2  N   UNL     1      -1.185   1.888   0.018  0.00  0.00    -0.302 N 
ATOM      3  H   UNL     1      -2.135   1.334   0.018  0.00  0.00    +0.171 HD
ATOM      4  C   UNL     1      -0.015   1.217   0.009  0.00  0.00    +0.258 A 
ATOM      5  O   UNL     1       0.002  -0.004   0.002  0.00  0.00    -0.267 OA
ATOM      6  C   UNL     1       1.180   1.946   0.001  0.00  0.00    +0.069 A 
ATOM      7  C   UNL     1       1.118   3.329   0.010  0.00  0.00    +0.135 A 
ATOM      8  N   UNL     1      -0.070   3.942   0.020  0.00  0.00    -0.208 NA
ATOM      9  N   UNL     1       2.286   4.066   0.009  0.00  0.00    -0.302 N 
ATOM     10  C   UNL     1       3.470   3.494   0.389  0.00  0.00    +0.017 C 
ATOM     11  C   UNL     1       3.625   2.154   0.392  0.00  0.00    +0.024 C 
ATOM     12  C   UNL     1       2.501   1.236  -0.020  0.00  0.00    +0.092 C 
ATOM     13  C   UNL     1       4.843   1.566   0.779  0.00  0.00    +0.162 C 
ATOM     14  O   UNL     1       4.943   0.355   0.788  0.00  0.00    -0.292 OA
ATOM     15  C   UNL     1       6.023   2.407   1.181  0.00  0.00    +0.080 C 
ATOM     16  C   UNL     1       5.939   3.758   0.463  0.00  0.00    +0.014 C 
ATOM     17  C   UNL     1       4.597   4.407   0.809  0.00  0.00    +0.051 C 
ATOM     18  H   UNL     1       2.270   5.122  -0.298  0.00  0.00    +0.153 HD
ENDROOT
BRANCH  12  19
ATOM     19  C   UNL     1       2.766   0.729  -1.414  0.00  0.00    -0.035 A 
ATOM     20  C   UNL     1       2.835   1.616  -2.471  0.00  0.00    +0.004 A 
ATOM     21  C   UNL     1       3.082   1.151  -3.749  0.00  0.00    +0.000 A 
ATOM     22  C   UNL     1       3.251  -0.203  -3.971  0.00  0.00    +0.000 A 
ATOM     23  C   UNL     1       3.177  -1.091  -2.915  0.00  0.00    +0.000 A 
ATOM     24  C   UNL     1       2.934  -0.625  -1.636  0.00  0.00    +0.004 A 
ENDBRANCH  12  19
BRANCH   1  25
ATOM     25  S   UNL     1      -2.732   4.106   0.041  0.00  0.00    -0.085 S 
BRANCH  25  26
ATOM     26  C   UNL     1      -2.142   5.817   0.040  0.00  0.00    +0.051 C 
ATOM     27  C   UNL     1      -1.389   6.097   1.342  0.00  0.00    +0.019 C 
BRANCH  26  29
ATOM     28  C   UNL     1      -4.014   6.573  -1.432  0.00  0.00    +0.005 C 
ATOM     29  C   UNL     1      -3.335   6.768  -0.075  0.00  0.00    +0.011 C 
ENDBRANCH  26  29
ENDBRANCH  25  26
ENDBRANCH   1  25
TORSDOF 4
