REMARK  Name = ZINC04324904
REMARK  8 active torsions:
REMARK  status: ('A' for Active; 'I' for Inactive)
REMARK    1  A    between atoms: C_9  and  N_46
REMARK    2  A    between atoms: C_11  and  C_12
REMARK    3  A    between atoms: C_11  and  N_46
REMARK    4  A    between atoms: C_12  and  C_14
REMARK    5  A    between atoms: C_12  and  O_27
REMARK    6  A    between atoms: C_14  and  O_15
REMARK    7  A    between atoms: O_15  and  C_16
REMARK    8  A    between atoms: C_19  and  C_22
REMARK                            x       y       z     vdW  Elec       q    Type
REMARK                         _______ _______ _______ _____ _____    ______ ____
ROOT
ATOM      1  C   UNL     1       9.989   1.811  -0.076  0.00  0.00    +0.135 C 
ENDROOT
BRANCH   1   2
ATOM      2  O   UNL     1      10.239   2.507   1.147  0.00  0.00    -0.390 OA
ATOM      3  H   UNL     1      10.150   1.957   1.938  0.00  0.00    +0.210 HD
ENDBRANCH   1   2
BRANCH   1   4
ATOM      4  C   UNL     1      10.981   0.654  -0.216  0.00  0.00    -0.047 C 
BRANCH   4   5
ATOM      5  N   UNL     1      12.354   1.192  -0.223  0.00  0.00    +0.385 N 
ATOM      6  H   UNL     1      12.460   1.840  -1.013  0.00  0.00    -0.085 HD
ATOM      7  H   UNL     1      12.526   1.694   0.656  0.00  0.00    -0.085 HD
BRANCH   5  16
ATOM      8  C   UNL     1      14.464  -0.496  -4.428  0.00  0.00    +0.000 A 
ATOM      9  C   UNL     1      13.270  -1.069  -4.033  0.00  0.00    +0.000 A 
ATOM     10  C   UNL     1      12.833  -0.924  -2.731  0.00  0.00    +0.002 A 
ATOM     11  C   UNL     1      13.587  -0.204  -1.819  0.00  0.00    -0.058 A 
ATOM     12  C   UNL     1      14.781   0.369  -2.214  0.00  0.00    -0.046 A 
ATOM     13  C   UNL     1      15.218   0.221  -3.519  0.00  0.00    +0.004 A 
ATOM     14  C   UNL     1      15.411   1.095  -1.045  0.00  0.00    +0.034 C 
ATOM     15  C   UNL     1      14.699   0.538   0.210  0.00  0.00    -0.007 C 
ATOM     16  C   UNL     1      13.333   0.097  -0.357  0.00  0.00    -0.040 C 
ENDBRANCH   5  16
ENDBRANCH   4   5
ENDBRANCH   1   4
BRANCH   1  17
ATOM     17  C   UNL     1       8.562   1.260  -0.067  0.00  0.00    +0.258 C 
BRANCH  17  18
ATOM     18  O   UNL     1       7.633   2.346  -0.054  0.00  0.00    -0.489 OA
BRANCH  18  19
ATOM     19  C   UNL     1       6.311   2.028  -0.045  0.00  0.00    +0.121 A 
ATOM     20  C   UNL     1       5.356   3.035  -0.031  0.00  0.00    +0.046 A 
ATOM     21  C   UNL     1       4.015   2.715  -0.021  0.00  0.00    +0.013 A 
ATOM     22  C   UNL     1       3.619   1.379  -0.025  0.00  0.00    +0.003 A 
ATOM     23  C   UNL     1       4.580   0.370  -0.033  0.00  0.00    +0.013 A 
ATOM     24  C   UNL     1       5.920   0.696  -0.048  0.00  0.00    +0.046 A 
BRANCH  22  25
ATOM     25  C   UNL     1       2.176   1.031  -0.013  0.00  0.00    +0.102 A 
ATOM     26  C   UNL     1       1.715  -0.262  -0.016  0.00  0.00    +0.097 A 
ATOM     27  S   UNL     1       0.002  -0.004   0.002  0.00  0.00    +0.029 S 
ATOM     28  N   UNL     1      -0.019   1.574   0.011  0.00  0.00    -0.110 NA
ATOM     29  N   UNL     1       1.212   1.938   0.001  0.00  0.00    -0.141 NA
ENDBRANCH  22  25
ENDBRANCH  18  19
ENDBRANCH  17  18
ENDBRANCH   1  17
TORSDOF 8
