REMARK  Name = ZINC58073255
REMARK  7 active torsions:
REMARK  status: ('A' for Active; 'I' for Inactive)
REMARK    1  A    between atoms: C_1  and  C_2
REMARK    2  A    between atoms: C_2  and  C_3
REMARK    3  A    between atoms: C_2  and  C_4
REMARK    4  A    between atoms: C_4  and  N_5
REMARK    5  A    between atoms: C_9  and  C_11
REMARK    6  A    between atoms: C_11  and  N_12
REMARK    7  A    between atoms: C_20  and  C_22
REMARK                            x       y       z     vdW  Elec       q    Type
REMARK                         _______ _______ _______ _____ _____    ______ ____
ROOT
ATOM      1  N   UNL     1      -7.356  -0.625  -4.069  0.00  0.00    -0.282 NA
ATOM      2  C   UNL     1      -8.143   0.008  -3.002  0.00  0.00    +0.091 C 
ATOM      3  C   UNL     1      -9.413  -0.826  -2.760  0.00  0.00    +0.058 C 
ATOM      4  C   UNL     1     -10.014  -1.134  -4.092  0.00  0.00    -0.004 A 
ATOM      5  C   UNL     1      -9.417  -0.989  -5.308  0.00  0.00    -0.015 A 
ATOM      6  C   UNL     1     -10.178  -1.339  -6.421  0.00  0.00    +0.013 A 
ATOM      7  C   UNL     1     -11.441  -1.798  -6.260  0.00  0.00    +0.046 A 
ATOM      8  S   UNL     1     -11.624  -1.758  -4.483  0.00  0.00    -0.101 S 
ATOM      9  C   UNL     1      -7.985  -0.468  -5.386  0.00  0.00    +0.125 C 
ENDROOT
BRANCH   9  10
ATOM     10  C   UNL     1      -7.214  -1.257  -6.413  0.00  0.00    +0.011 A 
ATOM     11  C   UNL     1      -6.896  -0.920  -7.687  0.00  0.00    +0.013 A 
ATOM     12  C   UNL     1      -6.173  -1.813  -8.455  0.00  0.00    +0.008 A 
ATOM     13  C   UNL     1      -5.802  -2.998  -7.912  0.00  0.00    +0.045 A 
ATOM     14  S   UNL     1      -6.476  -2.876  -6.264  0.00  0.00    -0.100 S 
ENDBRANCH   9  10
BRANCH   1  15
ATOM     15  C   UNL     1      -5.978  -0.117  -4.079  0.00  0.00    +0.181 C 
BRANCH  15  20
ATOM     16  N   UNL     1      -2.105  -0.148  -1.230  0.00  0.00    -0.299 N 
ATOM     17  C   UNL     1      -3.387  -0.508  -1.443  0.00  0.00    +0.306 C 
ATOM     18  O   UNL     1      -3.985  -1.152  -0.604  0.00  0.00    -0.252 OA
ATOM     19  N   UNL     1      -4.005  -0.154  -2.587  0.00  0.00    -0.239 N 
ATOM     20  C   UNL     1      -5.286  -0.513  -2.800  0.00  0.00    +0.234 C 
ATOM     21  O   UNL     1      -5.883  -1.156  -1.963  0.00  0.00    -0.274 OA
ATOM     22  H   UNL     1      -1.628   0.366  -1.901  0.00  0.00    +0.150 HD
ATOM     23  H   UNL     1      -3.528   0.360  -3.257  0.00  0.00    +0.159 HD
BRANCH  16  24
ATOM     24  C   UNL     1      -1.433  -0.534   0.013  0.00  0.00    +0.108 C 
BRANCH  24  26
ATOM     25  C   UNL     1      -0.019   1.526   0.010  0.00  0.00    +0.009 C 
ATOM     26  C   UNL     1       0.002  -0.004   0.002  0.00  0.00    -0.000 C 
ATOM     27  C   UNL     1       0.742  -0.511   1.242  0.00  0.00    +0.009 C 
ENDBRANCH  24  26
ENDBRANCH  16  24
ENDBRANCH  15  20
ENDBRANCH   1  15
TORSDOF 5
