REMARK  Name = ZINC00862742
REMARK  14 active torsions:
REMARK  status: ('A' for Active; 'I' for Inactive)
REMARK    1  A    between atoms: C_1  and  C_2
REMARK    2  A    between atoms: C_2  and  O_3
REMARK    3  A    between atoms: O_3  and  C_4
REMARK    4  A    between atoms: C_4  and  C_6
REMARK    5  A    between atoms: C_7  and  C_21
REMARK    6  A    between atoms: N_8  and  C_20
REMARK    7  A    between atoms: C_11  and  C_17
REMARK    8  A    between atoms: C_12  and  O_16
REMARK    9  A    between atoms: C_17  and  N_50
REMARK   10  A    between atoms: C_18  and  N_50
REMARK   11  A    between atoms: C_19  and  N_50
REMARK   12  A    between atoms: C_21  and  N_52
REMARK   13  A    between atoms: C_22  and  N_52
REMARK   14  A    between atoms: C_23  and  N_52
REMARK                            x       y       z     vdW  Elec       q    Type
REMARK                         _______ _______ _______ _____ _____    ______ ____
ROOT
ATOM      1  C   UNL     1      -1.368  -2.621  -1.474  0.00  0.00    +0.086 A 
ATOM      2  C   UNL     1      -1.312  -2.034  -0.243  0.00  0.00    +0.017 A 
ATOM      3  N   UNL     1      -1.198  -2.985   0.714  0.00  0.00    -0.348 N 
ATOM      4  C   UNL     1      -1.185  -4.243   0.143  0.00  0.00    +0.051 A 
ATOM      5  C   UNL     1      -1.287  -4.076  -1.247  0.00  0.00    +0.019 A 
ATOM      6  C   UNL     1      -1.293  -5.187  -2.086  0.00  0.00    -0.011 A 
ATOM      7  C   UNL     1      -1.198  -6.454  -1.544  0.00  0.00    +0.133 A 
ATOM      8  C   UNL     1      -1.098  -6.620  -0.165  0.00  0.00    +0.061 A 
ATOM      9  C   UNL     1      -1.091  -5.525   0.673  0.00  0.00    +0.045 A 
ATOM     10 BR   UNL     1      -0.969  -8.360   0.564  0.00  0.00    -0.046 Br
ATOM     11  C   UNL     1      -1.106  -2.717   2.151  0.00  0.00    +0.149 C 
ENDROOT
BRANCH   1  12
ATOM     12  C   UNL     1      -1.485  -1.939  -2.768  0.00  0.00    +0.341 C 
ATOM     13  O   UNL     1      -0.484  -1.609  -3.374  0.00  0.00    -0.245 OA
BRANCH  12  14
ATOM     14  O   UNL     1      -2.703  -1.679  -3.284  0.00  0.00    -0.461 OA
BRANCH  14  16
ATOM     15  C   UNL     1      -4.200  -0.793  -4.990  0.00  0.00    +0.048 C 
ATOM     16  C   UNL     1      -2.744  -1.001  -4.568  0.00  0.00    +0.229 C 
ENDBRANCH  14  16
ENDBRANCH  12  14
ENDBRANCH   1  12
BRANCH   7  17
ATOM     17  O   UNL     1      -1.204  -7.543  -2.358  0.00  0.00    -0.505 OA
ATOM     18  H   UNL     1      -2.086  -7.898  -2.535  0.00  0.00    +0.292 HD
ENDBRANCH   7  17
BRANCH   6  19
ATOM     19  C   UNL     1      -1.401  -5.008  -3.579  0.00  0.00    -0.039 C 
BRANCH  19  22
ATOM     20  C   UNL     1       0.695  -6.141  -4.009  0.00  0.00    -0.096 C 
ATOM     21  C   UNL     1      -0.123  -4.476  -5.566  0.00  0.00    -0.096 C 
ATOM     22  N   UNL     1      -0.042  -4.866  -4.142  0.00  0.00    +0.379 N 
ATOM     23  H   UNL     1       0.459  -4.135  -3.624  0.00  0.00    -0.082 HD
ENDBRANCH  19  22
ENDBRANCH   6  19
BRANCH   2  24
ATOM     24  C   UNL     1      -1.362  -0.549   0.012  0.00  0.00    -0.024 C 
BRANCH  24  27
ATOM     25  C   UNL     1      -0.018   1.465   0.010  0.00  0.00    -0.096 C 
ATOM     26  C   UNL     1       0.786  -0.526   1.129  0.00  0.00    -0.096 C 
ATOM     27  N   UNL     1       0.015  -0.013  -0.022  0.00  0.00    +0.380 N 
ATOM     28  H   UNL     1       0.470  -0.317  -0.891  0.00  0.00    -0.082 HD
ENDBRANCH  24  27
ENDBRANCH   2  24
TORSDOF 8
