REMARK  Name = ZINC59170693
REMARK  5 active torsions:
REMARK  status: ('A' for Active; 'I' for Inactive)
REMARK    1  A    between atoms: C_5  and  N_7
REMARK    2  A    between atoms: C_8  and  C_10
REMARK    3  A    between atoms: N_20  and  C_21
REMARK    4  A    between atoms: C_24  and  S_27
REMARK    5  A    between atoms: S_27  and  N_30
REMARK                            x       y       z     vdW  Elec       q    Type
REMARK                         _______ _______ _______ _____ _____    ______ ____
ROOT
ATOM      1  C   UNL     1       0.131  -4.213   0.248  0.00  0.00    +0.098 A 
ATOM      2  C   UNL     1      -1.052  -4.941   0.243  0.00  0.00    +0.030 A 
ATOM      3  C   UNL     1      -0.944  -6.401   0.279  0.00  0.00    +0.020 A 
ATOM      4  C   UNL     1      -2.056  -7.208   0.010  0.00  0.00    +0.031 A 
ATOM      5  C   UNL     1      -1.926  -8.579   0.048  0.00  0.00    +0.042 A 
ATOM      6  C   UNL     1      -0.702  -9.161   0.351  0.00  0.00    +0.023 A 
ATOM      7  C   UNL     1       0.402  -8.377   0.619  0.00  0.00    +0.048 A 
ATOM      8  C   UNL     1       0.294  -6.995   0.589  0.00  0.00    +0.138 A 
ATOM      9  O   UNL     1       1.368  -6.213   0.858  0.00  0.00    -0.439 OA
ATOM     10  C   UNL     1       1.392  -4.980   0.284  0.00  0.00    +0.212 A 
ATOM     11  N   UNL     1       2.502  -4.484  -0.218  0.00  0.00    -0.325 N 
ATOM     12 CL   UNL     1      -3.301  -9.585  -0.285  0.00  0.00    -0.084 Cl
ATOM     13  H   UNL     1       2.478  -3.656  -0.723  0.00  0.00    +0.169 HD
ENDROOT
BRANCH  11  14
ATOM     14  C   UNL     1       3.689  -5.136  -0.029  0.00  0.00    +0.042 A 
ATOM     15  C   UNL     1       4.020  -5.641   1.231  0.00  0.00    +0.027 A 
ATOM     16  C   UNL     1       5.219  -6.298   1.414  0.00  0.00    +0.030 A 
ATOM     17  C   UNL     1       6.093  -6.457   0.353  0.00  0.00    +0.105 A 
ATOM     18  C   UNL     1       5.772  -5.960  -0.898  0.00  0.00    +0.030 A 
ATOM     19  C   UNL     1       4.574  -5.306  -1.097  0.00  0.00    +0.027 A 
BRANCH  17  20
ATOM     20  S   UNL     1       7.622  -7.298   0.596  0.00  0.00    +0.056 S 
ATOM     21  O   UNL     1       8.504  -6.838  -0.419  0.00  0.00    -0.153 OA
ATOM     22  O   UNL     1       7.930  -7.189   1.979  0.00  0.00    -0.153 OA
BRANCH  20  23
ATOM     23  N   UNL     1       7.351  -8.904   0.297  0.00  0.00    -0.204 NA
ATOM     24  H   UNL     1       8.067  -9.460  -0.050  0.00  0.00    +0.144 HD
ATOM     25  H   UNL     1       6.478  -9.288   0.468  0.00  0.00    +0.144 HD
ENDBRANCH  20  23
ENDBRANCH  17  20
ENDBRANCH  11  14
BRANCH   1  27
ATOM     26  N   UNL     1       1.286  -2.062   0.324  0.00  0.00    -0.279 N 
ATOM     27  C   UNL     1       0.128  -2.741   0.212  0.00  0.00    +0.253 C 
ATOM     28  O   UNL     1      -0.921  -2.138   0.082  0.00  0.00    -0.270 OA
ATOM     29  H   UNL     1       2.127  -2.542   0.379  0.00  0.00    +0.155 HD
BRANCH  26  34
ATOM     30  C   UNL     1       0.181   1.420  -0.101  0.00  0.00    +0.002 A 
ATOM     31  C   UNL     1       1.258   2.105   0.431  0.00  0.00    +0.003 A 
ATOM     32  C   UNL     1       2.345   1.411   0.928  0.00  0.00    +0.040 A 
ATOM     33  C   UNL     1       2.359   0.028   0.895  0.00  0.00    +0.144 A 
ATOM     34  C   UNL     1       1.277  -0.663   0.360  0.00  0.00    +0.069 A 
ATOM     35  C   UNL     1       0.187   0.039  -0.138  0.00  0.00    +0.026 A 
ATOM     36  F   UNL     1       3.422  -0.650   1.380  0.00  0.00    -0.204 F 
ENDBRANCH  26  34
ENDBRANCH   1  27
TORSDOF 5
