REMARK  Name = ZINC45754633
REMARK  9 active torsions:
REMARK  status: ('A' for Active; 'I' for Inactive)
REMARK    1  A    between atoms: C_1  and  C_2
REMARK    2  A    between atoms: C_5  and  C_36
REMARK    3  A    between atoms: N_8  and  C_10
REMARK    4  A    between atoms: C_10  and  C_11
REMARK    5  A    between atoms: C_17  and  C_19
REMARK    6  A    between atoms: C_19  and  N_20
REMARK    7  A    between atoms: C_25  and  C_32
REMARK    8  A    between atoms: C_28  and  C_30
REMARK    9  A    between atoms: C_28  and  C_31
REMARK                            x       y       z     vdW  Elec       q    Type
REMARK                         _______ _______ _______ _____ _____    ______ ____
ROOT
ATOM      1  C   UNL     1       3.123  -0.714   3.057  0.00  0.00    +0.034 A 
ATOM      2  C   UNL     1       3.756   0.371   3.567  0.00  0.00    +0.070 A 
ATOM      3  S   UNL     1       5.404   0.127   2.926  0.00  0.00    -0.060 S 
ATOM      4  C   UNL     1       5.119  -1.306   2.090  0.00  0.00    +0.165 A 
ATOM      5  N   UNL     1       3.846  -1.539   2.321  0.00  0.00    -0.231 NA
ATOM      6  N   UNL     1       6.014  -2.061   1.341  0.00  0.00    -0.263 N 
ATOM      7  C   UNL     1       7.296  -1.663   1.220  0.00  0.00    +0.237 C 
ATOM      8  O   UNL     1       7.669  -0.645   1.764  0.00  0.00    -0.274 OA
ATOM      9  H   UNL     1       5.716  -2.875   0.906  0.00  0.00    +0.157 HD
ENDROOT
BRANCH   1  10
ATOM     10  C   UNL     1       1.662  -0.971   3.323  0.00  0.00    -0.022 C 
BRANCH  10  16
ATOM     11  C   UNL     1       0.389   3.099   0.918  0.00  0.00    +0.005 C 
ATOM     12  C   UNL     1       0.239   1.577   0.963  0.00  0.00    -0.031 C 
ATOM     13  C   UNL     1      -1.242   1.213   1.097  0.00  0.00    +0.003 C 
ATOM     14  C   UNL     1      -1.375  -0.308   1.220  0.00  0.00    -0.031 C 
ATOM     15  C   UNL     1      -0.548  -0.792   2.414  0.00  0.00    -0.075 C 
ATOM     16  N   UNL     1       0.862  -0.437   2.213  0.00  0.00    +0.384 N 
ATOM     17  C   UNL     1       1.007   1.023   2.165  0.00  0.00    -0.075 C 
ATOM     18  C   UNL     1      -0.862  -0.971  -0.060  0.00  0.00    +0.005 C 
ATOM     19  H   UNL     1       1.187  -0.834   1.344  0.00  0.00    -0.081 HD
ENDBRANCH  10  16
ENDBRANCH   1  10
BRANCH   7  20
ATOM     20  C   UNL     1       8.266  -2.482   0.408  0.00  0.00    +0.214 C 
BRANCH  20  21
ATOM     21  N   UNL     1       9.584  -1.843   0.431  0.00  0.00    -0.215 N 
ATOM     22  C   UNL     1       9.996  -0.922  -0.465  0.00  0.00    +0.247 C 
ATOM     23  O   UNL     1       9.371  -0.484  -1.407  0.00  0.00    -0.273 OA
ATOM     24  C   UNL     1      11.401  -0.553  -0.048  0.00  0.00    +0.113 C 
ATOM     25  C   UNL     1      11.479   0.928   0.303  0.00  0.00    +0.038 C 
ATOM     26  C   UNL     1      12.902   1.274   0.752  0.00  0.00    -0.011 C 
ATOM     27  C   UNL     1      13.884   0.947  -0.375  0.00  0.00    +0.009 C 
ATOM     28  C   UNL     1      13.811  -0.547  -0.700  0.00  0.00    -0.032 C 
ATOM     29  C   UNL     1      12.392  -0.899  -1.154  0.00  0.00    +0.041 C 
ATOM     30  C   UNL     1      14.163  -1.358   0.548  0.00  0.00    +0.011 C 
ATOM     31  C   UNL     1      14.801  -0.875  -1.819  0.00  0.00    +0.011 C 
ATOM     32  C   UNL     1      12.984   2.765   1.083  0.00  0.00    +0.007 C 
ATOM     33  N   UNL     1      11.648  -1.378   1.141  0.00  0.00    -0.285 N 
ATOM     34  C   UNL     1      10.527  -2.095   1.347  0.00  0.00    +0.310 C 
ATOM     35  O   UNL     1      10.387  -2.885   2.260  0.00  0.00    -0.252 OA
ATOM     36  H   UNL     1      12.457  -1.400   1.675  0.00  0.00    +0.151 HD
ENDBRANCH  20  21
ENDBRANCH   7  20
TORSDOF 4
