REMARK  Name = ZINC02520701
REMARK  9 active torsions:
REMARK  status: ('A' for Active; 'I' for Inactive)
REMARK    1  A    between atoms: C_1  and  C_2
REMARK    2  A    between atoms: C_3  and  C_13
REMARK    3  A    between atoms: N_15  and  N_16
REMARK    4  A    between atoms: C_17  and  C_18
REMARK    5  A    between atoms: C_21  and  O_26
REMARK    6  A    between atoms: C_22  and  O_24
REMARK    7  A    between atoms: O_24  and  C_25
REMARK    8  A    between atoms: O_26  and  C_27
REMARK    9  A    between atoms: C_27  and  C_28
REMARK                            x       y       z     vdW  Elec       q    Type
REMARK                         _______ _______ _______ _____ _____    ______ ____
ROOT
ATOM      1  N   UNL     1      -1.225  -2.079  -0.022  0.00  0.00    -0.187 NA
ATOM      2  C   UNL     1      -1.238  -0.782  -0.046  0.00  0.00    +0.138 C 
ENDROOT
BRANCH   2   3
ATOM      3  C   UNL     1       0.031  -0.031  -0.050  0.00  0.00    -0.002 A 
ATOM      4  C   UNL     1       1.249  -0.716  -0.027  0.00  0.00    +0.013 A 
ATOM      5  C   UNL     1       2.435  -0.012  -0.030  0.00  0.00    +0.050 A 
ATOM      6  C   UNL     1       2.422   1.375  -0.055  0.00  0.00    +0.162 A 
ATOM      7  C   UNL     1       1.211   2.064  -0.078  0.00  0.00    +0.162 A 
ATOM      8  C   UNL     1       0.019   1.366  -0.075  0.00  0.00    +0.059 A 
BRANCH   7   9
ATOM      9  O   UNL     1       1.203   3.424  -0.103  0.00  0.00    -0.491 OA
ATOM     10  C   UNL     1      -0.074   4.064  -0.126  0.00  0.00    +0.277 C 
ENDBRANCH   7   9
BRANCH   6  11
ATOM     11  O   UNL     1       3.594   2.064  -0.057  0.00  0.00    -0.484 OA
BRANCH  11  12
ATOM     12  C   UNL     1       4.798   1.295  -0.033  0.00  0.00    +0.264 C 
BRANCH  12  13
ATOM     13  C   UNL     1       5.987   2.223  -0.039  0.00  0.00    -0.010 A 
ATOM     14  C   UNL     1       6.545   2.621  -1.239  0.00  0.00    +0.008 A 
ATOM     15  C   UNL     1       7.631   3.476  -1.246  0.00  0.00    +0.020 A 
ATOM     16  C   UNL     1       8.166   3.924  -0.051  0.00  0.00    +0.041 A 
ATOM     17  C   UNL     1       7.610   3.520   1.150  0.00  0.00    +0.020 A 
ATOM     18  C   UNL     1       6.521   2.670   1.155  0.00  0.00    +0.008 A 
ATOM     19 CL   UNL     1       9.534   4.992  -0.059  0.00  0.00    -0.084 Cl
ENDBRANCH  12  13
ENDBRANCH  11  12
ENDBRANCH   6  11
ENDBRANCH   2   3
BRANCH   1  22
ATOM     20  C   UNL     1      -2.417  -4.140   0.006  0.00  0.00    +0.284 C 
ATOM     21  O   UNL     1      -1.360  -4.739  -0.069  0.00  0.00    -0.267 OA
ATOM     22  N   UNL     1      -2.431  -2.793  -0.019  0.00  0.00    -0.202 N 
ATOM     23  H   UNL     1      -3.389  -2.253  -0.036  0.00  0.00    +0.178 HD
BRANCH  20  26
ATOM     24  C   UNL     1      -4.050  -5.469  -2.355  0.00  0.00    +0.070 C 
ATOM     25  C   UNL     1      -4.396  -5.468  -0.889  0.00  0.00    +0.093 A 
ATOM     26  C   UNL     1      -3.679  -4.886   0.124  0.00  0.00    +0.155 A 
ATOM     27  N   UNL     1      -4.382  -5.153   1.274  0.00  0.00    -0.183 N 
ATOM     28  N   UNL     1      -5.429  -5.827   0.949  0.00  0.00    -0.058 NA
ATOM     29  N   UNL     1      -5.462  -6.031  -0.319  0.00  0.00    -0.134 NA
ATOM     30  C   UNL     1      -4.025  -4.758   2.567  0.00  0.00    +0.241 A 
ATOM     31  C   UNL     1      -4.718  -5.138   3.802  0.00  0.00    +0.206 A 
ATOM     32  N   UNL     1      -4.100  -4.581   4.807  0.00  0.00    -0.032 NA
ATOM     33  O   UNL     1      -3.011  -3.837   4.288  0.00  0.00    -0.239 OA
ATOM     34  N   UNL     1      -3.017  -3.994   2.880  0.00  0.00    -0.027 NA
ATOM     35  N   UNL     1      -5.842  -5.951   3.887  0.00  0.00    -0.337 N 
ATOM     36  H   UNL     1      -6.285  -6.175   4.869  0.00  0.00    +0.144 HD
ATOM     37  H   UNL     1      -6.288  -6.371   2.973  0.00  0.00    +0.144 HD
ENDBRANCH  20  26
ENDBRANCH   1  22
TORSDOF 7
