REMARK  Name = ZINC12083104
REMARK  5 active torsions:
REMARK  status: ('A' for Active; 'I' for Inactive)
REMARK    1  A    between atoms: C_1  and  C_2
REMARK    2  A    between atoms: C_9  and  N_14
REMARK    3  A    between atoms: C_15  and  C_17
REMARK    4  A    between atoms: C_18  and  C_19
REMARK    5  A    between atoms: C_22  and  N_25
REMARK                            x       y       z     vdW  Elec       q    Type
REMARK                         _______ _______ _______ _____ _____    ______ ____
ROOT
ATOM      1  N   UNL     1      -2.294  -2.848   0.009  0.00  0.00    -0.282 N 
ATOM      2  C   UNL     1      -1.137  -2.158  -0.001  0.00  0.00    +0.241 C 
ATOM      3  O   UNL     1      -0.074  -2.752  -0.023  0.00  0.00    -0.270 OA
ATOM      4  H   UNL     1      -3.138  -2.377   0.094  0.00  0.00    +0.155 HD
ENDROOT
BRANCH   1  12
ATOM      5  C   UNL     1      -0.332  -8.724  -1.890  0.00  0.00    +0.062 C 
ATOM      6  C   UNL     1      -0.945  -8.978  -0.511  0.00  0.00    +0.256 C 
ATOM      7  C   UNL     1      -0.047  -8.396   0.552  0.00  0.00    +0.258 C 
ATOM      8  O   UNL     1       0.817  -9.080   1.059  0.00  0.00    -0.271 OA
ATOM      9  N   UNL     1      -0.210  -7.112   0.936  0.00  0.00    -0.279 N 
ATOM     10  C   UNL     1      -1.238  -6.354   0.359  0.00  0.00    +0.077 A 
ATOM     11  C   UNL     1      -1.250  -4.974   0.474  0.00  0.00    +0.050 A 
ATOM     12  C   UNL     1      -2.279  -4.243  -0.105  0.00  0.00    +0.036 A 
ATOM     13  C   UNL     1      -3.295  -4.895  -0.791  0.00  0.00    +0.027 A 
ATOM     14  C   UNL     1      -3.281  -6.272  -0.910  0.00  0.00    +0.049 A 
ATOM     15  C   UNL     1      -2.257  -7.005  -0.336  0.00  0.00    +0.143 A 
ATOM     16  O   UNL     1      -2.233  -8.362  -0.442  0.00  0.00    -0.478 OA
ATOM     17  H   UNL     1       0.377  -6.720   1.602  0.00  0.00    +0.155 HD
ENDBRANCH   1  12
BRANCH   2  18
ATOM     18  C   UNL     1      -1.157  -0.694   0.016  0.00  0.00    +0.068 C 
ATOM     19  C   UNL     1       0.002  -0.004   0.006  0.00  0.00    +0.013 C 
BRANCH  19  20
ATOM     20  C   UNL     1      -0.018   1.468   0.023  0.00  0.00    -0.025 A 
ATOM     21  C   UNL     1      -1.237   2.154   0.043  0.00  0.00    +0.010 A 
ATOM     22  C   UNL     1      -1.247   3.533   0.064  0.00  0.00    +0.033 A 
ATOM     23  C   UNL     1      -0.056   4.238   0.054  0.00  0.00    +0.126 A 
ATOM     24  C   UNL     1       1.154   3.566   0.029  0.00  0.00    +0.033 A 
ATOM     25  C   UNL     1       1.181   2.187   0.013  0.00  0.00    +0.010 A 
BRANCH  23  26
ATOM     26  N   UNL     1      -0.076   5.718   0.070  0.00  0.00    +0.056 N 
ATOM     27  O   UNL     1       0.970   6.341   0.061  0.00  0.00    -0.126 OA
ATOM     28  O   UNL     1      -1.139   6.312   0.092  0.00  0.00    -0.126 OA
ENDBRANCH  23  26
ENDBRANCH  19  20
ENDBRANCH   2  18
TORSDOF 4
