REMARK  Name = ZINC09435316
REMARK  5 active torsions:
REMARK  status: ('A' for Active; 'I' for Inactive)
REMARK    1  A    between atoms: C_3  and  C_6
REMARK    2  A    between atoms: C_9  and  C_32
REMARK    3  A    between atoms: C_13  and  C_16
REMARK    4  A    between atoms: N_18  and  C_19
REMARK    5  A    between atoms: C_20  and  C_28
REMARK                            x       y       z     vdW  Elec       q    Type
REMARK                         _______ _______ _______ _____ _____    ______ ____
ROOT
ATOM      1  C   UNL     1       5.409   3.053   0.393  0.00  0.00    +0.111 C 
ATOM      2  C   UNL     1       6.326   2.143  -0.430  0.00  0.00    +0.063 C 
ATOM      3  C   UNL     1       6.044   0.682  -0.051  0.00  0.00    +0.215 C 
ATOM      4  N   UNL     1       4.587   0.495  -0.039  0.00  0.00    -0.238 N 
ATOM      5  C   UNL     1       3.694   1.509  -0.025  0.00  0.00    +0.130 A 
ATOM      6  C   UNL     1       2.427   0.939  -0.016  0.00  0.00    +0.096 A 
ATOM      7  C   UNL     1       2.608  -0.466  -0.019  0.00  0.00    +0.149 A 
ATOM      8  N   UNL     1       3.889  -0.712  -0.039  0.00  0.00    -0.177 NA
ATOM      9  N   UNL     1       4.013   2.851  -0.022  0.00  0.00    -0.321 N 
ATOM     10  H   UNL     1       3.840   3.266  -0.925  0.00  0.00    +0.148 HD
ENDROOT
BRANCH   1  13
ATOM     11  C   UNL     1       6.259   2.862   4.102  0.00  0.00    +0.008 A 
ATOM     12  C   UNL     1       6.281   3.349   2.809  0.00  0.00    +0.013 A 
ATOM     13  C   UNL     1       5.552   2.719   1.856  0.00  0.00    +0.010 A 
ATOM     14  S   UNL     1       4.810   1.384   2.781  0.00  0.00    -0.100 S 
ATOM     15  C   UNL     1       5.517   1.761   4.377  0.00  0.00    +0.045 A 
ENDBRANCH   1  13
BRANCH   6  16
ATOM     16  C   UNL     1       1.147   1.655   0.000  0.00  0.00    +0.253 C 
ATOM     17  O   UNL     1       1.130   2.872   0.007  0.00  0.00    -0.270 OA
ATOM     18  N   UNL     1      -0.011   0.966   0.007  0.00  0.00    -0.275 N 
ATOM     19  H   UNL     1       0.002  -0.004   0.002  0.00  0.00    +0.156 HD
BRANCH  18  20
ATOM     20  C   UNL     1      -1.220   1.642   0.017  0.00  0.00    +0.085 A 
ATOM     21  C   UNL     1      -2.504   1.114   0.020  0.00  0.00    +0.068 A 
ATOM     22  C   UNL     1      -3.615   2.051   0.031  0.00  0.00    -0.023 A 
ATOM     23  C   UNL     1      -3.268   3.356   0.037  0.00  0.00    -0.004 A 
ATOM     24  S   UNL     1      -1.497   3.353   0.035  0.00  0.00    -0.077 S 
ATOM     25  C   UNL     1      -4.189   4.536   0.047  0.00  0.00    +0.043 C 
ATOM     26  C   UNL     1      -5.598   4.053  -0.328  0.00  0.00    +0.005 C 
ATOM     27  C   UNL     1      -5.931   2.810   0.503  0.00  0.00    +0.005 C 
ATOM     28  C   UNL     1      -5.079   1.629   0.036  0.00  0.00    +0.037 C 
BRANCH  21  29
ATOM     29  C   UNL     1      -2.730  -0.334   0.013  0.00  0.00    +0.244 C 
ATOM     30  O   UNL     1      -2.819  -0.941   1.064  0.00  0.00    -0.270 OA
ATOM     31  N   UNL     1      -2.840  -0.993  -1.157  0.00  0.00    -0.325 N 
ATOM     32  H   UNL     1      -2.770  -0.509  -1.995  0.00  0.00    +0.145 HD
ATOM     33  H   UNL     1      -2.990  -1.952  -1.162  0.00  0.00    +0.145 HD
ENDBRANCH  21  29
ENDBRANCH  18  20
ENDBRANCH   6  16
BRANCH   3  34
ATOM     34  C   UNL     1       6.677  -0.253  -1.084  0.00  0.00    +0.412 C 
ATOM     35  F   UNL     1       8.060  -0.042  -1.118  0.00  0.00    -0.168 F 
ATOM     36  F   UNL     1       6.416  -1.581  -0.733  0.00  0.00    -0.168 F 
ATOM     37  F   UNL     1       6.135   0.011  -2.346  0.00  0.00    -0.168 F 
ENDBRANCH   3  34
TORSDOF 5
