REMARK  Name = ZINC01463191
REMARK  5 active torsions:
REMARK  status: ('A' for Active; 'I' for Inactive)
REMARK    1  A    between atoms: C_4  and  C_7
REMARK    2  A    between atoms: C_8  and  C_17
REMARK    3  A    between atoms: C_17  and  C_19
REMARK    4  A    between atoms: C_17  and  C_23
REMARK    5  A    between atoms: C_19  and  N_20
REMARK                            x       y       z     vdW  Elec       q    Type
REMARK                         _______ _______ _______ _____ _____    ______ ____
ROOT
ATOM      1  C   UNL     1      -1.448   0.959  -2.001  0.00  0.00    +0.051 A 
ATOM      2  C   UNL     1      -0.705   1.564  -1.042  0.00  0.00    -0.005 A 
ATOM      3  C   UNL     1      -0.962   2.999  -1.145  0.00  0.00    +0.004 A 
ATOM      4  C   UNL     1      -0.496   4.119  -0.449  0.00  0.00    +0.010 A 
ATOM      5  C   UNL     1      -0.939   5.364  -0.793  0.00  0.00    +0.001 A 
ATOM      6  C   UNL     1      -1.847   5.528  -1.831  0.00  0.00    +0.002 A 
ATOM      7  C   UNL     1      -2.320   4.439  -2.530  0.00  0.00    +0.026 A 
ATOM      8  C   UNL     1      -1.883   3.161  -2.197  0.00  0.00    +0.047 A 
ATOM      9  N   UNL     1      -2.163   1.908  -2.695  0.00  0.00    -0.354 N 
ATOM     10  H   UNL     1      -2.770   1.722  -3.429  0.00  0.00    +0.166 HD
ENDROOT
BRANCH   1  14
ATOM     11  C   UNL     1      -1.561  -3.222  -2.741  0.00  0.00    +0.000 A 
ATOM     12  C   UNL     1      -2.737  -2.493  -2.727  0.00  0.00    +0.001 A 
ATOM     13  C   UNL     1      -2.707  -1.135  -2.487  0.00  0.00    +0.010 A 
ATOM     14  C   UNL     1      -1.488  -0.496  -2.258  0.00  0.00    -0.001 A 
ATOM     15  C   UNL     1      -0.305  -1.236  -2.280  0.00  0.00    +0.010 A 
ATOM     16  C   UNL     1      -0.349  -2.595  -2.515  0.00  0.00    +0.001 A 
ENDBRANCH   1  14
BRANCH   2  17
ATOM     17  C   UNL     1       0.217   0.886  -0.061  0.00  0.00    +0.078 C 
BRANCH  17  18
ATOM     18  C   UNL     1       1.648   1.151  -0.450  0.00  0.00    -0.034 A 
ATOM     19  C   UNL     1       2.035   2.422  -0.833  0.00  0.00    +0.008 A 
ATOM     20  C   UNL     1       3.348   2.671  -1.187  0.00  0.00    +0.050 A 
ATOM     21  C   UNL     1       4.278   1.644  -1.168  0.00  0.00    +0.166 A 
ATOM     22  C   UNL     1       3.887   0.363  -0.788  0.00  0.00    +0.167 A 
ATOM     23  C   UNL     1       2.571   0.121  -0.430  0.00  0.00    +0.053 A 
ATOM     24  O   UNL     1       4.973  -0.462  -0.852  0.00  0.00    -0.453 OA
ATOM     25  C   UNL     1       6.117   0.411  -0.881  0.00  0.00    +0.466 C 
ATOM     26  O   UNL     1       5.609   1.623  -1.471  0.00  0.00    -0.453 OA
ENDBRANCH  17  18
BRANCH  17  27
ATOM     27  C   UNL     1      -0.040   1.437   1.344  0.00  0.00    +0.224 C 
BRANCH  27  28
ATOM     28  N   UNL     1      -1.436   1.194   1.716  0.00  0.00    +0.023 N 
ATOM     29  O   UNL     1      -1.705   0.763   2.823  0.00  0.00    -0.132 OA
ATOM     30  O   UNL     1      -2.327   1.423   0.918  0.00  0.00    -0.132 OA
ENDBRANCH  27  28
ENDBRANCH  17  27
ENDBRANCH   2  17
TORSDOF 5
