REMARK  Name = ZINC63831327
REMARK  9 active torsions:
REMARK  status: ('A' for Active; 'I' for Inactive)
REMARK    1  A    between atoms: C_1  and  C_2
REMARK    2  A    between atoms: C_5  and  C_9
REMARK    3  A    between atoms: C_7  and  C_8
REMARK    4  A    between atoms: C_9  and  C_31
REMARK    5  A    between atoms: N_12  and  C_16
REMARK    6  A    between atoms: C_16  and  C_17
REMARK    7  A    between atoms: N_19  and  C_20
REMARK    8  A    between atoms: C_20  and  C_21
REMARK    9  A    between atoms: C_21  and  C_22
REMARK                            x       y       z     vdW  Elec       q    Type
REMARK                         _______ _______ _______ _____ _____    ______ ____
ROOT
ATOM      1  C   UNL     1       0.059  -4.275  -0.021  0.00  0.00    +0.164 C 
ATOM      2  C   UNL     1       1.520  -4.671  -0.106  0.00  0.00    +0.256 C 
ATOM      3  O   UNL     1       2.312  -4.369  -0.973  0.00  0.00    -0.272 OA
ATOM      4  N   UNL     1       1.757  -5.427   0.985  0.00  0.00    -0.215 N 
ATOM      5  C   UNL     1       0.659  -5.563   1.738  0.00  0.00    +0.310 C 
ATOM      6  O   UNL     1       0.625  -6.201   2.772  0.00  0.00    -0.252 OA
ATOM      7  N   UNL     1      -0.401  -4.915   1.223  0.00  0.00    -0.278 N 
ATOM      8  H   UNL     1      -1.295  -4.875   1.599  0.00  0.00    +0.152 HD
ENDROOT
BRANCH   1  13
ATOM      9  C   UNL     1      -0.478   1.468   0.322  0.00  0.00    +0.044 C 
ATOM     10  C   UNL     1      -0.338  -0.030   0.232  0.00  0.00    -0.048 A 
ATOM     11  C   UNL     1       0.505  -0.590  -0.710  0.00  0.00    +0.004 A 
ATOM     12  C   UNL     1       0.633  -1.964  -0.792  0.00  0.00    +0.007 A 
ATOM     13  C   UNL     1      -0.080  -2.777   0.069  0.00  0.00    -0.010 A 
ATOM     14  C   UNL     1      -0.922  -2.217   1.011  0.00  0.00    +0.010 A 
ATOM     15  C   UNL     1      -1.047  -0.843   1.096  0.00  0.00    -0.047 A 
ATOM     16  C   UNL     1      -1.961  -0.232   2.127  0.00  0.00    +0.044 C 
ENDBRANCH   1  13
BRANCH   1  17
ATOM     17  C   UNL     1      -0.706  -4.807  -1.205  0.00  0.00    -0.011 A 
ATOM     18  C   UNL     1      -0.250  -4.568  -2.488  0.00  0.00    +0.006 A 
ATOM     19  C   UNL     1      -0.952  -5.056  -3.574  0.00  0.00    +0.000 A 
ATOM     20  C   UNL     1      -2.111  -5.784  -3.377  0.00  0.00    +0.000 A 
ATOM     21  C   UNL     1      -2.567  -6.024  -2.095  0.00  0.00    +0.000 A 
ATOM     22  C   UNL     1      -1.862  -5.540  -1.009  0.00  0.00    +0.006 A 
ENDBRANCH   1  17
BRANCH   4  23
ATOM     23  C   UNL     1       3.054  -6.027   1.305  0.00  0.00    +0.213 C 
BRANCH  23  24
ATOM     24  C   UNL     1       3.857  -5.067   2.145  0.00  0.00    +0.231 C 
ATOM     25  O   UNL     1       3.392  -3.989   2.446  0.00  0.00    -0.274 OA
ATOM     26  N   UNL     1       5.093  -5.408   2.561  0.00  0.00    -0.314 N 
ATOM     27  H   UNL     1       5.466  -6.270   2.320  0.00  0.00    +0.149 HD
BRANCH  26  28
ATOM     28  C   UNL     1       5.874  -4.475   3.378  0.00  0.00    +0.108 C 
BRANCH  28  29
ATOM     29  C   UNL     1       7.229  -5.101   3.712  0.00  0.00    +0.052 C 
BRANCH  29  30
ATOM     30  C   UNL     1       8.033  -4.142   4.552  0.00  0.00    -0.040 C 
ATOM     31  C   UNL     1       8.121  -4.121   5.902  0.00  0.00    -0.001 A 
ATOM     32  C   UNL     1       7.519  -4.952   6.951  0.00  0.00    +0.010 A 
ATOM     33  C   UNL     1       7.802  -4.681   8.246  0.00  0.00    +0.001 A 
ATOM     34  C   UNL     1       8.653  -3.628   8.609  0.00  0.00    +0.002 A 
ATOM     35  C   UNL     1       9.244  -2.822   7.702  0.00  0.00    +0.026 A 
ATOM     36  C   UNL     1       9.017  -3.016   6.312  0.00  0.00    +0.043 A 
ATOM     37  N   UNL     1       9.465  -2.379   5.257  0.00  0.00    -0.380 N 
ATOM     38  C   UNL     1       8.908  -3.013   4.057  0.00  0.00    +0.144 C 
ATOM     39  H   UNL     1      10.067  -1.619   5.268  0.00  0.00    +0.160 HD
ENDBRANCH  29  30
ENDBRANCH  28  29
ENDBRANCH  26  28
ENDBRANCH  23  24
ENDBRANCH   4  23
TORSDOF 7
