REMARK  Name = ZINC33514886
REMARK  7 active torsions:
REMARK  status: ('A' for Active; 'I' for Inactive)
REMARK    1  A    between atoms: C_4  and  C_7
REMARK    2  A    between atoms: N_8  and  C_9
REMARK    3  A    between atoms: N_15  and  C_16
REMARK    4  A    between atoms: C_22  and  C_24
REMARK    5  A    between atoms: C_26  and  O_32
REMARK    6  A    between atoms: C_27  and  O_31
REMARK    7  A    between atoms: C_28  and  O_30
REMARK                            x       y       z     vdW  Elec       q    Type
REMARK                         _______ _______ _______ _____ _____    ______ ____
ROOT
ATOM      1  C   UNL     1       2.018   3.951  -0.756  0.00  0.00    +0.140 C 
ATOM      2  N   UNL     1       2.865   3.236  -1.456  0.00  0.00    -0.231 NA
ATOM      3  N   UNL     1       2.151   5.327  -0.704  0.00  0.00    -0.220 N 
ATOM      4  C   UNL     1       1.202   6.074  -0.106  0.00  0.00    +0.257 C 
ATOM      5  O   UNL     1       0.259   5.535   0.440  0.00  0.00    -0.269 OA
ENDROOT
BRANCH   1   9
ATOM      6  C   UNL     1      -1.138   2.046   1.353  0.00  0.00    +0.000 A 
ATOM      7  C   UNL     1      -1.039   1.899  -0.019  0.00  0.00    +0.001 A 
ATOM      8  C   UNL     1      -0.018   2.516  -0.711  0.00  0.00    +0.011 A 
ATOM      9  C   UNL     1       0.921   3.287  -0.022  0.00  0.00    +0.016 A 
ATOM     10  C   UNL     1       0.818   3.428   1.363  0.00  0.00    +0.011 A 
ATOM     11  C   UNL     1      -0.208   2.804   2.042  0.00  0.00    +0.001 A 
ENDBRANCH   1   9
BRANCH   2  12
ATOM     12  C   UNL     1       2.812   1.871  -1.407  0.00  0.00    +0.066 A 
ATOM     13  C   UNL     1       2.928   1.208  -0.182  0.00  0.00    +0.028 A 
ATOM     14  C   UNL     1       2.869  -0.170  -0.139  0.00  0.00    +0.002 A 
ATOM     15  C   UNL     1       2.705  -0.895  -1.306  0.00  0.00    +0.000 A 
ATOM     16  C   UNL     1       2.595  -0.246  -2.523  0.00  0.00    +0.002 A 
ATOM     17  C   UNL     1       2.647   1.131  -2.580  0.00  0.00    +0.028 A 
ENDBRANCH   2  12
BRANCH   3  18
ATOM     18  C   UNL     1       3.273   5.943  -1.272  0.00  0.00    +0.043 A 
ATOM     19  C   UNL     1       4.550   5.554  -0.889  0.00  0.00    +0.024 A 
ATOM     20  C   UNL     1       5.654   6.160  -1.455  0.00  0.00    +0.002 A 
ATOM     21  C   UNL     1       5.489   7.162  -2.394  0.00  0.00    +0.000 A 
ATOM     22  C   UNL     1       4.219   7.556  -2.774  0.00  0.00    +0.002 A 
ATOM     23  C   UNL     1       3.110   6.949  -2.215  0.00  0.00    +0.024 A 
ENDBRANCH   3  18
BRANCH   4  24
ATOM     24  C   UNL     1       1.308   7.545  -0.114  0.00  0.00    +0.045 A 
ATOM     25  C   UNL     1       2.564   8.157  -0.070  0.00  0.00    +0.062 A 
ATOM     26  C   UNL     1       2.660   9.536  -0.085  0.00  0.00    +0.163 A 
ATOM     27  C   UNL     1       1.507  10.315  -0.130  0.00  0.00    +0.201 A 
ATOM     28  C   UNL     1       0.254   9.708  -0.167  0.00  0.00    +0.163 A 
ATOM     29  C   UNL     1       0.152   8.330  -0.160  0.00  0.00    +0.062 A 
BRANCH  28  30
ATOM     30  O   UNL     1      -0.870  10.472  -0.211  0.00  0.00    -0.503 OA
ATOM     31  H   UNL     1      -1.860   9.993  -0.241  0.00  0.00    +0.292 HD
ENDBRANCH  28  30
BRANCH  27  32
ATOM     32  O   UNL     1       1.604  11.671  -0.137  0.00  0.00    -0.501 OA
ATOM     33  H   UNL     1       0.694  12.287  -0.172  0.00  0.00    +0.292 HD
ENDBRANCH  27  32
BRANCH  26  34
ATOM     34  O   UNL     1       3.882  10.132  -0.048  0.00  0.00    -0.503 OA
ATOM     35  H   UNL     1       3.959  11.229  -0.059  0.00  0.00    +0.292 HD
ENDBRANCH  26  34
ENDBRANCH   4  24
TORSDOF 7
