REMARK  Name = ZINC21219419
REMARK  7 active torsions:
REMARK  status: ('A' for Active; 'I' for Inactive)
REMARK    1  A    between atoms: C_1  and  O_2
REMARK    2  A    between atoms: O_2  and  C_3
REMARK    3  A    between atoms: C_5  and  C_17
REMARK    4  A    between atoms: C_8  and  O_9
REMARK    5  A    between atoms: O_9  and  C_10
REMARK    6  A    between atoms: C_10  and  C_11
REMARK    7  A    between atoms: C_28  and  C_31
REMARK                            x       y       z     vdW  Elec       q    Type
REMARK                         _______ _______ _______ _____ _____    ______ ____
ROOT
ATOM      1  C   UNL     1      -4.577   4.920   0.010  0.00  0.00    +0.063 C 
ATOM      2  C   UNL     1      -5.449   4.480  -1.167  0.00  0.00    +0.109 C 
ATOM      3  C   UNL     1      -4.615   4.466  -2.421  0.00  0.00    +0.218 C 
ATOM      4  O   UNL     1      -5.119   4.751  -3.486  0.00  0.00    -0.275 OA
ATOM      5  N   UNL     1      -3.312   4.139  -2.363  0.00  0.00    -0.289 N 
ATOM      6  C   UNL     1      -2.720   3.790  -1.176  0.00  0.00    +0.018 C 
ATOM      7  C   UNL     1      -3.286   4.136  -0.001  0.00  0.00    +0.020 C 
ATOM      8  C   UNL     1      -2.701   3.781   1.226  0.00  0.00    +0.162 C 
ATOM      9  O   UNL     1      -3.234   4.121   2.263  0.00  0.00    -0.292 OA
ATOM     10  C   UNL     1      -1.423   2.987   1.275  0.00  0.00    +0.088 C 
ATOM     11  C   UNL     1      -1.332   2.113   0.020  0.00  0.00    +0.032 C 
ATOM     12  C   UNL     1      -1.425   3.016  -1.212  0.00  0.00    +0.059 C 
ATOM     13  H   UNL     1      -2.701   4.149  -3.277  0.00  0.00    +0.155 HD
ENDROOT
BRANCH  11  14
ATOM     14  C   UNL     1      -0.017   1.378   0.010  0.00  0.00    -0.042 A 
ATOM     15  C   UNL     1       1.171   2.086   0.002  0.00  0.00    +0.005 A 
ATOM     16  C   UNL     1       2.378   1.413  -0.013  0.00  0.00    +0.022 A 
ATOM     17  C   UNL     1       2.398   0.030  -0.021  0.00  0.00    +0.059 A 
ATOM     18  C   UNL     1       1.209  -0.679  -0.013  0.00  0.00    +0.060 A 
ATOM     19  C   UNL     1       0.002  -0.004   0.002  0.00  0.00    +0.025 A 
ATOM     20 CL   UNL     1       1.234  -2.415  -0.022  0.00  0.00    -0.082 Cl
ATOM     21 CL   UNL     1       3.914  -0.816  -0.040  0.00  0.00    -0.082 Cl
ENDBRANCH  11  14
BRANCH   1  24
ATOM     22  C   UNL     1      -4.386   8.615   0.775  0.00  0.00    +0.162 A 
ATOM     23  C   UNL     1      -4.670   7.263   0.884  0.00  0.00    +0.053 A 
ATOM     24  C   UNL     1      -4.273   6.391  -0.112  0.00  0.00    -0.036 A 
ATOM     25  C   UNL     1      -3.602   6.866  -1.224  0.00  0.00    +0.008 A 
ATOM     26  C   UNL     1      -3.320   8.214  -1.341  0.00  0.00    +0.050 A 
ATOM     27  C   UNL     1      -3.711   9.093  -0.344  0.00  0.00    +0.162 A 
BRANCH  22  29
ATOM     28  C   UNL     1      -5.461   8.912   2.876  0.00  0.00    +0.277 C 
ATOM     29  O   UNL     1      -4.772   9.473   1.757  0.00  0.00    -0.491 OA
ENDBRANCH  22  29
BRANCH  27  30
ATOM     30  O   UNL     1      -3.435  10.420  -0.458  0.00  0.00    -0.484 OA
BRANCH  30  31
ATOM     31  C   UNL     1      -2.739  10.839  -1.633  0.00  0.00    +0.264 C 
BRANCH  31  32
ATOM     32  C   UNL     1      -2.523  12.330  -1.584  0.00  0.00    -0.010 A 
ATOM     33  C   UNL     1      -3.467  13.183  -2.126  0.00  0.00    +0.007 A 
ATOM     34  C   UNL     1      -3.272  14.550  -2.076  0.00  0.00    +0.000 A 
ATOM     35  C   UNL     1      -2.128  15.065  -1.496  0.00  0.00    +0.000 A 
ATOM     36  C   UNL     1      -1.181  14.211  -0.960  0.00  0.00    +0.000 A 
ATOM     37  C   UNL     1      -1.379  12.844  -1.004  0.00  0.00    +0.007 A 
ENDBRANCH  31  32
ENDBRANCH  30  31
ENDBRANCH  27  30
ENDBRANCH   1  24
TORSDOF 6
