REMARK  Name = ZINC06166343
REMARK  6 active torsions:
REMARK  status: ('A' for Active; 'I' for Inactive)
REMARK    1  A    between atoms: C_1  and  C_2
REMARK    2  A    between atoms: N_13  and  C_16
REMARK    3  A    between atoms: C_16  and  C_18
REMARK    4  A    between atoms: C_16  and  C_19
REMARK    5  A    between atoms: N_21  and  N_22
REMARK    6  A    between atoms: C_23  and  C_24
REMARK                            x       y       z     vdW  Elec       q    Type
REMARK                         _______ _______ _______ _____ _____    ______ ____
ROOT
ATOM      1  C   UNL     1       0.826   5.141   0.548  0.00  0.00    +0.008 C 
ATOM      2  C   UNL     1       1.423   4.148   1.547  0.00  0.00    -0.009 C 
ATOM      3  C   UNL     1       1.113   4.601   2.976  0.00  0.00    +0.008 C 
ATOM      4  C   UNL     1       1.484   3.495   3.964  0.00  0.00    +0.037 C 
ATOM      5  C   UNL     1       2.928   3.070   3.712  0.00  0.00    -0.023 A 
ATOM      6  C   UNL     1       3.535   3.361   2.537  0.00  0.00    -0.004 A 
ATOM      7  S   UNL     1       5.173   2.691   2.682  0.00  0.00    -0.073 S 
ATOM      8  C   UNL     1       5.040   2.025   4.310  0.00  0.00    +0.116 A 
ATOM      9  C   UNL     1       3.719   2.347   4.691  0.00  0.00    +0.076 A 
ATOM     10  C   UNL     1       3.297   1.929   5.998  0.00  0.00    +0.263 A 
ATOM     11  O   UNL     1       2.177   2.158   6.422  0.00  0.00    -0.267 OA
ATOM     12  N   UNL     1       4.223   1.265   6.730  0.00  0.00    -0.287 N 
ATOM     13  C   UNL     1       5.472   1.002   6.278  0.00  0.00    +0.204 A 
ATOM     14  N   UNL     1       5.896   1.367   5.088  0.00  0.00    -0.230 NA
ATOM     15  C   UNL     1       2.947   4.092   1.369  0.00  0.00    +0.046 C 
ENDROOT
BRANCH  12  16
ATOM     16  C   UNL     1       3.857   0.811   8.074  0.00  0.00    +0.176 C 
ATOM     17  C   UNL     1       4.789   1.456   9.102  0.00  0.00    +0.041 C 
BRANCH  16  18
ATOM     18  C   UNL     1       3.985  -0.688   8.150  0.00  0.00    +0.255 C 
ATOM     19  O   UNL     1       4.381  -1.312   7.188  0.00  0.00    -0.272 OA
ATOM     20  N   UNL     1       3.659  -1.336   9.286  0.00  0.00    -0.205 N 
ATOM     21  H   UNL     1       3.276  -0.846  10.031  0.00  0.00    +0.177 HD
BRANCH  20  22
ATOM     22  N   UNL     1       3.873  -2.716   9.391  0.00  0.00    -0.188 NA
ATOM     23  C   UNL     1       3.474  -3.356  10.448  0.00  0.00    +0.139 C 
BRANCH  23  24
ATOM     24  C   UNL     1       2.601  -2.686  11.429  0.00  0.00    +0.013 A 
ATOM     25  C   UNL     1       1.753  -1.652  11.024  0.00  0.00    +0.011 A 
ATOM     26  C   UNL     1       0.936  -1.033  11.947  0.00  0.00    +0.001 A 
ATOM     27  C   UNL     1       0.961  -1.427  13.273  0.00  0.00    +0.001 A 
ATOM     28  C   UNL     1       1.801  -2.446  13.684  0.00  0.00    +0.020 A 
ATOM     29  C   UNL     1       2.621  -3.079  12.771  0.00  0.00    +0.050 A 
ATOM     30 CL   UNL     1       3.676  -4.357  13.287  0.00  0.00    -0.083 Cl
ENDBRANCH  23  24
ENDBRANCH  20  22
ENDBRANCH  16  18
ENDBRANCH  12  16
TORSDOF 4
