REMARK  Name = ZINC41661210
REMARK  6 active torsions:
REMARK  status: ('A' for Active; 'I' for Inactive)
REMARK    1  A    between atoms: C_1  and  C_2
REMARK    2  A    between atoms: C_6  and  C_7
REMARK    3  A    between atoms: N_19  and  C_22
REMARK    4  A    between atoms: C_22  and  C_23
REMARK    5  A    between atoms: C_28  and  O_29
REMARK    6  A    between atoms: O_29  and  C_30
REMARK                            x       y       z     vdW  Elec       q    Type
REMARK                         _______ _______ _______ _____ _____    ______ ____
ROOT
ATOM      1  C   UNL     1      -0.023  -0.280   2.791  0.00  0.00    +0.065 C 
ATOM      2  C   UNL     1      -0.061  -1.226   3.775  0.00  0.00    +0.177 C 
ATOM      3  C   UNL     1      -0.163  -0.970   5.168  0.00  0.00    +0.231 C 
ATOM      4  O   UNL     1      -0.233   0.116   5.719  0.00  0.00    -0.283 OA
ATOM      5  C   UNL     1      -0.167  -2.299   5.804  0.00  0.00    +0.068 A 
ATOM      6  C   UNL     1      -0.244  -2.731   7.128  0.00  0.00    +0.019 A 
ATOM      7  C   UNL     1      -0.222  -4.067   7.408  0.00  0.00    +0.047 A 
ATOM      8  C   UNL     1      -0.124  -5.003   6.379  0.00  0.00    +0.130 A 
ATOM      9  C   UNL     1      -0.049  -4.588   5.061  0.00  0.00    +0.051 A 
ATOM     10  C   UNL     1      -0.068  -3.232   4.759  0.00  0.00    +0.147 A 
ATOM     11  O   UNL     1      -0.013  -2.566   3.586  0.00  0.00    -0.451 OA
ATOM     12  C   UNL     1       0.049  -5.590   3.939  0.00  0.00    +0.130 C 
ATOM     13  N   UNL     1       0.462  -6.894   4.476  0.00  0.00    -0.262 NA
ATOM     14  C   UNL     1      -0.371  -7.251   5.636  0.00  0.00    +0.319 C 
ATOM     15  O   UNL     1      -0.102  -6.326   6.692  0.00  0.00    -0.476 OA
ENDROOT
BRANCH   1  21
ATOM     16  C   UNL     1       0.081   1.627   0.361  0.00  0.00    +0.045 C 
ATOM     17  C   UNL     1       0.126   0.122   0.295  0.00  0.00    -0.036 A 
ATOM     18  C   UNL     1       0.227  -0.556  -0.895  0.00  0.00    +0.011 A 
ATOM     19  C   UNL     1       0.263  -1.912  -0.882  0.00  0.00    +0.046 A 
ATOM     20  S   UNL     1       0.161  -2.313   0.746  0.00  0.00    -0.097 S 
ATOM     21  C   UNL     1       0.074  -0.672   1.438  0.00  0.00    +0.019 A 
ENDBRANCH   1  21
BRANCH  13  22
ATOM     22  C   UNL     1       0.398  -7.934   3.442  0.00  0.00    +0.126 C 
BRANCH  22  23
ATOM     23  C   UNL     1       1.177  -9.142   3.895  0.00  0.00    +0.008 A 
ATOM     24  C   UNL     1       0.510 -10.275   4.321  0.00  0.00    +0.008 A 
ATOM     25  C   UNL     1       1.223 -11.383   4.737  0.00  0.00    +0.001 A 
ATOM     26  C   UNL     1       2.606 -11.362   4.729  0.00  0.00    +0.004 A 
ATOM     27  C   UNL     1       3.277 -10.232   4.303  0.00  0.00    +0.046 A 
ATOM     28  C   UNL     1       2.563  -9.120   3.880  0.00  0.00    +0.124 A 
BRANCH  28  29
ATOM     29  O   UNL     1       3.222  -8.009   3.456  0.00  0.00    -0.495 OA
ATOM     30  C   UNL     1       4.650  -8.058   3.467  0.00  0.00    +0.277 C 
ENDBRANCH  28  29
ENDBRANCH  22  23
ENDBRANCH  13  22
TORSDOF 4
