REMARK  Name = ZINC63562733
REMARK  5 active torsions:
REMARK  status: ('A' for Active; 'I' for Inactive)
REMARK    1  A    between atoms: C_13  and  N_17
REMARK    2  A    between atoms: C_18  and  C_20
REMARK    3  A    between atoms: C_20  and  S_21
REMARK    4  A    between atoms: S_21  and  C_22
REMARK    5  A    between atoms: C_28  and  N_32
REMARK                            x       y       z     vdW  Elec       q    Type
REMARK                         _______ _______ _______ _____ _____    ______ ____
ROOT
ATOM      1  N   UNL     1       6.166  -2.105  -0.070  0.00  0.00    -0.284 N 
ATOM      2  C   UNL     1       7.341  -2.760   0.018  0.00  0.00    +0.227 C 
ATOM      3  O   UNL     1       7.361  -3.973   0.011  0.00  0.00    -0.275 OA
ATOM      4  H   UNL     1       6.154  -1.138  -0.145  0.00  0.00    +0.155 HD
ENDROOT
BRANCH   1  17
ATOM      5  C   UNL     1       0.370   0.657  -3.095  0.00  0.00    +0.001 A 
ATOM      6  C   UNL     1       1.554   1.371  -3.119  0.00  0.00    +0.001 A 
ATOM      7  C   UNL     1       2.697   0.853  -2.536  0.00  0.00    +0.012 A 
ATOM      8  C   UNL     1       2.658  -0.395  -1.921  0.00  0.00    +0.033 A 
ATOM      9  C   UNL     1       1.454  -1.121  -1.895  0.00  0.00    +0.033 A 
ATOM     10  C   UNL     1       0.313  -0.585  -2.487  0.00  0.00    +0.012 A 
ATOM     11  C   UNL     1       1.403  -2.446  -1.244  0.00  0.00    +0.195 C 
ATOM     12  O   UNL     1       0.363  -3.074  -1.222  0.00  0.00    -0.287 OA
ATOM     13  C   UNL     1       2.620  -3.006  -0.619  0.00  0.00    +0.035 A 
ATOM     14  C   UNL     1       2.582  -4.253  -0.004  0.00  0.00    +0.012 A 
ATOM     15  C   UNL     1       3.725  -4.774   0.581  0.00  0.00    +0.003 A 
ATOM     16  C   UNL     1       4.909  -4.067   0.560  0.00  0.00    +0.024 A 
ATOM     17  C   UNL     1       4.971  -2.816  -0.051  0.00  0.00    +0.045 A 
ATOM     18  C   UNL     1       3.824  -2.277  -0.645  0.00  0.00    +0.054 A 
ATOM     19  C   UNL     1       3.874  -0.956  -1.296  0.00  0.00    +0.196 C 
ATOM     20  O   UNL     1       4.914  -0.328  -1.317  0.00  0.00    -0.287 OA
ENDBRANCH   1  17
BRANCH   2  21
ATOM     21  C   UNL     1       8.629  -1.986   0.124  0.00  0.00    +0.169 C 
BRANCH  21  22
ATOM     22  S   UNL     1      10.023  -3.142   0.225  0.00  0.00    -0.106 S 
BRANCH  22  23
ATOM     23  C   UNL     1      11.478  -2.066   0.346  0.00  0.00    +0.236 C 
ATOM     24  N   UNL     1      11.357  -1.183   1.513  0.00  0.00    -0.355 N 
ATOM     25  C   UNL     1      11.363   0.043   1.077  0.00  0.00    +0.061 A 
ATOM     26  C   UNL     1      11.272   1.344   1.754  0.00  0.00    +0.029 A 
ATOM     27  C   UNL     1      11.306   2.478   1.025  0.00  0.00    +0.035 A 
ATOM     28  C   UNL     1      11.425   2.474  -0.376  0.00  0.00    +0.128 A 
ATOM     29  C   UNL     1      11.515   1.337  -1.095  0.00  0.00    +0.060 A 
ATOM     30  C   UNL     1      11.489   0.040  -0.406  0.00  0.00    +0.063 A 
ATOM     31  N   UNL     1      11.557  -1.190  -0.831  0.00  0.00    -0.355 N 
ATOM     32  H   UNL     1      11.644  -1.476  -1.754  0.00  0.00    +0.162 HD
ATOM     33  H   UNL     1      11.285  -1.463   2.439  0.00  0.00    +0.162 HD
BRANCH  28  34
ATOM     34  N   UNL     1      11.453   3.770  -1.090  0.00  0.00    +0.056 N 
ATOM     35  O   UNL     1      11.374   4.804  -0.469  0.00  0.00    -0.126 OA
ATOM     36  O   UNL     1      11.555   3.795  -2.295  0.00  0.00    -0.126 OA
ENDBRANCH  28  34
ENDBRANCH  22  23
ENDBRANCH  21  22
ENDBRANCH   2  21
TORSDOF 5
