REMARK  Name = ZINC13499334
REMARK  12 active torsions:
REMARK  status: ('A' for Active; 'I' for Inactive)
REMARK    1  A    between atoms: C_1  and  C_2
REMARK    2  A    between atoms: C_2  and  C_3
REMARK    3  A    between atoms: C_3  and  C_4
REMARK    4  A    between atoms: C_4  and  C_6
REMARK    5  A    between atoms: C_4  and  N_72
REMARK    6  A    between atoms: N_10  and  C_11
REMARK    7  A    between atoms: C_11  and  C_12
REMARK    8  A    between atoms: C_12  and  C_13
REMARK    9  A    between atoms: C_19  and  C_20
REMARK   10  A    between atoms: C_19  and  N_72
REMARK   11  A    between atoms: C_25  and  C_32
REMARK   12  A    between atoms: C_33  and  N_72
REMARK                            x       y       z     vdW  Elec       q    Type
REMARK                         _______ _______ _______ _____ _____    ______ ____
ROOT
ATOM      1  N   UNL     1      -0.964   1.492   1.605  0.00  0.00    +0.391 N 
ATOM      2  H   UNL     1      -1.123   2.438   1.970  0.00  0.00    -0.080 HD
ENDROOT
BRANCH   1   3
ATOM      3  C   UNL     1       0.258   1.496   0.773  0.00  0.00    -0.067 C 
ATOM      4  C   UNL     1       0.170   2.622  -0.287  0.00  0.00    -0.015 C 
ATOM      5  C   UNL     1       1.659   2.906  -0.608  0.00  0.00    -0.002 C 
ATOM      6  C   UNL     1       2.370   2.777   0.755  0.00  0.00    -0.002 C 
ATOM      7  C   UNL     1       1.480   1.881   1.633  0.00  0.00    -0.015 C 
ENDBRANCH   1   3
BRANCH   1   8
ATOM      8  C   UNL     1      -2.129   1.089   0.790  0.00  0.00    +0.003 C 
BRANCH   8   9
ATOM      9  C   UNL     1      -1.744  -0.002  -0.177  0.00  0.00    +0.138 A 
ATOM     10  N   UNL     1      -0.820   0.066  -1.104  0.00  0.00    -0.115 NA
ATOM     11  N   UNL     1      -0.791  -1.066  -1.720  0.00  0.00    -0.023 NA
ATOM     12  N   UNL     1      -1.673  -1.853  -1.209  0.00  0.00    -0.044 NA
ATOM     13  N   UNL     1      -2.277  -1.235  -0.251  0.00  0.00    -0.231 N 
BRANCH  13  14
ATOM     14  C   UNL     1      -3.345  -1.774   0.595  0.00  0.00    +0.152 C 
BRANCH  14  15
ATOM     15  C   UNL     1      -4.702  -1.479  -0.048  0.00  0.00    +0.058 C 
BRANCH  15  16
ATOM     16  C   UNL     1      -5.801  -2.033   0.821  0.00  0.00    -0.046 A 
ATOM     17  C   UNL     1      -6.254  -3.324   0.624  0.00  0.00    +0.004 A 
ATOM     18  C   UNL     1      -7.258  -3.834   1.426  0.00  0.00    +0.000 A 
ATOM     19  C   UNL     1      -7.817  -3.049   2.417  0.00  0.00    +0.000 A 
ATOM     20  C   UNL     1      -7.368  -1.756   2.610  0.00  0.00    +0.000 A 
ATOM     21  C   UNL     1      -6.360  -1.248   1.812  0.00  0.00    +0.004 A 
ENDBRANCH  15  16
ENDBRANCH  14  15
ENDBRANCH  13  14
ENDBRANCH   8   9
BRANCH   8  22
ATOM     22  C   UNL     1      -2.626   2.308   0.011  0.00  0.00    -0.008 C 
BRANCH  22  24
ATOM     23  C   UNL     1      -3.644   4.580   0.221  0.00  0.00    +0.004 C 
ATOM     24  C   UNL     1      -3.032   3.409   0.993  0.00  0.00    -0.005 C 
ENDBRANCH  22  24
ENDBRANCH   8  22
ENDBRANCH   1   8
BRANCH   1  25
ATOM     25  C   UNL     1      -0.797   0.561   2.742  0.00  0.00    -0.036 C 
BRANCH  25  26
ATOM     26  C   UNL     1      -1.843   0.875   3.781  0.00  0.00    +0.001 A 
ATOM     27  C   UNL     1      -2.971   0.125   3.852  0.00  0.00    +0.017 A 
ATOM     28  C   UNL     1      -3.965   0.452   4.876  0.00  0.00    -0.001 A 
ATOM     29  C   UNL     1      -5.145  -0.288   5.001  0.00  0.00    +0.010 A 
ATOM     30  C   UNL     1      -6.055   0.046   5.963  0.00  0.00    +0.004 A 
ATOM     31  C   UNL     1      -5.820   1.115   6.817  0.00  0.00    -0.048 A 
ATOM     32  C   UNL     1      -4.664   1.858   6.713  0.00  0.00    +0.029 A 
ATOM     33  C   UNL     1      -3.722   1.536   5.740  0.00  0.00    +0.049 A 
ATOM     34  N   UNL     1      -2.558   2.263   5.612  0.00  0.00    -0.322 N 
ATOM     35  H   UNL     1      -2.393   3.010   6.208  0.00  0.00    +0.169 HD
ATOM     36  C   UNL     1      -1.649   1.952   4.672  0.00  0.00    +0.251 A 
ATOM     37  O   UNL     1      -0.630   2.617   4.587  0.00  0.00    -0.268 OA
ATOM     38  C   UNL     1      -6.838   1.466   7.871  0.00  0.00    +0.044 C 
ENDBRANCH  25  26
ENDBRANCH   1  25
TORSDOF 10
