REMARK  Name = ZINC01317986
REMARK  7 active torsions:
REMARK  status: ('A' for Active; 'I' for Inactive)
REMARK    1  A    between atoms: C_1  and  C_2
REMARK    2  A    between atoms: C_5  and  C_8
REMARK    3  A    between atoms: C_19  and  C_21
REMARK    4  A    between atoms: C_24  and  O_29
REMARK    5  A    between atoms: C_25  and  O_27
REMARK    6  A    between atoms: O_27  and  C_28
REMARK    7  A    between atoms: O_29  and  C_30
REMARK                            x       y       z     vdW  Elec       q    Type
REMARK                         _______ _______ _______ _____ _____    ______ ____
ROOT
ATOM      1  C   UNL     1      -0.006  -4.197  -0.211  0.00  0.00    +0.163 C 
ATOM      2  C   UNL     1       1.420  -4.675  -0.050  0.00  0.00    +0.028 C 
ATOM      3  C   UNL     1       1.713  -5.440   1.022  0.00  0.00    +0.083 C 
ATOM      4  C   UNL     1       3.114  -5.912   1.165  0.00  0.00    +0.042 A 
ATOM      5  C   UNL     1       3.588  -6.423   2.365  0.00  0.00    +0.013 A 
ATOM      6  C   UNL     1       4.900  -6.848   2.454  0.00  0.00    +0.001 A 
ATOM      7  C   UNL     1       5.736  -6.765   1.354  0.00  0.00    +0.004 A 
ATOM      8  C   UNL     1       5.270  -6.258   0.155  0.00  0.00    +0.046 A 
ATOM      9  C   UNL     1       3.958  -5.830   0.051  0.00  0.00    +0.131 A 
ATOM     10  O   UNL     1       3.473  -5.335  -1.116  0.00  0.00    -0.479 OA
ATOM     11  C   UNL     1       2.485  -4.306  -1.040  0.00  0.00    +0.234 C 
ATOM     12  N   UNL     1       0.766  -5.769   1.934  0.00  0.00    -0.216 NA
ATOM     13  C   UNL     1      -0.491  -5.391   1.861  0.00  0.00    +0.209 C 
ATOM     14  N   UNL     1      -0.947  -4.617   0.838  0.00  0.00    -0.182 N 
ATOM     15  N   UNL     1      -2.308  -4.394   1.052  0.00  0.00    -0.169 NA
ATOM     16  C   UNL     1      -2.654  -4.996   2.144  0.00  0.00    +0.208 C 
ATOM     17  N   UNL     1      -1.567  -5.626   2.677  0.00  0.00    -0.275 N 
ATOM     18  H   UNL     1      -1.558  -6.147   3.495  0.00  0.00    +0.156 HD
ENDROOT
BRANCH   1  23
ATOM     19  C   UNL     1       0.035   1.579  -0.384  0.00  0.00    +0.044 C 
ATOM     20  C   UNL     1       0.024   0.073  -0.339  0.00  0.00    -0.050 A 
ATOM     21  C   UNL     1      -0.108  -0.653  -1.508  0.00  0.00    +0.004 A 
ATOM     22  C   UNL     1      -0.118  -2.034  -1.467  0.00  0.00    +0.006 A 
ATOM     23  C   UNL     1       0.005  -2.691  -0.256  0.00  0.00    -0.021 A 
ATOM     24  C   UNL     1       0.139  -1.965   0.913  0.00  0.00    +0.006 A 
ATOM     25  C   UNL     1       0.153  -0.584   0.871  0.00  0.00    +0.004 A 
ENDBRANCH   1  23
BRANCH  11  26
ATOM     26  C   UNL     1       3.139  -3.018  -0.612  0.00  0.00    +0.001 A 
ATOM     27  C   UNL     1       2.916  -1.859  -1.332  0.00  0.00    +0.011 A 
ATOM     28  C   UNL     1       3.514  -0.674  -0.943  0.00  0.00    +0.050 A 
ATOM     29  C   UNL     1       4.338  -0.647   0.171  0.00  0.00    +0.162 A 
ATOM     30  C   UNL     1       4.562  -1.814   0.895  0.00  0.00    +0.162 A 
ATOM     31  C   UNL     1       3.956  -2.996   0.503  0.00  0.00    +0.057 A 
BRANCH  30  32
ATOM     32  O   UNL     1       5.370  -1.792   1.989  0.00  0.00    -0.491 OA
ATOM     33  C   UNL     1       5.630  -3.043   2.628  0.00  0.00    +0.277 C 
ENDBRANCH  30  32
BRANCH  29  34
ATOM     34  O   UNL     1       4.928   0.517   0.554  0.00  0.00    -0.491 OA
ATOM     35  C   UNL     1       4.653   1.675  -0.238  0.00  0.00    +0.277 C 
ENDBRANCH  29  34
ENDBRANCH  11  26
TORSDOF 4
