REMARK  Name = ZINC63373366
REMARK  4 active torsions:
REMARK  status: ('A' for Active; 'I' for Inactive)
REMARK    1  A    between atoms: C_1  and  O_2
REMARK    2  A    between atoms: O_2  and  C_3
REMARK    3  A    between atoms: C_10  and  C_18
REMARK    4  A    between atoms: N_22  and  C_25
REMARK                            x       y       z     vdW  Elec       q    Type
REMARK                         _______ _______ _______ _____ _____    ______ ____
ROOT
ATOM      1  C   UNL     1       0.211  -4.122  -1.699  0.00  0.00    +0.121 A 
ATOM      2  C   UNL     1      -0.408  -2.967  -1.190  0.00  0.00    +0.047 A 
ATOM      3  C   UNL     1      -1.706  -2.942  -0.820  0.00  0.00    +0.029 A 
ATOM      4  C   UNL     1      -2.523  -4.152  -0.945  0.00  0.00    +0.043 A 
ATOM      5  N   UNL     1      -3.789  -4.385  -0.684  0.00  0.00    -0.376 N 
ATOM      6  C   UNL     1      -4.054  -5.801  -0.911  0.00  0.00    +0.128 C 
ATOM      7  C   UNL     1      -5.191  -6.036  -1.909  0.00  0.00    +0.121 C 
ATOM      8  N   UNL     1      -5.187  -7.458  -2.289  0.00  0.00    -0.307 NA
ATOM      9  C   UNL     1      -4.001  -7.848  -3.057  0.00  0.00    +0.086 C 
ATOM     10  C   UNL     1      -2.740  -7.721  -2.181  0.00  0.00    +0.048 C 
ATOM     11  C   UNL     1      -2.784  -6.352  -1.540  0.00  0.00    -0.035 C 
ATOM     12  C   UNL     1      -1.875  -5.371  -1.492  0.00  0.00    +0.003 A 
ATOM     13  C   UNL     1      -0.458  -5.288  -1.863  0.00  0.00    +0.055 A 
ATOM     14  H   UNL     1      -5.305  -8.049  -1.480  0.00  0.00    +0.123 HD
ATOM     15  H   UNL     1      -4.438  -3.726  -0.390  0.00  0.00    +0.160 HD
ENDROOT
BRANCH   7  16
ATOM     16  C   UNL     1      -6.510  -5.685  -1.269  0.00  0.00    +0.101 A 
ATOM     17  C   UNL     1      -7.255  -4.648  -1.746  0.00  0.00    +0.263 A 
ATOM     18  N   UNL     1      -8.452  -4.346  -1.149  0.00  0.00    -0.274 N 
ATOM     19  C   UNL     1      -8.891  -5.065  -0.100  0.00  0.00    +0.337 A 
ATOM     20  N   UNL     1      -8.170  -6.092   0.386  0.00  0.00    -0.229 N 
ATOM     21  C   UNL     1      -6.991  -6.426  -0.175  0.00  0.00    +0.270 A 
ATOM     22  O   UNL     1      -6.344  -7.360   0.265  0.00  0.00    -0.267 OA
ATOM     23  O   UNL     1      -9.955  -4.783   0.417  0.00  0.00    -0.246 OA
ATOM     24  O   UNL     1      -6.818  -3.923  -2.798  0.00  0.00    -0.267 OA
ATOM     25  H   UNL     1      -8.986  -3.608  -1.485  0.00  0.00    +0.173 HD
BRANCH  20  26
ATOM     26  C   UNL     1      -8.651  -6.824   1.480  0.00  0.00    +0.054 A 
ATOM     27  C   UNL     1      -8.326  -6.436   2.773  0.00  0.00    +0.028 A 
ATOM     28  C   UNL     1      -8.801  -7.158   3.850  0.00  0.00    +0.022 A 
ATOM     29  C   UNL     1      -9.600  -8.268   3.641  0.00  0.00    +0.041 A 
ATOM     30  C   UNL     1      -9.926  -8.657   2.354  0.00  0.00    +0.022 A 
ATOM     31  C   UNL     1      -9.458  -7.934   1.274  0.00  0.00    +0.028 A 
ATOM     32 CL   UNL     1     -10.195  -9.175   4.997  0.00  0.00    -0.084 Cl
ENDBRANCH  20  26
ENDBRANCH   7  16
BRANCH   1  34
ATOM     33  C   UNL     1       2.191  -2.816  -1.854  0.00  0.00    +0.277 C 
ATOM     34  O   UNL     1       1.524  -4.065  -2.044  0.00  0.00    -0.495 OA
ENDBRANCH   1  34
TORSDOF 3
