REMARK  Name = ZINC00710875
REMARK  5 active torsions:
REMARK  status: ('A' for Active; 'I' for Inactive)
REMARK    1  A    between atoms: C_3  and  N_22
REMARK    2  A    between atoms: C_4  and  N_11
REMARK    3  A    between atoms: C_6  and  C_7
REMARK    4  A    between atoms: C_12  and  C_13
REMARK    5  A    between atoms: C_18  and  O_19
REMARK                            x       y       z     vdW  Elec       q    Type
REMARK                         _______ _______ _______ _____ _____    ______ ____
ROOT
ATOM      1  C   UNL     1      -0.025   1.365   0.034  0.00  0.00    +0.014 A 
ATOM      2  C   UNL     1       1.136   2.060  -0.250  0.00  0.00    +0.026 A 
ATOM      3  C   UNL     1       2.354   1.398  -0.277  0.00  0.00    +0.056 A 
ATOM      4  C   UNL     1       2.402   0.021  -0.013  0.00  0.00    +0.085 A 
ATOM      5  C   UNL     1       1.222  -0.669   0.272  0.00  0.00    +0.042 A 
ATOM      6  C   UNL     1       0.019   0.006   0.293  0.00  0.00    +0.057 A 
ENDROOT
BRANCH   3   7
ATOM      7  N   UNL     1       3.526   2.098  -0.564  0.00  0.00    -0.324 N 
ATOM      8  C   UNL     1       4.002   2.243  -1.949  0.00  0.00    +0.133 C 
ATOM      9  C   UNL     1       4.293   3.725  -2.208  0.00  0.00    +0.178 C 
ATOM     10  O   UNL     1       5.158   4.221  -1.184  0.00  0.00    -0.377 OA
ATOM     11  C   UNL     1       4.598   4.173   0.131  0.00  0.00    +0.178 C 
ATOM     12  C   UNL     1       4.320   2.718   0.509  0.00  0.00    +0.133 C 
ENDBRANCH   3   7
BRANCH   6  13
ATOM     13  C   UNL     1      -1.254  -0.739   0.602  0.00  0.00    +0.417 C 
ATOM     14  F   UNL     1      -2.335   0.148   0.566  0.00  0.00    -0.166 F 
ATOM     15  F   UNL     1      -1.446  -1.747  -0.350  0.00  0.00    -0.166 F 
ATOM     16  F   UNL     1      -1.162  -1.312   1.875  0.00  0.00    -0.166 F 
ENDBRANCH   6  13
BRANCH   4  17
ATOM     17  N   UNL     1       3.598  -0.643  -0.037  0.00  0.00    -0.253 NA
ATOM     18  C   UNL     1       3.708  -1.765  -0.692  0.00  0.00    +0.123 C 
BRANCH  18  19
ATOM     19  C   UNL     1       4.956  -2.539  -0.620  0.00  0.00    +0.037 A 
ATOM     20  C   UNL     1       5.080  -3.740  -1.326  0.00  0.00    +0.033 A 
ATOM     21  C   UNL     1       6.254  -4.461  -1.254  0.00  0.00    +0.043 A 
ATOM     22  C   UNL     1       7.311  -4.001  -0.484  0.00  0.00    +0.043 A 
ATOM     23  C   UNL     1       7.200  -2.816   0.219  0.00  0.00    +0.084 A 
ATOM     24  C   UNL     1       6.030  -2.075   0.153  0.00  0.00    +0.144 A 
ATOM     25 CL   UNL     1       8.531  -2.251   1.180  0.00  0.00    -0.080 Cl
ATOM     26 CL   UNL     1       6.407  -5.952  -2.130  0.00  0.00    -0.083 Cl
BRANCH  24  27
ATOM     27  O   UNL     1       5.923  -0.907   0.838  0.00  0.00    -0.505 OA
ATOM     28  H   UNL     1       5.579  -1.009   1.736  0.00  0.00    +0.292 HD
ENDBRANCH  24  27
ENDBRANCH  18  19
ENDBRANCH   4  17
TORSDOF 5
