REMARK  Name = ZINC05431017
REMARK  9 active torsions:
REMARK  status: ('A' for Active; 'I' for Inactive)
REMARK    1  A    between atoms: C_1  and  C_2
REMARK    2  A    between atoms: C_2  and  C_4
REMARK    3  A    between atoms: C_4  and  O_36
REMARK    4  A    between atoms: C_8  and  O_31
REMARK    5  A    between atoms: C_11  and  O_12
REMARK    6  A    between atoms: C_19  and  O_23
REMARK    7  A    between atoms: O_23  and  C_24
REMARK    8  A    between atoms: C_24  and  C_25
REMARK    9  A    between atoms: C_32  and  O_35
REMARK                            x       y       z     vdW  Elec       q    Type
REMARK                         _______ _______ _______ _____ _____    ______ ____
ROOT
ATOM      1  C   UNL     1       1.286   1.562  -0.002  0.00  0.00    +0.130 C 
ATOM      2  C   UNL     1       2.056   1.141   1.248  0.00  0.00    +0.082 C 
ATOM      3  C   UNL     1       1.445   1.754   2.481  0.00  0.00    +0.007 A 
ATOM      4  C   UNL     1       0.595   2.830   2.427  0.00  0.00    +0.030 A 
ATOM      5  C   UNL     1       0.067   3.368   3.608  0.00  0.00    +0.134 A 
ATOM      6  C   UNL     1       0.393   2.817   4.845  0.00  0.00    +0.078 A 
ATOM      7  C   UNL     1       1.263   1.710   4.901  0.00  0.00    +0.078 A 
ATOM      8  C   UNL     1       1.781   1.187   3.717  0.00  0.00    +0.132 A 
ATOM      9  C   UNL     1       1.617   1.115   6.201  0.00  0.00    +0.198 C 
ATOM     10  O   UNL     1       2.368   0.159   6.250  0.00  0.00    -0.286 OA
ATOM     11  C   UNL     1       1.058   1.681   7.446  0.00  0.00    +0.037 A 
ATOM     12  C   UNL     1       1.386   1.126   8.678  0.00  0.00    +0.012 A 
ATOM     13  C   UNL     1       0.858   1.660   9.843  0.00  0.00    +0.004 A 
ATOM     14  C   UNL     1       0.006   2.744   9.793  0.00  0.00    +0.046 A 
ATOM     15  C   UNL     1      -0.335   3.316   8.572  0.00  0.00    +0.132 A 
ATOM     16  C   UNL     1       0.190   2.787   7.388  0.00  0.00    +0.075 A 
ATOM     17  C   UNL     1      -0.163   3.383   6.087  0.00  0.00    +0.202 C 
ATOM     18  O   UNL     1      -0.912   4.340   6.038  0.00  0.00    -0.286 OA
ATOM     19  C   UNL     1       0.189   3.478   1.128  0.00  0.00    +0.152 C 
ATOM     20  C   UNL     1       1.151   3.089   0.008  0.00  0.00    +0.079 C 
ENDROOT
BRANCH   1  22
ATOM     21  C   UNL     1       1.764  -0.223  -1.845  0.00  0.00    +0.089 C 
ATOM     22  C   UNL     1       2.038   1.126  -1.233  0.00  0.00    +0.162 C 
ATOM     23  O   UNL     1       2.860   1.859  -1.730  0.00  0.00    -0.295 OA
ENDBRANCH   1  22
BRANCH   8  24
ATOM     24  O   UNL     1       2.618   0.121   3.763  0.00  0.00    -0.506 OA
ATOM     25  H   UNL     1       2.169  -0.734   3.713  0.00  0.00    +0.292 HD
ENDBRANCH   8  24
BRANCH   5  26
ATOM     26  O   UNL     1      -0.770   4.434   3.546  0.00  0.00    -0.506 OA
ATOM     27  H   UNL     1      -1.704   4.197   3.467  0.00  0.00    +0.292 HD
ENDBRANCH   5  26
BRANCH  19  28
ATOM     28  O   UNL     1      -1.132   3.055   0.783  0.00  0.00    -0.387 OA
ATOM     29  H   UNL     1      -1.800   3.269   1.449  0.00  0.00    +0.210 HD
ENDBRANCH  19  28
BRANCH   1  30
ATOM     30  O   UNL     1      -0.011   0.963   0.007  0.00  0.00    -0.381 OA
ATOM     31  H   UNL     1       0.002  -0.004   0.002  0.00  0.00    +0.211 HD
ENDBRANCH   1  30
BRANCH  15  32
ATOM     32  O   UNL     1      -1.173   4.381   8.529  0.00  0.00    -0.487 OA
BRANCH  32  33
ATOM     33  C   UNL     1      -1.670   4.866   9.777  0.00  0.00    +0.264 C 
BRANCH  33  34
ATOM     34  C   UNL     1      -2.579   6.043   9.533  0.00  0.00    -0.010 A 
ATOM     35  C   UNL     1      -2.060   7.324   9.511  0.00  0.00    +0.007 A 
ATOM     36  C   UNL     1      -2.893   8.404   9.282  0.00  0.00    +0.000 A 
ATOM     37  C   UNL     1      -4.247   8.203   9.086  0.00  0.00    +0.000 A 
ATOM     38  C   UNL     1      -4.766   6.922   9.113  0.00  0.00    +0.000 A 
ATOM     39  C   UNL     1      -3.933   5.842   9.336  0.00  0.00    +0.007 A 
ENDBRANCH  33  34
ENDBRANCH  32  33
ENDBRANCH  15  32
TORSDOF 8
