REMARK  Name = ZINC35944102
REMARK  8 active torsions:
REMARK  status: ('A' for Active; 'I' for Inactive)
REMARK    1  A    between atoms: C_4  and  C_7
REMARK    2  A    between atoms: C_7  and  N_8
REMARK    3  A    between atoms: N_8  and  C_9
REMARK    4  A    between atoms: N_8  and  C_16
REMARK    5  A    between atoms: C_9  and  C_10
REMARK    6  A    between atoms: C_16  and  C_17
REMARK    7  A    between atoms: N_19  and  N_20
REMARK    8  A    between atoms: C_21  and  C_22
REMARK                            x       y       z     vdW  Elec       q    Type
REMARK                         _______ _______ _______ _____ _____    ______ ____
ROOT
ATOM      1  C   UNL     1       5.367  -3.355   2.300  0.00  0.00    +0.216 C 
ATOM      2  O   UNL     1       4.665  -3.235   3.282  0.00  0.00    -0.276 OA
ATOM      3  N   UNL     1       6.324  -4.303   2.267  0.00  0.00    -0.209 N 
ATOM      4  H   UNL     1       6.932  -4.353   1.513  0.00  0.00    +0.177 HD
ENDROOT
BRANCH   3   5
ATOM      5  N   UNL     1       6.441  -5.217   3.322  0.00  0.00    -0.188 NA
ATOM      6  C   UNL     1       7.425  -6.068   3.340  0.00  0.00    +0.139 C 
BRANCH   6   7
ATOM      7  C   UNL     1       7.487  -7.096   4.383  0.00  0.00    +0.010 A 
ATOM      8  C   UNL     1       8.614  -7.938   4.490  0.00  0.00    -0.009 A 
ATOM      9  C   UNL     1       9.698  -7.814   3.604  0.00  0.00    +0.009 A 
ATOM     10  C   UNL     1      10.770  -8.641   3.734  0.00  0.00    +0.001 A 
ATOM     11  C   UNL     1      10.824  -9.617   4.728  0.00  0.00    +0.001 A 
ATOM     12  C   UNL     1       9.810  -9.788   5.615  0.00  0.00    +0.008 A 
ATOM     13  C   UNL     1       8.668  -8.961   5.535  0.00  0.00    -0.017 A 
ATOM     14  C   UNL     1       7.609  -9.111   6.431  0.00  0.00    +0.017 A 
ATOM     15  C   UNL     1       6.491  -8.282   6.333  0.00  0.00    -0.017 A 
ATOM     16  C   UNL     1       6.424  -7.250   5.296  0.00  0.00    -0.009 A 
ATOM     17  C   UNL     1       5.285  -6.429   5.230  0.00  0.00    +0.009 A 
ATOM     18  C   UNL     1       4.277  -6.604   6.126  0.00  0.00    +0.001 A 
ATOM     19  C   UNL     1       4.341  -7.582   7.117  0.00  0.00    +0.001 A 
ATOM     20  C   UNL     1       5.407  -8.415   7.228  0.00  0.00    +0.008 A 
ENDBRANCH   6   7
ENDBRANCH   3   5
BRANCH   1  21
ATOM     21  C   UNL     1       5.168  -2.444   1.116  0.00  0.00    +0.021 C 
BRANCH  21  22
ATOM     22  N   UNL     1       4.176  -1.414   1.452  0.00  0.00    +0.391 N 
ATOM     23  H   UNL     1       3.337  -1.855   1.799  0.00  0.00    -0.080 HD
BRANCH  22  24
ATOM     24  C   UNL     1       4.724  -0.524   2.484  0.00  0.00    -0.042 C 
BRANCH  24  28
ATOM     25  C   UNL     1       1.723   2.256   3.713  0.00  0.00    +0.000 A 
ATOM     26  C   UNL     1       1.848   1.042   4.362  0.00  0.00    +0.000 A 
ATOM     27  C   UNL     1       2.819   0.142   3.965  0.00  0.00    +0.002 A 
ATOM     28  C   UNL     1       3.665   0.456   2.917  0.00  0.00    -0.064 A 
ATOM     29  C   UNL     1       3.539   1.670   2.267  0.00  0.00    +0.002 A 
ATOM     30  C   UNL     1       2.569   2.570   2.666  0.00  0.00    +0.000 A 
ENDBRANCH  24  28
ENDBRANCH  22  24
BRANCH  22  31
ATOM     31  C   UNL     1       3.857  -0.631   0.251  0.00  0.00    -0.042 C 
BRANCH  31  32
ATOM     32  C   UNL     1       3.182  -1.519  -0.763  0.00  0.00    -0.064 A 
ATOM     33  C   UNL     1       3.925  -2.108  -1.769  0.00  0.00    +0.002 A 
ATOM     34  C   UNL     1       3.307  -2.923  -2.699  0.00  0.00    +0.000 A 
ATOM     35  C   UNL     1       1.945  -3.149  -2.623  0.00  0.00    +0.000 A 
ATOM     36  C   UNL     1       1.202  -2.560  -1.617  0.00  0.00    +0.000 A 
ATOM     37  C   UNL     1       1.821  -1.749  -0.684  0.00  0.00    +0.002 A 
ENDBRANCH  31  32
ENDBRANCH  22  31
ENDBRANCH  21  22
ENDBRANCH   1  21
TORSDOF 8
