REMARK  Name = ZINC32939447
REMARK  8 active torsions:
REMARK  status: ('A' for Active; 'I' for Inactive)
REMARK    1  A    between atoms: C_1  and  C_2
REMARK    2  A    between atoms: C_2  and  C_3
REMARK    3  A    between atoms: C_2  and  C_4
REMARK    4  A    between atoms: N_6  and  C_7
REMARK    5  A    between atoms: C_7  and  C_9
REMARK    6  A    between atoms: C_7  and  C_20
REMARK    7  A    between atoms: C_9  and  C_10
REMARK    8  A    between atoms: N_22  and  C_23
REMARK                            x       y       z     vdW  Elec       q    Type
REMARK                         _______ _______ _______ _____ _____    ______ ____
ROOT
ATOM      1  C   UNL     1      -1.339   7.402  -0.159  0.00  0.00    +0.163 C 
ENDROOT
BRANCH   1   4
ATOM      2  C   UNL     1      -3.772   7.505  -0.060  0.00  0.00    +0.216 C 
ATOM      3  O   UNL     1      -3.726   6.879   0.978  0.00  0.00    -0.276 OA
ATOM      4  N   UNL     1      -2.632   7.818  -0.708  0.00  0.00    -0.303 N 
ATOM      5  H   UNL     1      -2.673   8.385  -1.649  0.00  0.00    +0.149 HD
BRANCH   2   7
ATOM      6  C   UNL     1      -5.286   7.319  -2.014  0.00  0.00    +0.017 C 
ATOM      7  C   UNL     1      -5.102   7.932  -0.625  0.00  0.00    +0.069 C 
ATOM      8  C   UNL     1      -6.225   7.454   0.298  0.00  0.00    +0.017 C 
ENDBRANCH   2   7
ENDBRANCH   1   4
BRANCH   1   9
ATOM      9  C   UNL     1      -1.297   5.899  -0.054  0.00  0.00    +0.238 C 
ATOM     10  O   UNL     1      -2.330   5.263  -0.048  0.00  0.00    -0.273 OA
ATOM     11  N   UNL     1      -0.113   5.263   0.032  0.00  0.00    -0.282 N 
ATOM     12  H   UNL     1       0.818   5.842   0.118  0.00  0.00    +0.155 HD
BRANCH  11  13
ATOM     13  C   UNL     1      -0.067   3.864   0.013  0.00  0.00    +0.059 A 
ATOM     14  C   UNL     1      -1.083   3.143  -0.586  0.00  0.00    +0.025 A 
ATOM     15  C   UNL     1      -1.042   1.755  -0.615  0.00  0.00    +0.003 A 
ATOM     16  C   UNL     1      -0.006   1.077  -0.043  0.00  0.00    +0.011 A 
ATOM     17  C   UNL     1       1.039   1.781   0.572  0.00  0.00    +0.021 A 
ATOM     18  C   UNL     1       1.007   3.187   0.599  0.00  0.00    +0.087 A 
ATOM     19  N   UNL     1       2.141   3.593   1.254  0.00  0.00    -0.275 N 
ATOM     20  H   UNL     1       2.338   4.665   1.401  0.00  0.00    +0.189 HD
ATOM     21  N   UNL     1       2.861   2.451   1.625  0.00  0.00    -0.181 NA
ATOM     22  C   UNL     1       2.227   1.384   1.232  0.00  0.00    +0.142 A 
ENDBRANCH  11  13
ENDBRANCH   1   9
BRANCH   1  23
ATOM     23  C   UNL     1      -1.154   8.015   1.231  0.00  0.00    +0.069 C 
BRANCH  23  24
ATOM     24  C   UNL     1      -1.073   9.515   1.111  0.00  0.00    -0.020 A 
ATOM     25  C   UNL     1       0.047  10.250   1.028  0.00  0.00    +0.087 A 
ATOM     26  N   UNL     1      -0.272  11.577   0.931  0.00  0.00    -0.360 N 
ATOM     27  H   UNL     1       0.527  12.330   0.853  0.00  0.00    +0.165 HD
ATOM     28  C   UNL     1      -1.639  11.733   0.949  0.00  0.00    +0.047 A 
ATOM     29  C   UNL     1      -2.202  10.448   1.057  0.00  0.00    +0.003 A 
ATOM     30  C   UNL     1      -3.589  10.295   1.093  0.00  0.00    +0.010 A 
ATOM     31  C   UNL     1      -4.395  11.396   1.020  0.00  0.00    +0.001 A 
ATOM     32  C   UNL     1      -3.845  12.666   0.910  0.00  0.00    +0.002 A 
ATOM     33  C   UNL     1      -2.478  12.840   0.880  0.00  0.00    +0.026 A 
ENDBRANCH  23  24
ENDBRANCH   1  23
TORSDOF 6
