REMARK  Name = ZINC39859999
REMARK  6 active torsions:
REMARK  status: ('A' for Active; 'I' for Inactive)
REMARK    1  A    between atoms: C_1  and  C_2
REMARK    2  A    between atoms: C_6  and  N_9
REMARK    3  A    between atoms: C_7  and  C_8
REMARK    4  A    between atoms: C_13  and  C_14
REMARK    5  A    between atoms: C_13  and  C_15
REMARK    6  A    between atoms: C_18  and  N_21
REMARK                            x       y       z     vdW  Elec       q    Type
REMARK                         _______ _______ _______ _____ _____    ______ ____
ROOT
ATOM      1  N   UNL     1       0.052  -2.798   2.395  0.00  0.00    -0.196 N 
ATOM      2  C   UNL     1      -1.094  -3.146   2.955  0.00  0.00    +0.265 C 
ATOM      3  O   UNL     1      -2.164  -2.865   2.448  0.00  0.00    -0.269 OA
ATOM      4  C   UNL     1      -1.010  -3.890   4.226  0.00  0.00    +0.083 C 
ATOM      5  C   UNL     1      -2.006  -4.370   5.015  0.00  0.00    -0.024 C 
ATOM      6  C   UNL     1      -3.446  -4.163   4.622  0.00  0.00    +0.045 C 
ATOM      7  S   UNL     1       0.762  -3.988   4.441  0.00  0.00    -0.025 S 
ATOM      8  C   UNL     1       1.236  -3.116   2.957  0.00  0.00    +0.290 C 
ATOM      9  O   UNL     1       2.356  -2.867   2.553  0.00  0.00    -0.262 OA
ENDROOT
BRANCH   1  15
ATOM     10  C   UNL     1      -0.018   1.503   0.010  0.00  0.00    +0.044 C 
ATOM     11  C   UNL     1       0.002  -0.004   0.002  0.00  0.00    -0.046 A 
ATOM     12  C   UNL     1       0.006  -0.688  -1.200  0.00  0.00    +0.004 A 
ATOM     13  C   UNL     1       0.025  -2.071  -1.212  0.00  0.00    +0.002 A 
ATOM     14  C   UNL     1       0.041  -2.773  -0.022  0.00  0.00    +0.024 A 
ATOM     15  C   UNL     1       0.037  -2.089   1.186  0.00  0.00    +0.048 A 
ATOM     16  C   UNL     1       0.023  -0.700   1.194  0.00  0.00    -0.026 A 
ATOM     17  C   UNL     1       0.025   0.046   2.504  0.00  0.00    +0.046 C 
ENDBRANCH   1  15
BRANCH   5  18
ATOM     18  C   UNL     1      -1.679  -5.091   6.252  0.00  0.00    -0.021 A 
ATOM     19  C   UNL     1      -1.003  -6.316   6.193  0.00  0.00    +0.010 A 
ATOM     20  C   UNL     1      -0.701  -6.986   7.351  0.00  0.00    +0.023 A 
ATOM     21  C   UNL     1      -1.065  -6.450   8.583  0.00  0.00    +0.025 A 
ATOM     22  C   UNL     1      -1.737  -5.232   8.646  0.00  0.00    +0.023 A 
ATOM     23  C   UNL     1      -2.038  -4.552   7.494  0.00  0.00    +0.010 A 
BRANCH  21  24
ATOM     24  N   UNL     1      -0.756  -7.134   9.755  0.00  0.00    -0.358 N 
ATOM     25  H   UNL     1      -0.288  -7.982   9.713  0.00  0.00    +0.142 HD
ATOM     26  H   UNL     1      -1.009  -6.761  10.615  0.00  0.00    +0.142 HD
ENDBRANCH  21  24
ENDBRANCH   5  18
TORSDOF 3
