REMARK  Name = ZINC35806193
REMARK  9 active torsions:
REMARK  status: ('A' for Active; 'I' for Inactive)
REMARK    1  A    between atoms: C_1  and  C_2
REMARK    2  A    between atoms: C_2  and  C_3
REMARK    3  A    between atoms: C_12  and  C_13
REMARK    4  A    between atoms: C_13  and  C_15
REMARK    5  A    between atoms: C_13  and  C_22
REMARK    6  A    between atoms: C_15  and  C_16
REMARK    7  A    between atoms: C_22  and  C_23
REMARK    8  A    between atoms: C_27  and  C_34
REMARK    9  A    between atoms: C_30  and  C_33
REMARK                            x       y       z     vdW  Elec       q    Type
REMARK                         _______ _______ _______ _____ _____    ______ ____
ROOT
ATOM      1  C   UNL     1       5.355  -1.431  -3.021  0.00  0.00    +0.034 C 
ENDROOT
BRANCH   1  11
ATOM      2  C   UNL     1       0.489  -0.600  -2.138  0.00  0.00    -0.024 A 
ATOM      3  C   UNL     1       0.008  -0.934  -3.386  0.00  0.00    +0.005 A 
ATOM      4  C   UNL     1       0.873  -1.347  -4.390  0.00  0.00    +0.001 A 
ATOM      5  C   UNL     1       2.217  -1.428  -4.159  0.00  0.00    +0.010 A 
ATOM      6  C   UNL     1       2.726  -1.094  -2.902  0.00  0.00    +0.003 A 
ATOM      7  C   UNL     1       1.854  -0.670  -1.882  0.00  0.00    +0.050 A 
ATOM      8  N   UNL     1       2.625  -0.406  -0.772  0.00  0.00    -0.360 N 
ATOM      9  H   UNL     1       2.285  -0.099   0.082  0.00  0.00    +0.165 HD
ATOM     10  C   UNL     1       3.943  -0.642  -1.055  0.00  0.00    +0.087 A 
ATOM     11  C   UNL     1       4.071  -1.066  -2.322  0.00  0.00    -0.019 A 
BRANCH   2  13
ATOM     12  C   UNL     1      -0.535   1.375  -1.042  0.00  0.00    +0.009 C 
ATOM     13  C   UNL     1      -0.461  -0.153  -1.057  0.00  0.00    +0.034 C 
ENDBRANCH   2  13
ENDBRANCH   1  11
BRANCH   1  14
ATOM     14  C   UNL     1       6.295  -0.223  -3.025  0.00  0.00    +0.043 C 
BRANCH  14  15
ATOM     15  C   UNL     1       5.684   0.885  -3.844  0.00  0.00    -0.047 A 
ATOM     16  C   UNL     1       5.851   0.902  -5.216  0.00  0.00    +0.003 A 
ATOM     17  C   UNL     1       5.291   1.919  -5.967  0.00  0.00    +0.000 A 
ATOM     18  C   UNL     1       4.564   2.917  -5.346  0.00  0.00    +0.000 A 
ATOM     19  C   UNL     1       4.396   2.899  -3.974  0.00  0.00    +0.000 A 
ATOM     20  C   UNL     1       4.953   1.880  -3.224  0.00  0.00    +0.003 A 
ENDBRANCH  14  15
ENDBRANCH   1  14
BRANCH   1  21
ATOM     21  C   UNL     1       6.023  -2.594  -2.284  0.00  0.00    +0.104 C 
BRANCH  21  22
ATOM     22  C   UNL     1       7.220  -3.066  -3.070  0.00  0.00    +0.216 C 
ATOM     23  O   UNL     1       7.445  -2.602  -4.168  0.00  0.00    -0.276 OA
ATOM     24  N   UNL     1       8.040  -4.002  -2.553  0.00  0.00    -0.297 N 
ATOM     25  C   UNL     1       7.783  -4.583  -1.226  0.00  0.00    +0.139 C 
ATOM     26  C   UNL     1       7.829  -6.110  -1.349  0.00  0.00    +0.133 C 
ATOM     27  O   UNL     1       9.050  -6.495  -1.986  0.00  0.00    -0.371 OA
ATOM     28  C   UNL     1       9.192  -6.006  -3.322  0.00  0.00    +0.133 C 
ATOM     29  C   UNL     1       9.214  -4.478  -3.301  0.00  0.00    +0.139 C 
ATOM     30  C   UNL     1      10.499  -6.530  -3.921  0.00  0.00    +0.039 C 
ATOM     31  C   UNL     1       6.641  -6.591  -2.187  0.00  0.00    +0.039 C 
ENDBRANCH  21  22
ENDBRANCH   1  21
TORSDOF 6
