REMARK  Name = ZINC22542343
REMARK  11 active torsions:
REMARK  status: ('A' for Active; 'I' for Inactive)
REMARK    1  A    between atoms: C_1  and  C_2
REMARK    2  A    between atoms: C_2  and  C_4
REMARK    3  A    between atoms: C_2  and  N_24
REMARK    4  A    between atoms: C_4  and  C_5
REMARK    5  A    between atoms: N_7  and  C_8
REMARK    6  A    between atoms: C_8  and  C_10
REMARK    7  A    between atoms: C_8  and  C_19
REMARK    8  A    between atoms: C_13  and  C_16
REMARK    9  A    between atoms: C_16  and  C_17
REMARK   10  A    between atoms: C_16  and  C_18
REMARK   11  A    between atoms: C_25  and  C_27
REMARK                            x       y       z     vdW  Elec       q    Type
REMARK                         _______ _______ _______ _____ _____    ______ ____
ROOT
ATOM      1  C   UNL     1       0.632  -2.000  -1.327  0.00  0.00    +0.215 C 
ATOM      2  O   UNL     1       0.054  -2.616  -0.457  0.00  0.00    -0.276 OA
ATOM      3  N   UNL     1       1.196  -2.660  -2.358  0.00  0.00    -0.304 N 
ATOM      4  H   UNL     1       1.658  -2.168  -3.055  0.00  0.00    +0.150 HD
ENDROOT
BRANCH   1   5
ATOM      5  C   UNL     1       0.718  -0.497  -1.257  0.00  0.00    +0.117 C 
BRANCH   5   7
ATOM      6  C   UNL     1      -0.019   1.526   0.010  0.00  0.00    +0.028 C 
ATOM      7  C   UNL     1       0.002  -0.004   0.002  0.00  0.00    +0.079 C 
BRANCH   7   8
ATOM      8  N   UNL     1       0.711  -0.489   1.189  0.00  0.00    -0.308 N 
ATOM      9  C   UNL     1       0.051  -0.633   2.355  0.00  0.00    +0.244 C 
ATOM     10  O   UNL     1      -1.131  -0.361   2.423  0.00  0.00    -0.270 OA
ATOM     11  H   UNL     1       1.654  -0.707   1.135  0.00  0.00    +0.149 HD
BRANCH   9  12
ATOM     12  C   UNL     1       0.766  -1.123   3.553  0.00  0.00    +0.037 A 
ATOM     13  C   UNL     1       2.126  -1.432   3.481  0.00  0.00    +0.013 A 
ATOM     14  C   UNL     1       2.787  -1.888   4.602  0.00  0.00    +0.001 A 
ATOM     15  C   UNL     1       2.106  -2.040   5.797  0.00  0.00    +0.000 A 
ATOM     16  C   UNL     1       0.758  -1.736   5.875  0.00  0.00    +0.001 A 
ATOM     17  C   UNL     1       0.086  -1.274   4.763  0.00  0.00    +0.013 A 
ENDBRANCH   9  12
ENDBRANCH   7   8
ENDBRANCH   5   7
ENDBRANCH   1   5
BRANCH   3  18
ATOM     18  C   UNL     1       1.112  -4.121  -2.427  0.00  0.00    +0.140 C 
BRANCH  18  19
ATOM     19  C   UNL     1       2.261  -4.652  -3.244  0.00  0.00    -0.022 A 
ATOM     20  C   UNL     1       2.668  -3.983  -4.383  0.00  0.00    +0.006 A 
ATOM     21  C   UNL     1       3.722  -4.470  -5.132  0.00  0.00    +0.004 A 
ATOM     22  C   UNL     1       4.371  -5.627  -4.742  0.00  0.00    -0.045 A 
ATOM     23  C   UNL     1       3.965  -6.296  -3.603  0.00  0.00    +0.004 A 
ATOM     24  C   UNL     1       2.913  -5.807  -2.851  0.00  0.00    +0.006 A 
BRANCH  22  25
ATOM     25  C   UNL     1       5.519  -6.159  -5.560  0.00  0.00    +0.013 C 
ATOM     26  C   UNL     1       6.780  -6.212  -4.694  0.00  0.00    +0.012 C 
ATOM     27  C   UNL     1       5.183  -7.567  -6.057  0.00  0.00    +0.012 C 
ENDBRANCH  22  25
ENDBRANCH  18  19
BRANCH  18  28
ATOM     28  C   UNL     1      -0.190  -4.519  -3.073  0.00  0.00    +0.014 A 
ATOM     29  C   UNL     1      -1.031  -5.531  -2.746  0.00  0.00    +0.013 A 
ATOM     30  C   UNL     1      -2.183  -5.711  -3.488  0.00  0.00    +0.008 A 
ATOM     31  C   UNL     1      -2.439  -4.870  -4.520  0.00  0.00    +0.045 A 
ATOM     32  S   UNL     1      -1.029  -3.777  -4.463  0.00  0.00    -0.099 S 
ENDBRANCH  18  28
ENDBRANCH   3  18
TORSDOF 8
