REMARK  Name = ZINC13064421
REMARK  10 active torsions:
REMARK  status: ('A' for Active; 'I' for Inactive)
REMARK    1  A    between atoms: C_1  and  C_2
REMARK    2  A    between atoms: C_2  and  C_3
REMARK    3  A    between atoms: C_3  and  C_5
REMARK    4  A    between atoms: C_3  and  N_67
REMARK    5  A    between atoms: N_9  and  C_10
REMARK    6  A    between atoms: C_10  and  C_11
REMARK    7  A    between atoms: C_17  and  C_18
REMARK    8  A    between atoms: C_17  and  N_67
REMARK    9  A    between atoms: C_23  and  C_24
REMARK   10  A    between atoms: C_23  and  N_67
REMARK                            x       y       z     vdW  Elec       q    Type
REMARK                         _______ _______ _______ _____ _____    ______ ____
ROOT
ATOM      1  N   UNL     1       3.394   0.560   1.431  0.00  0.00    +0.392 N 
ATOM      2  H   UNL     1       2.854   0.021   2.118  0.00  0.00    -0.080 HD
ENDROOT
BRANCH   1   3
ATOM      3  C   UNL     1       4.515  -0.270   0.944  0.00  0.00    +0.003 C 
BRANCH   3   4
ATOM      4  C   UNL     1       4.059  -1.705   0.879  0.00  0.00    +0.138 A 
ATOM      5  N   UNL     1       2.888  -2.136   0.479  0.00  0.00    -0.115 NA
ATOM      6  N   UNL     1       2.885  -3.421   0.569  0.00  0.00    -0.023 NA
ATOM      7  N   UNL     1       4.023  -3.821   1.017  0.00  0.00    -0.044 NA
ATOM      8  N   UNL     1       4.777  -2.792   1.215  0.00  0.00    -0.228 N 
BRANCH   8   9
ATOM      9  C   UNL     1       6.154  -2.806   1.715  0.00  0.00    +0.178 C 
BRANCH   9  10
ATOM     10  C   UNL     1       6.143  -2.716   3.242  0.00  0.00    +0.140 C 
ATOM     11  C   UNL     1       7.589  -2.614   3.771  0.00  0.00    +0.035 C 
ATOM     12  C   UNL     1       7.538  -3.502   5.044  0.00  0.00    +0.031 C 
ATOM     13  C   UNL     1       6.531  -4.593   4.602  0.00  0.00    +0.160 C 
ATOM     14  O   UNL     1       5.563  -3.904   3.794  0.00  0.00    -0.375 OA
ENDBRANCH   9  10
ENDBRANCH   8   9
ENDBRANCH   3   4
BRANCH   3  16
ATOM     15  C   UNL     1       5.546   1.597  -0.358  0.00  0.00    +0.002 C 
ATOM     16  C   UNL     1       4.954   0.189  -0.448  0.00  0.00    -0.011 C 
ENDBRANCH   3  16
ENDBRANCH   1   3
BRANCH   1  17
ATOM     17  C   UNL     1       3.914   1.781   2.082  0.00  0.00    -0.034 C 
BRANCH  17  18
ATOM     18  C   UNL     1       4.486   1.407   3.425  0.00  0.00    -0.027 A 
ATOM     19  C   UNL     1       5.772   1.138   3.761  0.00  0.00    +0.009 A 
ATOM     20  C   UNL     1       6.069   0.817   5.072  0.00  0.00    +0.008 A 
ATOM     21  C   UNL     1       5.065   0.770   5.981  0.00  0.00    +0.045 A 
ATOM     22  S   UNL     1       3.645   1.195   4.986  0.00  0.00    -0.103 S 
ENDBRANCH  17  18
ENDBRANCH   1  17
BRANCH   1  23
ATOM     23  C   UNL     1       2.509   0.926   0.305  0.00  0.00    -0.036 C 
BRANCH  23  24
ATOM     24  C   UNL     1       1.208   1.444   0.861  0.00  0.00    +0.001 A 
ATOM     25  C   UNL     1       1.020   2.780   1.010  0.00  0.00    +0.017 A 
ATOM     26  C   UNL     1      -0.254   3.251   1.552  0.00  0.00    +0.002 A 
ATOM     27  C   UNL     1      -0.503   4.618   1.728  0.00  0.00    +0.059 A 
ATOM     28  C   UNL     1      -1.713   5.033   2.242  0.00  0.00    +0.163 A 
ATOM     29  C   UNL     1      -2.691   4.094   2.586  0.00  0.00    +0.164 A 
ATOM     30  C   UNL     1      -2.453   2.741   2.416  0.00  0.00    +0.075 A 
ATOM     31  C   UNL     1      -1.239   2.307   1.899  0.00  0.00    +0.053 A 
ATOM     32  N   UNL     1      -0.987   0.962   1.718  0.00  0.00    -0.322 N 
ATOM     33  H   UNL     1      -1.668   0.312   1.954  0.00  0.00    +0.169 HD
ATOM     34  C   UNL     1       0.190   0.539   1.224  0.00  0.00    +0.251 A 
ATOM     35  O   UNL     1       0.379  -0.657   1.082  0.00  0.00    -0.268 OA
ATOM     36  O   UNL     1      -3.889   4.495   3.091  0.00  0.00    -0.485 OA
ATOM     37  C   UNL     1      -3.958   5.831   3.602  0.00  0.00    +0.270 C 
ATOM     38  C   UNL     1      -3.301   6.771   2.582  0.00  0.00    +0.270 C 
ATOM     39  O   UNL     1      -1.939   6.365   2.411  0.00  0.00    -0.485 OA
ENDBRANCH  23  24
ENDBRANCH   1  23
TORSDOF 9
