REMARK  Name = ZINC14547048
REMARK  8 active torsions:
REMARK  status: ('A' for Active; 'I' for Inactive)
REMARK    1  A    between atoms: C_1  and  C_2
REMARK    2  A    between atoms: C_2  and  C_3
REMARK    3  A    between atoms: C_3  and  N_4
REMARK    4  A    between atoms: N_4  and  C_5
REMARK    5  A    between atoms: C_5  and  C_6
REMARK    6  A    between atoms: C_6  and  C_7
REMARK    7  A    between atoms: C_8  and  C_10
REMARK    8  A    between atoms: C_23  and  C_26
REMARK                            x       y       z     vdW  Elec       q    Type
REMARK                         _______ _______ _______ _____ _____    ______ ____
ROOT
ATOM      1  C   UNL     1      -2.276   1.303   2.782  0.00  0.00    +0.037 A 
ATOM      2  C   UNL     1      -1.923   2.381   3.599  0.00  0.00    +0.015 A 
ATOM      3  C   UNL     1      -0.629   2.848   3.585  0.00  0.00    +0.024 A 
ATOM      4  C   UNL     1       0.323   2.251   2.763  0.00  0.00    +0.031 A 
ATOM      5  C   UNL     1      -0.019   1.204   1.924  0.00  0.00    -0.019 A 
ATOM      6  C   UNL     1      -1.318   0.708   1.961  0.00  0.00    +0.019 A 
ATOM      7  C   UNL     1       0.977   0.507   1.052  0.00  0.00    +0.049 C 
ATOM      8  C   UNL     1       0.770   0.874  -0.398  0.00  0.00    -0.023 C 
ATOM      9  C   UNL     1       1.925   0.967  -1.012  0.00  0.00    -0.030 C 
ATOM     10  C   UNL     1       3.061   0.667  -0.053  0.00  0.00    +0.033 C 
ATOM     11  C   UNL     1       2.430   0.927   1.346  0.00  0.00    +0.029 C 
ATOM     12  C   UNL     1       2.491   2.433   1.622  0.00  0.00    +0.108 C 
ATOM     13  N   UNL     1       1.627   2.742   2.765  0.00  0.00    -0.336 N 
ATOM     14  H   UNL     1       1.955   3.276   3.506  0.00  0.00    +0.147 HD
ENDROOT
BRANCH  12  15
ATOM     15  C   UNL     1       3.910   2.830   1.940  0.00  0.00    +0.010 A 
ATOM     16  C   UNL     1       4.454   2.526   3.175  0.00  0.00    +0.047 A 
ATOM     17  C   UNL     1       5.758   2.886   3.464  0.00  0.00    +0.020 A 
ATOM     18  C   UNL     1       6.514   3.559   2.523  0.00  0.00    +0.003 A 
ATOM     19  C   UNL     1       5.969   3.869   1.291  0.00  0.00    +0.020 A 
ATOM     20  C   UNL     1       4.667   3.505   0.999  0.00  0.00    +0.047 A 
ATOM     21 CL   UNL     1       3.983   3.893  -0.549  0.00  0.00    -0.083 Cl
ATOM     22 CL   UNL     1       3.502   1.685   4.359  0.00  0.00    -0.083 Cl
ENDBRANCH  12  15
BRANCH   1  24
ATOM     23  N   UNL     1      -4.299   0.595   3.959  0.00  0.00    -0.298 N 
ATOM     24  C   UNL     1      -3.660   0.794   2.789  0.00  0.00    +0.247 C 
ATOM     25  O   UNL     1      -4.225   0.555   1.739  0.00  0.00    -0.270 OA
BRANCH  23  26
ATOM     26  C   UNL     1      -5.624  -0.031   3.973  0.00  0.00    +0.108 C 
BRANCH  26  28
ATOM     27  C   UNL     1      -6.853  -2.202   4.107  0.00  0.00    +0.005 C 
ATOM     28  C   UNL     1      -5.470  -1.549   4.092  0.00  0.00    +0.016 C 
ENDBRANCH  26  28
ENDBRANCH  23  26
BRANCH  23  29
ATOM     29  C   UNL     1      -3.669   1.004   5.217  0.00  0.00    +0.108 C 
BRANCH  29  30
ATOM     30  C   UNL     1      -4.221   2.365   5.645  0.00  0.00    +0.016 C 
ATOM     31  C   UNL     1      -3.467   2.854   6.883  0.00  0.00    +0.005 C 
ENDBRANCH  29  30
ENDBRANCH  23  29
ENDBRANCH   1  24
TORSDOF 6
