REMARK  Name = ZINC14545007
REMARK  5 active torsions:
REMARK  status: ('A' for Active; 'I' for Inactive)
REMARK    1  A    between atoms: C_4  and  C_7
REMARK    2  A    between atoms: C_7  and  C_8
REMARK    3  A    between atoms: C_8  and  O_9
REMARK    4  A    between atoms: O_9  and  C_10
REMARK    5  A    between atoms: C_23  and  C_26
REMARK                            x       y       z     vdW  Elec       q    Type
REMARK                         _______ _______ _______ _____ _____    ______ ____
ROOT
ATOM      1  C   UNL     1      -4.043  -1.665  -1.541  0.00  0.00    +0.121 A 
ATOM      2  C   UNL     1      -4.240  -1.579  -0.171  0.00  0.00    +0.047 A 
ATOM      3  C   UNL     1      -3.681  -0.532   0.534  0.00  0.00    +0.027 A 
ATOM      4  C   UNL     1      -2.927   0.429  -0.126  0.00  0.00    +0.032 A 
ATOM      5  C   UNL     1      -2.724   0.347  -1.495  0.00  0.00    -0.016 A 
ATOM      6  C   UNL     1      -3.290  -0.708  -2.198  0.00  0.00    +0.051 A 
ATOM      7  C   UNL     1      -1.914   1.357  -2.246  0.00  0.00    +0.049 C 
ATOM      8  C   UNL     1      -0.558   0.807  -2.618  0.00  0.00    -0.023 C 
ATOM      9  C   UNL     1       0.350   1.750  -2.543  0.00  0.00    -0.030 C 
ATOM     10  C   UNL     1      -0.280   3.060  -2.114  0.00  0.00    +0.033 C 
ATOM     11  C   UNL     1      -1.598   2.615  -1.415  0.00  0.00    +0.029 C 
ATOM     12  C   UNL     1      -1.240   2.218   0.020  0.00  0.00    +0.107 C 
ATOM     13  N   UNL     1      -2.366   1.485   0.606  0.00  0.00    -0.336 N 
ATOM     14  H   UNL     1      -2.716   1.725   1.479  0.00  0.00    +0.147 HD
ENDROOT
BRANCH  12  15
ATOM     15  C   UNL     1      -0.016   1.338   0.009  0.00  0.00    -0.002 A 
ATOM     16  C   UNL     1       0.002  -0.004   0.002  0.00  0.00    +0.089 A 
ATOM     17  N   UNL     1       1.294  -0.453  -0.013  0.00  0.00    -0.360 N 
ATOM     18  H   UNL     1       1.560  -1.386  -0.020  0.00  0.00    +0.165 HD
ATOM     19  C   UNL     1       2.162   0.616  -0.015  0.00  0.00    +0.047 A 
ATOM     20  C   UNL     1       1.379   1.786  -0.002  0.00  0.00    +0.005 A 
ATOM     21  C   UNL     1       1.996   3.037  -0.001  0.00  0.00    +0.010 A 
ATOM     22  C   UNL     1       3.360   3.121  -0.015  0.00  0.00    +0.001 A 
ATOM     23  C   UNL     1       4.137   1.971  -0.029  0.00  0.00    +0.002 A 
ATOM     24  C   UNL     1       3.548   0.725  -0.029  0.00  0.00    +0.026 A 
ENDBRANCH  12  15
BRANCH   1  25
ATOM     25  O   UNL     1      -4.591  -2.694  -2.241  0.00  0.00    -0.492 OA
BRANCH  25  26
ATOM     26  C   UNL     1      -5.357  -3.647  -1.502  0.00  0.00    +0.233 C 
BRANCH  26  27
ATOM     27  C   UNL     1      -5.889  -4.722  -2.452  0.00  0.00    +0.076 C 
BRANCH  27  31
ATOM     28  C   UNL     1      -8.178  -7.572  -0.241  0.00  0.00    +0.000 A 
ATOM     29  C   UNL     1      -8.795  -6.459  -0.781  0.00  0.00    +0.000 A 
ATOM     30  C   UNL     1      -8.054  -5.537  -1.497  0.00  0.00    +0.004 A 
ATOM     31  C   UNL     1      -6.696  -5.727  -1.672  0.00  0.00    -0.044 A 
ATOM     32  C   UNL     1      -6.080  -6.842  -1.135  0.00  0.00    +0.004 A 
ATOM     33  C   UNL     1      -6.820  -7.762  -0.416  0.00  0.00    +0.000 A 
ENDBRANCH  27  31
ENDBRANCH  26  27
ENDBRANCH  25  26
ENDBRANCH   1  25
TORSDOF 5
