REMARK  Name = ZINC02425966
REMARK  1 active torsions:
REMARK  status: ('A' for Active; 'I' for Inactive)
REMARK    1  A    between atoms: C_6  and  N_11
REMARK                            x       y       z     vdW  Elec       q    Type
REMARK                         _______ _______ _______ _____ _____    ______ ____
ROOT
ATOM      1  N   UNL     1       4.915  -2.655  -0.058  0.00  0.00    -0.210 N 
ATOM      2  C   UNL     1       6.088  -2.020  -0.158  0.00  0.00    +0.228 C 
ATOM      3  O   UNL     1       6.230  -0.819  -0.245  0.00  0.00    -0.275 OA
ATOM      4  C   UNL     1       7.211  -3.033  -0.146  0.00  0.00    +0.074 C 
ATOM      5  C   UNL     1       8.027  -2.876   1.151  0.00  0.00    -0.054 C 
ATOM      6  C   UNL     1       7.867  -1.439   1.680  0.00  0.00    -0.016 C 
ATOM      7  C   UNL     1       6.658  -1.484   2.635  0.00  0.00    -0.020 C 
ATOM      8  C   UNL     1       6.162  -2.943   2.588  0.00  0.00    -0.076 C 
ATOM      9  N   UNL     1       7.351  -3.759   2.149  0.00  0.00    +0.395 N 
ATOM     10  C   UNL     1       6.903  -4.925   1.370  0.00  0.00    +0.053 C 
ATOM     11  C   UNL     1       6.467  -4.390  -0.015  0.00  0.00    +0.089 C 
ATOM     12  C   UNL     1       5.010  -3.986   0.033  0.00  0.00    +0.229 C 
ATOM     13  O   UNL     1       4.075  -4.750   0.135  0.00  0.00    -0.275 OA
ATOM     14  C   UNL     1       7.992  -5.953   1.238  0.00  0.00    -0.026 A 
ATOM     15  C   UNL     1       9.261  -5.926   0.705  0.00  0.00    +0.019 A 
ATOM     16  C   UNL     1      10.048  -7.064   0.732  0.00  0.00    +0.018 A 
ATOM     17  C   UNL     1       9.556  -8.228   1.296  0.00  0.00    +0.017 A 
ATOM     18  C   UNL     1       8.285  -8.259   1.831  0.00  0.00    +0.024 A 
ATOM     19  C   UNL     1       7.487  -7.118   1.808  0.00  0.00    +0.036 A 
ATOM     20  N   UNL     1       6.189  -6.903   2.277  0.00  0.00    -0.286 N 
ATOM     21  C   UNL     1       5.772  -5.641   2.059  0.00  0.00    +0.212 C 
ATOM     22  O   UNL     1       4.695  -5.172   2.359  0.00  0.00    -0.277 OA
ATOM     23 BR   UNL     1      11.791  -7.029  -0.001  0.00  0.00    -0.050 Br
ATOM     24  H   UNL     1       5.650  -7.583   2.711  0.00  0.00    +0.155 HD
ATOM     25  H   UNL     1       7.956  -4.008   2.917  0.00  0.00    -0.079 HD
ENDROOT
BRANCH   1  31
ATOM     26  C   UNL     1      -0.725   0.043   1.097  0.00  0.00    +0.001 A 
ATOM     27  C   UNL     1      -0.292  -0.619   2.245  0.00  0.00    +0.001 A 
ATOM     28  C   UNL     1       0.895  -1.284   2.264  0.00  0.00    +0.008 A 
ATOM     29  C   UNL     1       1.700  -1.305   1.112  0.00  0.00    -0.016 A 
ATOM     30  C   UNL     1       2.931  -1.981   1.096  0.00  0.00    +0.032 A 
ATOM     31  C   UNL     1       3.687  -1.980  -0.043  0.00  0.00    +0.044 A 
ATOM     32  C   UNL     1       3.250  -1.314  -1.193  0.00  0.00    +0.024 A 
ATOM     33  C   UNL     1       2.064  -0.650  -1.208  0.00  0.00    +0.010 A 
ATOM     34  C   UNL     1       1.260  -0.631  -0.055  0.00  0.00    -0.018 A 
ATOM     35  C   UNL     1       0.028   0.045  -0.037  0.00  0.00    +0.008 A 
ENDBRANCH   1  31
TORSDOF 1
