REMARK  Name = ZINC43025307
REMARK  8 active torsions:
REMARK  status: ('A' for Active; 'I' for Inactive)
REMARK    1  A    between atoms: C_1  and  C_2
REMARK    2  A    between atoms: C_2  and  C_3
REMARK    3  A    between atoms: C_3  and  C_5
REMARK    4  A    between atoms: C_3  and  N_22
REMARK    5  A    between atoms: C_5  and  C_7
REMARK    6  A    between atoms: C_5  and  S_14
REMARK    7  A    between atoms: S_14  and  C_15
REMARK    8  A    between atoms: C_18  and  C_21
REMARK                            x       y       z     vdW  Elec       q    Type
REMARK                         _______ _______ _______ _____ _____    ______ ____
ROOT
ATOM      1  C   UNL     1       0.667  -2.194   1.243  0.00  0.00    +0.070 C 
ENDROOT
BRANCH   1   2
ATOM      2  C   UNL     1      -0.661  -2.906   1.282  0.00  0.00    -0.035 A 
ATOM      3  C   UNL     1      -1.449  -2.837   2.415  0.00  0.00    +0.005 A 
ATOM      4  C   UNL     1      -2.667  -3.490   2.451  0.00  0.00    +0.001 A 
ATOM      5  C   UNL     1      -3.097  -4.213   1.354  0.00  0.00    +0.015 A 
ATOM      6  C   UNL     1      -2.309  -4.281   0.220  0.00  0.00    +0.018 A 
ATOM      7  C   UNL     1      -1.093  -3.623   0.182  0.00  0.00    +0.020 A 
ATOM      8 BR   UNL     1      -2.896  -5.269  -1.282  0.00  0.00    -0.050 Br
ENDBRANCH   1   2
BRANCH   1   9
ATOM      9  C   UNL     1       0.434  -0.692   1.068  0.00  0.00    -0.057 C 
BRANCH   9  10
ATOM     10  N   UNL     1      -0.395  -0.459  -0.122  0.00  0.00    +0.381 N 
ATOM     11  H   UNL     1      -0.465   0.532  -0.295  0.00  0.00    -0.090 HD
ATOM     12  H   UNL     1       0.026  -0.911  -0.919  0.00  0.00    -0.090 HD
ATOM     13  H   UNL     1      -1.317  -0.839   0.032  0.00  0.00    -0.090 HD
ENDBRANCH   9  10
BRANCH   9  15
ATOM     14  C   UNL     1      -0.385   1.384   2.193  0.00  0.00    +0.002 C 
ATOM     15  C   UNL     1      -0.279  -0.139   2.304  0.00  0.00    -0.018 C 
ENDBRANCH   9  15
ENDBRANCH   1   9
BRANCH   1  16
ATOM     16  S   UNL     1       1.558  -2.491   2.794  0.00  0.00    -0.080 S 
BRANCH  16  17
ATOM     17  C   UNL     1       3.156  -1.806   2.506  0.00  0.00    +0.185 A 
ATOM     18  N   UNL     1       3.538  -1.157   1.426  0.00  0.00    -0.206 NA
ATOM     19  H   UNL     1       4.225  -2.259   4.235  0.00  0.00    +0.191 HD
ATOM     20  C   UNL     1       4.811  -0.782   1.554  0.00  0.00    +0.149 A 
ATOM     21  N   UNL     1       5.261  -1.185   2.712  0.00  0.00    -0.157 NA
ATOM     22  N   UNL     1       4.205  -1.849   3.356  0.00  0.00    -0.254 N 
ATOM     23  C   UNL     1       5.604  -0.018   0.526  0.00  0.00    +0.090 C 
ENDBRANCH  16  17
ENDBRANCH   1  16
TORSDOF 6
