REMARK  Name = ZINC05946739
REMARK  3 active torsions:
REMARK  status: ('A' for Active; 'I' for Inactive)
REMARK    1  A    between atoms: C_4  and  C_7
REMARK    2  A    between atoms: C_18  and  S_20
REMARK    3  A    between atoms: S_20  and  C_21
REMARK                            x       y       z     vdW  Elec       q    Type
REMARK                         _______ _______ _______ _____ _____    ______ ____
ROOT
ATOM      1  C   UNL     1       3.353   3.755   0.664  0.00  0.00    +0.072 C 
ATOM      2  N   UNL     1       2.264   3.973   0.021  0.00  0.00    -0.248 NA
ATOM      3  C   UNL     1       1.149   3.197   0.040  0.00  0.00    +0.085 A 
ATOM      4  C   UNL     1      -0.087   3.862   0.102  0.00  0.00    +0.029 A 
ATOM      5  C   UNL     1      -1.264   3.151   0.118  0.00  0.00    +0.002 A 
ATOM      6  C   UNL     1      -1.238   1.767   0.068  0.00  0.00    +0.002 A 
ATOM      7  C   UNL     1      -0.033   1.100   0.016  0.00  0.00    +0.025 A 
ATOM      8  C   UNL     1       1.172   1.804  -0.001  0.00  0.00    +0.059 A 
ATOM      9  N   UNL     1       2.339   1.053  -0.054  0.00  0.00    -0.283 N 
ATOM     10  C   UNL     1       3.449   1.316   0.637  0.00  0.00    +0.237 C 
ATOM     11  O   UNL     1       4.400   0.569   0.551  0.00  0.00    -0.274 OA
ATOM     12  C   UNL     1       3.534   2.532   1.524  0.00  0.00    +0.196 C 
ATOM     13  H   UNL     1       2.348   0.279  -0.638  0.00  0.00    +0.155 HD
ENDROOT
BRANCH   1  17
ATOM     14  C   UNL     1       6.527   6.554   0.360  0.00  0.00    +0.000 A 
ATOM     15  C   UNL     1       5.404   6.697  -0.436  0.00  0.00    +0.001 A 
ATOM     16  C   UNL     1       4.368   5.792  -0.343  0.00  0.00    +0.010 A 
ATOM     17  C   UNL     1       4.455   4.726   0.558  0.00  0.00    -0.002 A 
ATOM     18  C   UNL     1       5.591   4.591   1.362  0.00  0.00    +0.010 A 
ATOM     19  C   UNL     1       6.620   5.502   1.254  0.00  0.00    +0.001 A 
ENDBRANCH   1  17
BRANCH  12  20
ATOM     20  S   UNL     1       2.228   2.467   2.776  0.00  0.00    -0.027 S 
BRANCH  20  21
ATOM     21  C   UNL     1       2.755   1.005   3.704  0.00  0.00    +0.134 C 
ATOM     22  N   UNL     1       3.085   0.087   4.287  0.00  0.00    -0.184 NA
ENDBRANCH  20  21
ENDBRANCH  12  20
TORSDOF 3
