REMARK  Name = ZINC04485572
REMARK  8 active torsions:
REMARK  status: ('A' for Active; 'I' for Inactive)
REMARK    1  A    between atoms: C_1  and  C_2
REMARK    2  A    between atoms: C_3  and  C_19
REMARK    3  A    between atoms: C_5  and  S_8
REMARK    4  A    between atoms: S_8  and  C_9
REMARK    5  A    between atoms: C_9  and  C_10
REMARK    6  A    between atoms: N_15  and  C_16
REMARK    7  A    between atoms: C_16  and  C_17
REMARK    8  A    between atoms: C_19  and  C_20
REMARK                            x       y       z     vdW  Elec       q    Type
REMARK                         _______ _______ _______ _____ _____    ______ ____
ROOT
ATOM      1  C   UNL     1       4.241   2.962  -1.754  0.00  0.00    +0.065 C 
ATOM      2  C   UNL     1       3.669   1.636  -2.186  0.00  0.00    +0.037 A 
ATOM      3  C   UNL     1       2.915   0.809  -1.442  0.00  0.00    +0.067 A 
ATOM      4  N   UNL     1       2.610  -0.268  -2.184  0.00  0.00    -0.226 NA
ATOM      5  C   UNL     1       3.143  -0.139  -3.377  0.00  0.00    +0.167 A 
ATOM      6  N   UNL     1       3.820   1.042  -3.419  0.00  0.00    -0.337 N 
ATOM      7  H   UNL     1       4.329   1.407  -4.198  0.00  0.00    +0.168 HD
ENDROOT
BRANCH   5   8
ATOM      8  S   UNL     1       3.012  -1.300  -4.696  0.00  0.00    -0.079 S 
BRANCH   8   9
ATOM      9  C   UNL     1       1.992  -2.566  -3.900  0.00  0.00    +0.173 C 
BRANCH   9  10
ATOM     10  C   UNL     1       1.743  -3.692  -4.869  0.00  0.00    +0.231 C 
ATOM     11  O   UNL     1       2.209  -3.644  -5.987  0.00  0.00    -0.274 OA
ATOM     12  N   UNL     1       1.002  -4.753  -4.493  0.00  0.00    -0.239 N 
ATOM     13  C   UNL     1       0.779  -5.761  -5.360  0.00  0.00    +0.306 C 
ATOM     14  O   UNL     1       1.246  -5.713  -6.481  0.00  0.00    -0.252 OA
ATOM     15  N   UNL     1       0.038  -6.822  -4.984  0.00  0.00    -0.296 N 
ATOM     16  H   UNL     1       0.629  -4.792  -3.598  0.00  0.00    +0.159 HD
ATOM     17  H   UNL     1      -0.335  -6.861  -4.089  0.00  0.00    +0.151 HD
BRANCH  15  18
ATOM     18  C   UNL     1      -0.204  -7.917  -5.926  0.00  0.00    +0.132 C 
BRANCH  18  19
ATOM     19  C   UNL     1      -1.053  -8.972  -5.264  0.00  0.00    -0.016 C 
ATOM     20  C   UNL     1      -2.174  -9.356  -5.822  0.00  0.00    +0.005 C 
ENDBRANCH  18  19
ENDBRANCH  15  18
ENDBRANCH   9  10
ENDBRANCH   8   9
ENDBRANCH   5   8
BRANCH   3  21
ATOM     21  C   UNL     1       2.490   1.048  -0.016  0.00  0.00    +0.092 C 
BRANCH  21  22
ATOM     22  C   UNL     1       1.175   1.783   0.000  0.00  0.00    -0.042 A 
ATOM     23  C   UNL     1      -0.013   1.076   0.008  0.00  0.00    +0.004 A 
ATOM     24  C   UNL     1      -1.219   1.751   0.017  0.00  0.00    +0.000 A 
ATOM     25  C   UNL     1      -1.238   3.133   0.029  0.00  0.00    +0.000 A 
ATOM     26  C   UNL     1      -0.050   3.840   0.022  0.00  0.00    +0.000 A 
ATOM     27  C   UNL     1       1.156   3.165   0.008  0.00  0.00    +0.004 A 
ENDBRANCH  21  22
ENDBRANCH   3  21
TORSDOF 7
