REMARK  Name = ZINC50362520
REMARK  7 active torsions:
REMARK  status: ('A' for Active; 'I' for Inactive)
REMARK    1  A    between atoms: C_1  and  C_2
REMARK    2  A    between atoms: C_2  and  N_3
REMARK    3  A    between atoms: N_3  and  C_4
REMARK    4  A    between atoms: N_3  and  C_11
REMARK    5  A    between atoms: C_11  and  C_13
REMARK    6  A    between atoms: C_11  and  C_15
REMARK    7  A    between atoms: C_13  and  N_14
REMARK                            x       y       z     vdW  Elec       q    Type
REMARK                         _______ _______ _______ _____ _____    ______ ____
ROOT
ATOM      1  C   UNL     1      -0.083  -0.558  -2.331  0.00  0.00    +0.122 C 
ENDROOT
BRANCH   1   2
ATOM      2  C   UNL     1      -0.255  -1.793  -3.178  0.00  0.00    +0.126 A 
ATOM      3  C   UNL     1      -1.425  -2.286  -3.619  0.00  0.00    +0.063 A 
ATOM      4  C   UNL     1      -1.124  -3.445  -4.372  0.00  0.00    +0.070 A 
ATOM      5  C   UNL     1       0.214  -3.590  -4.345  0.00  0.00    +0.184 A 
ATOM      6  O   UNL     1       0.736  -2.583  -3.624  0.00  0.00    -0.450 OA
ATOM      7 BR   UNL     1       1.194  -4.973  -5.184  0.00  0.00    -0.007 Br
ATOM      8 BR   UNL     1      -2.363  -4.574  -5.247  0.00  0.00    -0.046 Br
ENDBRANCH   1   2
BRANCH   1   9
ATOM      9  N   UNL     1       0.794  -0.862  -1.197  0.00  0.00    -0.320 N 
BRANCH   9  10
ATOM     10  C   UNL     1       2.063  -1.405  -1.421  0.00  0.00    +0.066 A 
ATOM     11  C   UNL     1       2.251  -2.780  -1.368  0.00  0.00    +0.026 A 
ATOM     12  C   UNL     1       3.505  -3.314  -1.590  0.00  0.00    +0.002 A 
ATOM     13  C   UNL     1       4.575  -2.482  -1.863  0.00  0.00    +0.003 A 
ATOM     14  C   UNL     1       4.394  -1.112  -1.916  0.00  0.00    +0.040 A 
ATOM     15  C   UNL     1       3.139  -0.571  -1.701  0.00  0.00    +0.144 A 
ATOM     16  F   UNL     1       2.961   0.767  -1.759  0.00  0.00    -0.204 F 
ENDBRANCH   9  10
BRANCH   9  18
ATOM     17  C   UNL     1       0.646   0.858   0.535  0.00  0.00    +0.024 C 
ATOM     18  C   UNL     1       0.341  -0.597   0.170  0.00  0.00    +0.102 C 
ENDBRANCH   9  18
ENDBRANCH   1   9
BRANCH   1  19
ATOM     19  C   UNL     1       0.542   0.555  -3.174  0.00  0.00    -0.056 C 
BRANCH  19  20
ATOM     20  N   UNL     1       0.655   1.777  -2.366  0.00  0.00    +0.380 N 
ATOM     21  H   UNL     1       1.169   1.575  -1.521  0.00  0.00    -0.090 HD
ATOM     22  H   UNL     1       1.141   2.486  -2.894  0.00  0.00    -0.090 HD
ATOM     23  H   UNL     1      -0.267   2.109  -2.127  0.00  0.00    -0.090 HD
ENDBRANCH  19  20
ENDBRANCH   1  19
TORSDOF 6
