REMARK  Name = ZINC17219610
REMARK  8 active torsions:
REMARK  status: ('A' for Active; 'I' for Inactive)
REMARK    1  A    between atoms: C_1  and  C_2
REMARK    2  A    between atoms: C_2  and  O_4
REMARK    3  A    between atoms: O_4  and  C_5
REMARK    4  A    between atoms: C_9  and  C_35
REMARK    5  A    between atoms: C_14  and  C_34
REMARK    6  A    between atoms: C_15  and  C_27
REMARK    7  A    between atoms: C_30  and  O_32
REMARK    8  A    between atoms: O_32  and  C_33
REMARK                            x       y       z     vdW  Elec       q    Type
REMARK                         _______ _______ _______ _____ _____    ______ ____
ROOT
ATOM      1  C   UNL     1       3.114   9.808  -2.931  0.00  0.00    +0.180 C 
ATOM      2  C   UNL     1       4.042   9.886  -1.722  0.00  0.00    +0.046 C 
ATOM      3  C   UNL     1       3.274   9.745  -0.412  0.00  0.00    +0.015 C 
ATOM      4  C   UNL     1       2.510   8.414  -0.369  0.00  0.00    -0.008 C 
ATOM      5  C   UNL     1       1.733   8.308   0.926  0.00  0.00    +0.003 C 
ATOM      6  C   UNL     1       1.633   6.885   1.468  0.00  0.00    +0.005 C 
ATOM      7  C   UNL     1       0.994   6.938   2.855  0.00  0.00    +0.008 C 
ATOM      8  C   UNL     1      -0.339   7.628   2.916  0.00  0.00    -0.020 C 
ATOM      9  C   UNL     1      -1.554   6.748   2.634  0.00  0.00    +0.051 C 
ATOM     10  C   UNL     1      -2.466   7.542   1.678  0.00  0.00    +0.011 C 
ATOM     11  C   UNL     1      -1.969   8.998   1.734  0.00  0.00    +0.005 C 
ATOM     12  C   UNL     1      -0.455   8.890   2.054  0.00  0.00    -0.001 C 
ATOM     13  C   UNL     1       0.312   8.846   0.749  0.00  0.00    +0.000 C 
ATOM     14  C   UNL     1      -0.401   8.004  -0.311  0.00  0.00    +0.031 C 
ATOM     15  C   UNL     1       0.373   8.140  -1.598  0.00  0.00    -0.027 C 
ATOM     16  C   UNL     1       1.659   8.326  -1.603  0.00  0.00    -0.064 C 
ATOM     17  C   UNL     1       2.361   8.475  -2.944  0.00  0.00    +0.075 C 
ATOM     18  C   UNL     1      -0.495   8.103   4.389  0.00  0.00    +0.012 C 
ATOM     19  C   UNL     1       3.547   7.295  -0.438  0.00  0.00    +0.016 C 
ENDROOT
BRANCH   9  20
ATOM     20  C   UNL     1      -1.208   5.412   2.045  0.00  0.00    +0.085 A 
ATOM     21  N   UNL     1      -0.574   5.144   0.928  0.00  0.00    -0.248 NA
ATOM     22  C   UNL     1      -0.341   3.903   0.549  0.00  0.00    +0.164 A 
ATOM     23  C   UNL     1      -0.787   2.892   1.346  0.00  0.00    +0.178 A 
ATOM     24  S   UNL     1      -1.544   3.826   2.668  0.00  0.00    -0.035 S 
BRANCH  23  25
ATOM     25  O   UNL     1      -0.682   1.547   1.184  0.00  0.00    -0.487 OA
ATOM     26  C   UNL     1      -0.013   1.086   0.008  0.00  0.00    +0.278 C 
ENDBRANCH  23  25
ENDBRANCH   9  20
BRANCH   1  27
ATOM     27  O   UNL     1       2.161  10.903  -2.886  0.00  0.00    -0.461 OA
BRANCH  27  29
ATOM     28  C   UNL     1       0.745  12.525  -4.094  0.00  0.00    +0.136 C 
ATOM     29  C   UNL     1       1.735  11.389  -4.062  0.00  0.00    +0.304 C 
ATOM     30  O   UNL     1       2.144  10.915  -5.095  0.00  0.00    -0.251 OA
ENDBRANCH  27  29
ENDBRANCH   1  27
TORSDOF 4
