REMARK  Name = ZINC05342046
REMARK  7 active torsions:
REMARK  status: ('A' for Active; 'I' for Inactive)
REMARK    1  A    between atoms: C_1  and  C_2
REMARK    2  A    between atoms: N_11  and  C_15
REMARK    3  A    between atoms: C_15  and  C_16
REMARK    4  A    between atoms: N_18  and  C_19
REMARK    5  A    between atoms: N_18  and  C_25
REMARK    6  A    between atoms: C_25  and  C_26
REMARK    7  A    between atoms: C_25  and  C_27
REMARK                            x       y       z     vdW  Elec       q    Type
REMARK                         _______ _______ _______ _____ _____    ______ ____
ROOT
ATOM      1  C   UNL     1      -3.306   3.745  -1.569  0.00  0.00    +0.010 C 
ATOM      2  C   UNL     1      -2.629   3.690  -2.940  0.00  0.00    +0.018 C 
ATOM      3  C   UNL     1      -3.698   3.652  -4.035  0.00  0.00    +0.006 C 
ATOM      4  C   UNL     1      -3.020   3.577  -5.405  0.00  0.00    +0.000 C 
ATOM      5  C   UNL     1      -2.174   2.304  -5.487  0.00  0.00    +0.003 C 
ATOM      6  C   UNL     1      -1.099   2.337  -4.398  0.00  0.00    +0.035 C 
ATOM      7  C   UNL     1      -1.762   2.439  -3.028  0.00  0.00    +0.115 C 
ATOM      8  C   UNL     1      -0.717   2.444  -1.936  0.00  0.00    +0.247 C 
ATOM      9  O   UNL     1       0.165   3.260  -1.768  0.00  0.00    -0.273 OA
ATOM     10  N   UNL     1      -0.972   1.351  -1.188  0.00  0.00    -0.215 N 
ATOM     11  C   UNL     1      -2.019   0.664  -1.660  0.00  0.00    +0.310 C 
ATOM     12  O   UNL     1      -2.437  -0.361  -1.158  0.00  0.00    -0.252 OA
ATOM     13  N   UNL     1      -2.561   1.238  -2.752  0.00  0.00    -0.285 N 
ATOM     14  H   UNL     1      -3.324   0.919  -3.257  0.00  0.00    +0.151 HD
ENDROOT
BRANCH  10  15
ATOM     15  C   UNL     1      -0.194   0.960  -0.010  0.00  0.00    +0.214 C 
BRANCH  15  16
ATOM     16  C   UNL     1      -0.794   1.592   1.220  0.00  0.00    +0.238 C 
ATOM     17  O   UNL     1      -1.717   2.371   1.112  0.00  0.00    -0.273 OA
ATOM     18  N   UNL     1      -0.304   1.292   2.439  0.00  0.00    -0.268 N 
BRANCH  18  19
ATOM     19  C   UNL     1      -0.927   1.794   3.586  0.00  0.00    +0.037 A 
ATOM     20  C   UNL     1      -0.527   1.359   4.843  0.00  0.00    +0.023 A 
ATOM     21  C   UNL     1      -1.141   1.860   5.974  0.00  0.00    +0.002 A 
ATOM     22  C   UNL     1      -2.161   2.787   5.856  0.00  0.00    +0.000 A 
ATOM     23  C   UNL     1      -2.566   3.218   4.606  0.00  0.00    +0.002 A 
ATOM     24  C   UNL     1      -1.952   2.724   3.471  0.00  0.00    +0.023 A 
ENDBRANCH  18  19
BRANCH  18  25
ATOM     25  C   UNL     1       0.882   0.441   2.563  0.00  0.00    +0.075 C 
ATOM     26  C   UNL     1       1.941   1.159   3.401  0.00  0.00    +0.028 C 
ATOM     27  C   UNL     1       0.496  -0.874   3.244  0.00  0.00    +0.028 C 
ENDBRANCH  18  25
ENDBRANCH  15  16
ENDBRANCH  10  15
TORSDOF 4
