REMARK  Name = ZINC46055911
REMARK  9 active torsions:
REMARK  status: ('A' for Active; 'I' for Inactive)
REMARK    1  A    between atoms: C_1  and  C_2
REMARK    2  A    between atoms: C_2  and  C_4
REMARK    3  A    between atoms: C_2  and  N_14
REMARK    4  A    between atoms: C_7  and  S_10
REMARK    5  A    between atoms: S_10  and  N_13
REMARK    6  A    between atoms: N_14  and  C_15
REMARK    7  A    between atoms: N_14  and  C_16
REMARK    8  A    between atoms: C_16  and  C_17
REMARK    9  A    between atoms: C_20  and  C_22
REMARK                            x       y       z     vdW  Elec       q    Type
REMARK                         _______ _______ _______ _____ _____    ______ ____
ROOT
ATOM      1  N   UNL     1      -1.376  -0.512   0.012  0.00  0.00    +0.386 N 
ATOM      2  C   UNL     1      -2.087  -0.026  -1.178  0.00  0.00    -0.095 C 
ATOM      3  H   UNL     1      -1.848  -0.187   0.843  0.00  0.00    -0.081 HD
ENDROOT
BRANCH   1   5
ATOM      4  C   UNL     1      -0.019   1.526   0.010  0.00  0.00    -0.008 C 
ATOM      5  C   UNL     1       0.002  -0.004   0.002  0.00  0.00    -0.041 C 
BRANCH   5   6
ATOM      6  C   UNL     1       0.731  -0.503   1.223  0.00  0.00    -0.061 A 
ATOM      7  C   UNL     1       0.081  -0.558   2.442  0.00  0.00    +0.004 A 
ATOM      8  C   UNL     1       0.749  -1.016   3.562  0.00  0.00    +0.029 A 
ATOM      9  C   UNL     1       2.068  -1.420   3.463  0.00  0.00    +0.105 A 
ATOM     10  C   UNL     1       2.718  -1.365   2.244  0.00  0.00    +0.029 A 
ATOM     11  C   UNL     1       2.048  -0.911   1.123  0.00  0.00    +0.004 A 
BRANCH   9  12
ATOM     12  S   UNL     1       2.921  -2.002   4.890  0.00  0.00    +0.056 S 
ATOM     13  O   UNL     1       4.306  -1.804   4.645  0.00  0.00    -0.153 OA
ATOM     14  O   UNL     1       2.259  -1.441   6.016  0.00  0.00    -0.153 OA
BRANCH  12  15
ATOM     15  N   UNL     1       2.683  -3.639   4.969  0.00  0.00    -0.204 NA
ATOM     16  H   UNL     1       3.359  -4.209   5.367  0.00  0.00    +0.144 HD
ATOM     17  H   UNL     1       1.867  -4.028   4.617  0.00  0.00    +0.144 HD
ENDBRANCH  12  15
ENDBRANCH   9  12
ENDBRANCH   5   6
ENDBRANCH   1   5
BRANCH   1  18
ATOM     18  C   UNL     1      -1.356  -1.981   0.004  0.00  0.00    -0.021 C 
BRANCH  18  19
ATOM     19  C   UNL     1      -2.763  -2.504   0.139  0.00  0.00    +0.032 A 
ATOM     20  C   UNL     1      -3.501  -2.845  -0.949  0.00  0.00    +0.068 A 
ATOM     21  S   UNL     1      -5.017  -3.371  -0.166  0.00  0.00    -0.080 S 
ATOM     22  C   UNL     1      -4.557  -3.105   1.431  0.00  0.00    +0.082 A 
ATOM     23  N   UNL     1      -3.333  -2.655   1.318  0.00  0.00    -0.251 NA
BRANCH  22  24
ATOM     24  C   UNL     1      -5.359  -3.334   2.686  0.00  0.00    +0.045 C 
ATOM     25  C   UNL     1      -5.745  -4.812   2.783  0.00  0.00    +0.010 C 
ATOM     26  C   UNL     1      -6.558  -5.044   4.057  0.00  0.00    +0.001 C 
ATOM     27  C   UNL     1      -7.825  -4.188   4.017  0.00  0.00    +0.000 C 
ATOM     28  C   UNL     1      -7.439  -2.710   3.921  0.00  0.00    +0.001 C 
ATOM     29  C   UNL     1      -6.626  -2.478   2.646  0.00  0.00    +0.010 C 
ENDBRANCH  22  24
ENDBRANCH  18  19
ENDBRANCH   1  18
TORSDOF 7
