REMARK  Name = ZINC09094367
REMARK  12 active torsions:
REMARK  status: ('A' for Active; 'I' for Inactive)
REMARK    1  A    between atoms: C_1  and  C_2
REMARK    2  A    between atoms: C_7  and  N_8
REMARK    3  A    between atoms: C_11  and  C_16
REMARK    4  A    between atoms: C_16  and  S_17
REMARK    5  A    between atoms: S_17  and  C_18
REMARK    6  A    between atoms: N_28  and  C_29
REMARK    7  A    between atoms: C_29  and  C_30
REMARK    8  A    between atoms: C_30  and  C_31
REMARK    9  A    between atoms: C_31  and  O_32
REMARK   10  A    between atoms: O_32  and  C_33
REMARK   11  A    between atoms: C_33  and  C_34
REMARK   12  A    between atoms: C_33  and  C_35
REMARK                            x       y       z     vdW  Elec       q    Type
REMARK                         _______ _______ _______ _____ _____    ______ ____
ROOT
ATOM      1  C   UNL     1       2.742   3.936   3.375  0.00  0.00    +0.153 C 
ENDROOT
BRANCH   1   5
ATOM      2  N   UNL     1       2.571   8.730   3.429  0.00  0.00    -0.283 N 
ATOM      3  C   UNL     1       3.139   7.569   2.942  0.00  0.00    +0.224 A 
ATOM      4  N   UNL     1       2.700   6.385   3.362  0.00  0.00    -0.198 NA
ATOM      5  C   UNL     1       3.242   5.274   2.896  0.00  0.00    +0.146 A 
ATOM      6  N   UNL     1       4.225   5.333   2.014  0.00  0.00    -0.199 NA
ATOM      7  C   UNL     1       4.665   6.514   1.585  0.00  0.00    +0.217 A 
ATOM      8  N   UNL     1       4.123   7.633   2.051  0.00  0.00    -0.181 NA
ATOM      9  N   UNL     1       5.688   6.575   0.660  0.00  0.00    -0.327 N 
ATOM     10  H   UNL     1       1.797   8.684   4.013  0.00  0.00    +0.155 HD
ATOM     11  H   UNL     1       6.011   7.435   0.350  0.00  0.00    +0.145 HD
ATOM     12  H   UNL     1       6.083   5.757   0.320  0.00  0.00    +0.145 HD
BRANCH   2  19
ATOM     13  C   UNL     1       0.870  11.009   3.522  0.00  0.00    +0.045 C 
ATOM     14  C   UNL     1       2.317  11.111   3.114  0.00  0.00    -0.029 A 
ATOM     15  C   UNL     1       2.854  12.336   2.770  0.00  0.00    +0.005 A 
ATOM     16  C   UNL     1       4.181  12.430   2.395  0.00  0.00    +0.000 A 
ATOM     17  C   UNL     1       4.976  11.299   2.363  0.00  0.00    +0.002 A 
ATOM     18  C   UNL     1       4.447  10.071   2.711  0.00  0.00    +0.023 A 
ATOM     19  C   UNL     1       3.112   9.973   3.082  0.00  0.00    +0.036 A 
ENDBRANCH   2  19
ENDBRANCH   1   5
BRANCH   1  20
ATOM     20  S   UNL     1       1.399   3.373   2.301  0.00  0.00    -0.080 S 
BRANCH  20  21
ATOM     21  C   UNL     1       1.017   1.834   3.069  0.00  0.00    +0.173 A 
ATOM     22  N   UNL     1       1.705   1.475   4.124  0.00  0.00    -0.223 NA
ATOM     23  C   UNL     1       1.466   0.311   4.761  0.00  0.00    +0.079 A 
ATOM     24  C   UNL     1       2.201  -0.073   5.887  0.00  0.00    +0.028 A 
ATOM     25  C   UNL     1       1.925  -1.262   6.501  0.00  0.00    +0.002 A 
ATOM     26  C   UNL     1       0.923  -2.097   6.025  0.00  0.00    +0.001 A 
ATOM     27  C   UNL     1       0.187  -1.750   4.926  0.00  0.00    +0.015 A 
ATOM     28  C   UNL     1       0.447  -0.542   4.279  0.00  0.00    +0.065 A 
ATOM     29  C   UNL     1      -0.314  -0.115   3.098  0.00  0.00    +0.262 A 
ATOM     30  O   UNL     1      -1.207  -0.804   2.638  0.00  0.00    -0.267 OA
ATOM     31  N   UNL     1       0.016   1.071   2.537  0.00  0.00    -0.287 N 
BRANCH  31  32
ATOM     32  C   UNL     1      -0.707   1.544   1.354  0.00  0.00    +0.129 C 
BRANCH  32  33
ATOM     33  C   UNL     1      -0.002   1.046   0.091  0.00  0.00    +0.050 C 
BRANCH  33  34
ATOM     34  C   UNL     1      -0.757   1.539  -1.144  0.00  0.00    +0.162 C 
BRANCH  34  35
ATOM     35  O   UNL     1      -0.098   1.073  -2.324  0.00  0.00    -0.377 OA
BRANCH  35  36
ATOM     36  C   UNL     1      -0.727   1.481  -3.540  0.00  0.00    +0.112 C 
ATOM     37  C   UNL     1       0.329   1.619  -4.639  0.00  0.00    +0.037 C 
ATOM     38  C   UNL     1      -1.761   0.432  -3.956  0.00  0.00    +0.037 C 
ENDBRANCH  35  36
ENDBRANCH  34  35
ENDBRANCH  33  34
ENDBRANCH  32  33
ENDBRANCH  31  32
ENDBRANCH  20  21
ENDBRANCH   1  20
TORSDOF 9
