REMARK  Name = ZINC35665071
REMARK  9 active torsions:
REMARK  status: ('A' for Active; 'I' for Inactive)
REMARK    1  A    between atoms: C_1  and  C_2
REMARK    2  A    between atoms: C_2  and  C_3
REMARK    3  A    between atoms: C_3  and  N_4
REMARK    4  A    between atoms: N_4  and  C_5
REMARK    5  A    between atoms: C_5  and  N_7
REMARK    6  A    between atoms: C_14  and  C_29
REMARK    7  A    between atoms: N_18  and  C_19
REMARK    8  A    between atoms: C_19  and  C_20
REMARK    9  A    between atoms: C_29  and  C_30
REMARK                            x       y       z     vdW  Elec       q    Type
REMARK                         _______ _______ _______ _____ _____    ______ ____
ROOT
ATOM      1  N   UNL     1      -1.402  -3.981  -0.146  0.00  0.00    -0.313 N 
ATOM      2  C   UNL     1      -0.397  -5.051  -0.217  0.00  0.00    +0.107 C 
ATOM      3  C   UNL     1      -0.428  -5.844   1.094  0.00  0.00    +0.025 C 
ATOM      4  C   UNL     1      -1.853  -6.325   1.362  0.00  0.00    +0.006 C 
ATOM      5  C   UNL     1      -2.801  -5.133   1.487  0.00  0.00    +0.025 C 
ATOM      6  C   UNL     1      -2.789  -4.335   0.185  0.00  0.00    +0.107 C 
ATOM      7  N   UNL     1      -1.885  -7.121   2.607  0.00  0.00    +0.401 N 
ATOM      8  C   UNL     1      -2.924  -8.141   2.328  0.00  0.00    +0.023 C 
ATOM      9  C   UNL     1      -2.930  -8.283   0.821  0.00  0.00    +0.201 C 
ATOM     10  O   UNL     1      -3.420  -9.201   0.198  0.00  0.00    -0.277 OA
ATOM     11  N   UNL     1      -2.298  -7.216   0.288  0.00  0.00    -0.309 N 
ATOM     12  H   UNL     1      -0.991  -7.559   2.773  0.00  0.00    -0.082 HD
ATOM     13  H   UNL     1      -2.152  -6.545   3.392  0.00  0.00    -0.082 HD
ENDROOT
BRANCH   1  14
ATOM     14  C   UNL     1      -1.056  -2.699  -0.376  0.00  0.00    +0.133 C 
ATOM     15  S   UNL     1       0.551  -2.312  -0.820  0.00  0.00    -0.019 S 
BRANCH  14  16
ATOM     16  N   UNL     1      -1.976  -1.721  -0.256  0.00  0.00    -0.326 N 
ATOM     17  H   UNL     1      -2.896  -1.944  -0.043  0.00  0.00    +0.148 HD
BRANCH  16  18
ATOM     18  C   UNL     1      -1.587  -0.322  -0.446  0.00  0.00    +0.103 C 
BRANCH  18  20
ATOM     19  C   UNL     1      -2.402   2.040  -0.454  0.00  0.00    +0.005 C 
ATOM     20  C   UNL     1      -2.809   0.578  -0.255  0.00  0.00    +0.015 C 
ENDBRANCH  18  20
ENDBRANCH  16  18
ENDBRANCH  14  16
ENDBRANCH   1  14
BRANCH  11  21
ATOM     21  C   UNL     1      -2.090  -6.985  -1.144  0.00  0.00    +0.141 C 
BRANCH  21  22
ATOM     22  C   UNL     1      -0.961  -7.854  -1.634  0.00  0.00    -0.026 A 
ATOM     23  C   UNL     1       0.348  -7.444  -1.464  0.00  0.00    +0.009 A 
ATOM     24  C   UNL     1       1.388  -8.238  -1.912  0.00  0.00    +0.050 A 
ATOM     25  C   UNL     1       1.119  -9.447  -2.533  0.00  0.00    +0.166 A 
ATOM     26  C   UNL     1      -0.200  -9.860  -2.704  0.00  0.00    +0.167 A 
ATOM     27  C   UNL     1      -1.237  -9.062  -2.247  0.00  0.00    +0.054 A 
ATOM     28  O   UNL     1      -0.200 -11.071  -3.334  0.00  0.00    -0.453 OA
ATOM     29  C   UNL     1       1.112 -11.204  -3.912  0.00  0.00    +0.466 C 
ATOM     30  O   UNL     1       1.945 -10.399  -3.056  0.00  0.00    -0.453 OA
ENDBRANCH  21  22
ENDBRANCH  11  21
BRANCH   8  31
ATOM     31  C   UNL     1      -2.557  -9.471   2.989  0.00  0.00    +0.028 C 
BRANCH  31  32
ATOM     32  C   UNL     1      -2.567  -9.306   4.487  0.00  0.00    -0.048 A 
ATOM     33  C   UNL     1      -1.417  -8.919   5.148  0.00  0.00    +0.003 A 
ATOM     34  C   UNL     1      -1.427  -8.768   6.522  0.00  0.00    +0.000 A 
ATOM     35  C   UNL     1      -2.587  -9.005   7.235  0.00  0.00    +0.000 A 
ATOM     36  C   UNL     1      -3.738  -9.391   6.574  0.00  0.00    +0.000 A 
ATOM     37  C   UNL     1      -3.729  -9.538   5.200  0.00  0.00    +0.003 A 
ENDBRANCH  31  32
ENDBRANCH   8  31
TORSDOF 8
