REMARK  Name = ZINC39864685
REMARK  9 active torsions:
REMARK  status: ('A' for Active; 'I' for Inactive)
REMARK    1  A    between atoms: C_1  and  C_2
REMARK    2  A    between atoms: C_2  and  O_3
REMARK    3  A    between atoms: O_3  and  C_4
REMARK    4  A    between atoms: C_6  and  C_19
REMARK    5  A    between atoms: C_9  and  O_10
REMARK    6  A    between atoms: O_10  and  C_11
REMARK    7  A    between atoms: C_11  and  C_12
REMARK    8  A    between atoms: N_23  and  C_32
REMARK    9  A    between atoms: N_25  and  C_26
REMARK                            x       y       z     vdW  Elec       q    Type
REMARK                         _______ _______ _______ _____ _____    ______ ____
ROOT
ATOM      1  C   UNL     1       1.124  -1.860  -1.284  0.00  0.00    +0.162 A 
ATOM      2  C   UNL     1       0.421  -2.621  -0.371  0.00  0.00    +0.057 A 
ATOM      3  C   UNL     1       0.140  -3.963  -0.653  0.00  0.00    -0.020 A 
ATOM      4  C   UNL     1       0.572  -4.526  -1.860  0.00  0.00    +0.012 A 
ATOM      5  C   UNL     1       1.273  -3.759  -2.765  0.00  0.00    +0.050 A 
ATOM      6  C   UNL     1       1.547  -2.427  -2.486  0.00  0.00    +0.162 A 
ENDROOT
BRANCH   3   7
ATOM      7  C   UNL     1      -0.607  -4.778   0.314  0.00  0.00    +0.028 C 
ATOM      8  C   UNL     1      -1.033  -6.020  -0.031  0.00  0.00    +0.078 C 
ATOM      9  C   UNL     1      -1.625  -7.075   0.814  0.00  0.00    +0.259 C 
ATOM     10  O   UNL     1      -1.802  -6.910   2.007  0.00  0.00    -0.269 OA
ATOM     11  N   UNL     1      -1.956  -8.207   0.216  0.00  0.00    -0.249 N 
ATOM     12  C   UNL     1      -1.750  -8.374  -1.135  0.00  0.00    +0.170 C 
ATOM     13  N   UNL     1      -2.019  -9.426  -1.881  0.00  0.00    -0.199 NA
ATOM     14  S   UNL     1      -1.036  -6.814  -1.632  0.00  0.00    -0.049 S 
ATOM     15  C   UNL     1      -2.548  -9.294   0.999  0.00  0.00    +0.140 C 
BRANCH  13  16
ATOM     16  C   UNL     1      -2.597 -10.522  -1.325  0.00  0.00    +0.195 A 
ATOM     17  N   UNL     1      -3.886 -10.823  -1.197  0.00  0.00    -0.230 NA
ATOM     18  C   UNL     1      -4.267 -11.945  -0.624  0.00  0.00    +0.121 A 
ATOM     19  C   UNL     1      -3.339 -12.814  -0.153  0.00  0.00    +0.068 A 
ATOM     20  S   UNL     1      -1.830 -11.952  -0.575  0.00  0.00    -0.056 S 
ENDBRANCH  13  16
ENDBRANCH   3   7
BRANCH   1  21
ATOM     21  O   UNL     1       1.400  -0.556  -1.014  0.00  0.00    -0.489 OA
BRANCH  21  23
ATOM     22  C   UNL     1       1.338   1.430   0.361  0.00  0.00    +0.048 C 
ATOM     23  C   UNL     1       0.937  -0.041   0.236  0.00  0.00    +0.226 C 
ENDBRANCH  21  23
ENDBRANCH   1  21
BRANCH   6  24
ATOM     24  O   UNL     1       2.234  -1.675  -3.385  0.00  0.00    -0.484 OA
BRANCH  24  25
ATOM     25  C   UNL     1       2.637  -2.318  -4.596  0.00  0.00    +0.264 C 
BRANCH  25  26
ATOM     26  C   UNL     1       3.380  -1.335  -5.463  0.00  0.00    -0.010 A 
ATOM     27  C   UNL     1       2.690  -0.555  -6.373  0.00  0.00    +0.008 A 
ATOM     28  C   UNL     1       3.371   0.346  -7.168  0.00  0.00    +0.020 A 
ATOM     29  C   UNL     1       4.744   0.468  -7.055  0.00  0.00    +0.041 A 
ATOM     30  C   UNL     1       5.435  -0.312  -6.145  0.00  0.00    +0.020 A 
ATOM     31  C   UNL     1       4.752  -1.209  -5.346  0.00  0.00    +0.008 A 
ATOM     32 CL   UNL     1       5.601   1.600  -8.055  0.00  0.00    -0.084 Cl
ENDBRANCH  25  26
ENDBRANCH  24  25
ENDBRANCH   6  24
TORSDOF 7
