REMARK  Name = ZINC11814180
REMARK  4 active torsions:
REMARK  status: ('A' for Active; 'I' for Inactive)
REMARK    1  A    between atoms: C_6  and  C_7
REMARK    2  A    between atoms: C_7  and  N_44
REMARK    3  A    between atoms: C_8  and  C_9
REMARK    4  A    between atoms: C_8  and  N_44
REMARK                            x       y       z     vdW  Elec       q    Type
REMARK                         _______ _______ _______ _____ _____    ______ ____
ROOT
ATOM      1  C   UNL     1      -6.645   0.364   1.470  0.00  0.00    +0.004 A 
ATOM      2  C   UNL     1      -5.585   0.724   2.285  0.00  0.00    +0.026 A 
ATOM      3  C   UNL     1      -4.345   0.887   1.671  0.00  0.00    +0.047 A 
ATOM      4  C   UNL     1      -4.199   0.687   0.274  0.00  0.00    +0.003 A 
ATOM      5  C   UNL     1      -5.287   0.323  -0.525  0.00  0.00    +0.012 A 
ATOM      6  C   UNL     1      -6.497   0.170   0.107  0.00  0.00    -0.064 A 
ATOM      7  C   UNL     1      -2.803   0.935  -0.021  0.00  0.00    -0.019 A 
ATOM      8  C   UNL     1      -2.201   1.254   1.145  0.00  0.00    +0.020 A 
ATOM      9  N   UNL     1      -3.118   1.229   2.163  0.00  0.00    -0.358 N 
ATOM     10  H   UNL     1      -2.924   1.424   3.093  0.00  0.00    +0.166 HD
ATOM     11  C   UNL     1      -0.731   1.580   1.268  0.00  0.00    +0.053 C 
ATOM     12  C   UNL     1      -0.013   1.086   0.008  0.00  0.00    +0.006 C 
ATOM     13  C   UNL     1      -0.754   1.593  -1.232  0.00  0.00    +0.005 C 
ATOM     14  C   UNL     1      -2.098   0.866  -1.353  0.00  0.00    +0.037 C 
ENDROOT
BRANCH   6  15
ATOM     15  C   UNL     1      -7.701  -0.223  -0.709  0.00  0.00    -0.046 C 
BRANCH  15  16
ATOM     16  N   UNL     1      -7.801  -1.694  -0.747  0.00  0.00    +0.384 N 
ATOM     17  H   UNL     1      -7.896  -2.052   0.210  0.00  0.00    -0.085 HD
ATOM     18  H   UNL     1      -6.950  -2.080  -1.173  0.00  0.00    -0.085 HD
BRANCH  16  19
ATOM     19  C   UNL     1      -8.973  -2.107  -1.541  0.00  0.00    -0.046 C 
BRANCH  19  20
ATOM     20  C   UNL     1      -9.049  -3.612  -1.563  0.00  0.00    -0.062 A 
ATOM     21  C   UNL     1      -8.397  -4.311  -2.586  0.00  0.00    +0.004 A 
ATOM     22  C   UNL     1      -8.422  -5.665  -2.660  0.00  0.00    +0.033 A 
ATOM     23  C   UNL     1      -9.131  -6.397  -1.689  0.00  0.00    +0.134 A 
ATOM     24  C   UNL     1      -9.827  -5.656  -0.607  0.00  0.00    +0.134 A 
ATOM     25  C   UNL     1      -9.751  -4.250  -0.594  0.00  0.00    +0.035 A 
ATOM     26  N   UNL     1     -10.370  -6.617   0.100  0.00  0.00    -0.049 NA
ATOM     27  O   UNL     1     -10.090  -7.687  -0.404  0.00  0.00    -0.242 OA
ATOM     28  N   UNL     1      -9.402  -7.647  -1.404  0.00  0.00    -0.049 NA
ENDBRANCH  19  20
ENDBRANCH  16  19
ENDBRANCH  15  16
ENDBRANCH   6  15
TORSDOF 4
