REMARK  Name = ZINC58159260
REMARK  9 active torsions:
REMARK  status: ('A' for Active; 'I' for Inactive)
REMARK    1  A    between atoms: C_1  and  N_2
REMARK    2  A    between atoms: N_2  and  C_3
REMARK    3  A    between atoms: N_2  and  C_14
REMARK    4  A    between atoms: C_3  and  C_4
REMARK    5  A    between atoms: N_9  and  C_10
REMARK    6  A    between atoms: C_10  and  C_11
REMARK    7  A    between atoms: C_11  and  O_12
REMARK    8  A    between atoms: O_12  and  C_13
REMARK    9  A    between atoms: C_17  and  C_20
REMARK                            x       y       z     vdW  Elec       q    Type
REMARK                         _______ _______ _______ _____ _____    ______ ____
ROOT
ATOM      1  C   UNL     1      -0.018   1.465   0.010  0.00  0.00    -0.095 C 
ATOM      2  N   UNL     1       0.002  -0.004   0.002  0.00  0.00    +0.385 N 
ATOM      3  H   UNL     1      -0.945  -0.353   0.009  0.00  0.00    -0.081 HD
ENDROOT
BRANCH   2   4
ATOM      4  C   UNL     1       0.690  -0.478  -1.207  0.00  0.00    -0.068 C 
ATOM      5  C   UNL     1       0.710  -2.008  -1.215  0.00  0.00    -0.015 C 
ATOM      6  C   UNL     1      -0.725  -2.537  -1.204  0.00  0.00    +0.006 C 
ATOM      7  C   UNL     1      -1.465  -2.030  -2.444  0.00  0.00    +0.019 C 
ATOM      8  C   UNL     1      -1.486  -0.501  -2.435  0.00  0.00    +0.006 C 
ATOM      9  C   UNL     1      -0.050   0.029  -2.446  0.00  0.00    -0.015 C 
BRANCH   7  10
ATOM     10  C   UNL     1      -2.879  -2.552  -2.433  0.00  0.00    -0.044 A 
ATOM     11  C   UNL     1      -3.726  -2.231  -1.389  0.00  0.00    +0.004 A 
ATOM     12  C   UNL     1      -5.023  -2.709  -1.379  0.00  0.00    +0.000 A 
ATOM     13  C   UNL     1      -5.473  -3.509  -2.414  0.00  0.00    +0.000 A 
ATOM     14  C   UNL     1      -4.625  -3.829  -3.458  0.00  0.00    +0.000 A 
ATOM     15  C   UNL     1      -3.330  -3.347  -3.470  0.00  0.00    +0.004 A 
ENDBRANCH   7  10
ENDBRANCH   2   4
BRANCH   2  16
ATOM     16  C   UNL     1       0.713  -0.491   1.192  0.00  0.00    +0.019 C 
BRANCH  16  17
ATOM     17  C   UNL     1      -0.059  -0.109   2.429  0.00  0.00    +0.204 C 
ATOM     18  O   UNL     1      -1.099   0.507   2.329  0.00  0.00    -0.277 OA
ATOM     19  N   UNL     1       0.406  -0.453   3.646  0.00  0.00    -0.242 N 
ATOM     20  C   UNL     1      -0.285  -0.112   4.752  0.00  0.00    +0.306 C 
ATOM     21  O   UNL     1      -1.327   0.506   4.652  0.00  0.00    -0.252 OA
ATOM     22  N   UNL     1       0.180  -0.456   5.970  0.00  0.00    -0.297 N 
ATOM     23  H   UNL     1       1.237  -0.946   3.726  0.00  0.00    +0.159 HD
ATOM     24  H   UNL     1       1.012  -0.949   6.050  0.00  0.00    +0.150 HD
BRANCH  22  25
ATOM     25  C   UNL     1      -0.570  -0.085   7.172  0.00  0.00    +0.133 C 
BRANCH  25  26
ATOM     26  C   UNL     1       0.170  -0.592   8.412  0.00  0.00    +0.178 C 
BRANCH  26  27
ATOM     27  O   UNL     1       1.425   0.082   8.526  0.00  0.00    -0.381 OA
ATOM     28  C   UNL     1       2.199  -0.320   9.658  0.00  0.00    +0.194 C 
ENDBRANCH  26  27
ENDBRANCH  25  26
ENDBRANCH  22  25
ENDBRANCH  16  17
ENDBRANCH   2  16
TORSDOF 7
