REMARK  Name = ZINC40035903
REMARK  10 active torsions:
REMARK  status: ('A' for Active; 'I' for Inactive)
REMARK    1  A    between atoms: C_1  and  C_2
REMARK    2  A    between atoms: C_2  and  C_3
REMARK    3  A    between atoms: C_3  and  C_38
REMARK    4  A    between atoms: N_15  and  C_36
REMARK    5  A    between atoms: N_18  and  N_19
REMARK    6  A    between atoms: C_20  and  C_21
REMARK    7  A    between atoms: C_25  and  O_27
REMARK    8  A    between atoms: O_27  and  C_28
REMARK    9  A    between atoms: C_28  and  C_29
REMARK   10  A    between atoms: C_36  and  C_37
REMARK                            x       y       z     vdW  Elec       q    Type
REMARK                         _______ _______ _______ _____ _____    ______ ____
ROOT
ATOM      1  C   UNL     1      -1.433  -0.534   0.013  0.00  0.00    +0.004 C 
ATOM      2  C   UNL     1      -1.300  -2.053   0.091  0.00  0.00    +0.047 C 
ATOM      3  C   UNL     1      -0.797  -2.607  -1.215  0.00  0.00    -0.037 A 
ATOM      4  C   UNL     1       0.055  -3.692  -1.231  0.00  0.00    +0.004 A 
ATOM      5  C   UNL     1       0.510  -4.197  -2.436  0.00  0.00    +0.000 A 
ATOM      6  C   UNL     1       0.116  -3.622  -3.631  0.00  0.00    +0.001 A 
ATOM      7  C   UNL     1      -0.736  -2.536  -3.628  0.00  0.00    +0.010 A 
ATOM      8  C   UNL     1      -1.194  -2.023  -2.418  0.00  0.00    +0.004 A 
ATOM      9  C   UNL     1      -2.100  -0.852  -2.383  0.00  0.00    +0.084 A 
ATOM     10  C   UNL     1      -2.220  -0.133  -1.203  0.00  0.00    +0.049 A 
ATOM     11  C   UNL     1      -3.084   0.970  -1.169  0.00  0.00    +0.260 A 
ATOM     12  O   UNL     1      -3.217   1.626  -0.149  0.00  0.00    -0.267 OA
ATOM     13  N   UNL     1      -3.766   1.290  -2.289  0.00  0.00    -0.280 N 
ATOM     14  C   UNL     1      -3.608   0.553  -3.424  0.00  0.00    +0.219 A 
ATOM     15  N   UNL     1      -2.798  -0.484  -3.463  0.00  0.00    -0.214 NA
ATOM     16  N   UNL     1      -4.308   0.900  -4.551  0.00  0.00    -0.206 N 
ATOM     17  C   UNL     1      -2.149  -0.026   1.266  0.00  0.00    +0.016 C 
ATOM     18  H   UNL     1      -4.907   1.662  -4.535  0.00  0.00    +0.177 HD
ENDROOT
BRANCH   1  20
ATOM     19  C   UNL     1      -0.165   1.615  -0.109  0.00  0.00    +0.005 C 
ATOM     20  C   UNL     1      -0.039   0.091  -0.060  0.00  0.00    +0.008 C 
ENDBRANCH   1  20
BRANCH  16  21
ATOM     21  N   UNL     1      -4.157   0.152  -5.726  0.00  0.00    -0.188 NA
ATOM     22  C   UNL     1      -4.819   0.480  -6.793  0.00  0.00    +0.138 C 
BRANCH  22  23
ATOM     23  C   UNL     1      -4.660  -0.307  -8.030  0.00  0.00    -0.002 A 
ATOM     24  C   UNL     1      -3.802  -1.409  -8.055  0.00  0.00    +0.010 A 
ATOM     25  C   UNL     1      -3.656  -2.142  -9.215  0.00  0.00    +0.004 A 
ATOM     26  C   UNL     1      -4.357  -1.790 -10.354  0.00  0.00    +0.046 A 
ATOM     27  C   UNL     1      -5.212  -0.696 -10.339  0.00  0.00    +0.122 A 
ATOM     28  C   UNL     1      -5.371   0.044  -9.180  0.00  0.00    +0.055 A 
BRANCH  27  29
ATOM     29  O   UNL     1      -5.898  -0.355 -11.462  0.00  0.00    -0.487 OA
BRANCH  29  30
ATOM     30  C   UNL     1      -5.690  -1.166 -12.620  0.00  0.00    +0.264 C 
BRANCH  30  31
ATOM     31  C   UNL     1      -6.527  -0.640 -13.758  0.00  0.00    -0.010 A 
ATOM     32  C   UNL     1      -7.816  -1.105 -13.940  0.00  0.00    +0.008 A 
ATOM     33  C   UNL     1      -8.584  -0.624 -14.983  0.00  0.00    +0.020 A 
ATOM     34  C   UNL     1      -8.062   0.325 -15.845  0.00  0.00    +0.041 A 
ATOM     35  C   UNL     1      -6.772   0.790 -15.662  0.00  0.00    +0.020 A 
ATOM     36  C   UNL     1      -6.007   0.311 -14.615  0.00  0.00    +0.008 A 
ATOM     37 CL   UNL     1      -9.026   0.930 -17.156  0.00  0.00    -0.084 Cl
ENDBRANCH  30  31
ENDBRANCH  29  30
ENDBRANCH  27  29
ENDBRANCH  22  23
ENDBRANCH  16  21
BRANCH  13  38
ATOM     38  C   UNL     1      -4.681   2.435  -2.285  0.00  0.00    +0.125 C 
ATOM     39  C   UNL     1      -3.919   3.698  -2.693  0.00  0.00    +0.027 C 
ENDBRANCH  13  38
TORSDOF 7
