REMARK  Name = ZINC20861547
REMARK  7 active torsions:
REMARK  status: ('A' for Active; 'I' for Inactive)
REMARK    1  A    between atoms: C_4  and  N_7
REMARK    2  A    between atoms: C_16  and  S_17
REMARK    3  A    between atoms: S_17  and  C_18
REMARK    4  A    between atoms: C_18  and  C_19
REMARK    5  A    between atoms: N_21  and  C_22
REMARK    6  A    between atoms: C_25  and  S_28
REMARK    7  A    between atoms: S_28  and  N_31
REMARK                            x       y       z     vdW  Elec       q    Type
REMARK                         _______ _______ _______ _____ _____    ______ ____
ROOT
ATOM      1  S   UNL     1       2.006   4.319  -0.217  0.00  0.00    -0.078 S 
ENDROOT
BRANCH   1  11
ATOM      2  N   UNL     1       3.586   2.129   0.025  0.00  0.00    -0.255 N 
ATOM      3  C   UNL     1       4.752   1.463   0.121  0.00  0.00    +0.267 A 
ATOM      4  O   UNL     1       4.762   0.247   0.214  0.00  0.00    -0.267 OA
ATOM      5  C   UNL     1       5.978   2.199   0.114  0.00  0.00    +0.073 A 
ATOM      6  C   UNL     1       7.343   1.712   0.204  0.00  0.00    +0.023 A 
ATOM      7  C   UNL     1       8.356   2.590   0.177  0.00  0.00    +0.048 A 
ATOM      8  S   UNL     1       7.534   4.165   0.025  0.00  0.00    -0.077 S 
ATOM      9  C   UNL     1       5.853   3.597   0.003  0.00  0.00    +0.116 A 
ATOM     10  N   UNL     1       4.671   4.194  -0.089  0.00  0.00    -0.216 NA
ATOM     11  C   UNL     1       3.556   3.491  -0.086  0.00  0.00    +0.178 A 
BRANCH   2  15
ATOM     12  C   UNL     1       0.005  -0.003   0.044  0.00  0.00    +0.000 A 
ATOM     13  C   UNL     1       0.894  -0.157  -1.004  0.00  0.00    +0.002 A 
ATOM     14  C   UNL     1       2.081   0.549  -1.014  0.00  0.00    +0.026 A 
ATOM     15  C   UNL     1       2.382   1.413   0.031  0.00  0.00    +0.052 A 
ATOM     16  C   UNL     1       1.488   1.565   1.082  0.00  0.00    +0.026 A 
ATOM     17  C   UNL     1       0.302   0.857   1.085  0.00  0.00    +0.002 A 
ENDBRANCH   2  15
ENDBRANCH   1  11
BRANCH   1  18
ATOM     18  C   UNL     1       2.574   6.034  -0.330  0.00  0.00    +0.173 C 
BRANCH  18  19
ATOM     19  C   UNL     1       1.384   6.950  -0.453  0.00  0.00    +0.227 C 
ATOM     20  O   UNL     1       0.262   6.489  -0.464  0.00  0.00    -0.275 OA
ATOM     21  N   UNL     1       1.566   8.281  -0.551  0.00  0.00    -0.285 N 
ATOM     22  H   UNL     1       2.583   8.693  -0.633  0.00  0.00    +0.155 HD
BRANCH  21  23
ATOM     23  C   UNL     1       0.461   9.141  -0.550  0.00  0.00    +0.034 A 
ATOM     24  C   UNL     1       0.482  10.303  -1.310  0.00  0.00    +0.025 A 
ATOM     25  C   UNL     1      -0.612  11.145  -1.311  0.00  0.00    +0.030 A 
ATOM     26  C   UNL     1      -1.723  10.839  -0.547  0.00  0.00    +0.105 A 
ATOM     27  C   UNL     1      -1.745   9.686   0.216  0.00  0.00    +0.030 A 
ATOM     28  C   UNL     1      -0.656   8.836   0.216  0.00  0.00    +0.025 A 
BRANCH  26  29
ATOM     29  S   UNL     1      -3.114  11.921  -0.545  0.00  0.00    +0.056 S 
ATOM     30  O   UNL     1      -3.062  12.652  -1.762  0.00  0.00    -0.153 OA
ATOM     31  O   UNL     1      -4.239  11.135  -0.176  0.00  0.00    -0.153 OA
BRANCH  29  32
ATOM     32  N   UNL     1      -2.881  13.016   0.675  0.00  0.00    -0.204 NA
ATOM     33  H   UNL     1      -3.732  13.713   0.710  0.00  0.00    +0.144 HD
ATOM     34  H   UNL     1      -1.954  13.579   0.491  0.00  0.00    +0.144 HD
ENDBRANCH  29  32
ENDBRANCH  26  29
ENDBRANCH  21  23
ENDBRANCH  18  19
ENDBRANCH   1  18
TORSDOF 7
