REMARK  Name = ZINC67303799
REMARK  7 active torsions:
REMARK  status: ('A' for Active; 'I' for Inactive)
REMARK    1  A    between atoms: C_1  and  C_2
REMARK    2  A    between atoms: C_2  and  C_3
REMARK    3  A    between atoms: C_2  and  N_4
REMARK    4  A    between atoms: C_13  and  C_15
REMARK    5  A    between atoms: C_18  and  C_20
REMARK    6  A    between atoms: C_23  and  O_26
REMARK    7  A    between atoms: O_26  and  C_27
REMARK                            x       y       z     vdW  Elec       q    Type
REMARK                         _______ _______ _______ _____ _____    ______ ____
ROOT
ATOM      1  N   UNL     1      -1.370  -0.515   0.012  0.00  0.00    -0.297 N 
ATOM      2  C   UNL     1      -2.051  -0.643  -1.145  0.00  0.00    +0.302 C 
ATOM      3  O   UNL     1      -1.559  -0.253  -2.186  0.00  0.00    -0.253 OA
ATOM      4  N   UNL     1      -3.277  -1.203  -1.147  0.00  0.00    -0.283 N 
ATOM      5  C   UNL     1      -3.934  -1.569   0.115  0.00  0.00    +0.128 C 
ATOM      6  C   UNL     1      -5.305  -0.884   0.170  0.00  0.00    +0.127 C 
ATOM      7  N   UNL     1      -6.009  -1.139  -1.095  0.00  0.00    -0.298 N 
ATOM      8  C   UNL     1      -5.351  -0.773  -2.357  0.00  0.00    +0.127 C 
ATOM      9  C   UNL     1      -3.982  -1.453  -2.412  0.00  0.00    +0.128 C 
ATOM     10  C   UNL     1      -7.235  -1.699  -1.097  0.00  0.00    +0.219 C 
ATOM     11  O   UNL     1      -7.767  -1.997  -0.049  0.00  0.00    -0.275 OA
ATOM     12  H   UNL     1      -1.791  -0.760   0.851  0.00  0.00    +0.150 HD
ENDROOT
BRANCH   1  14
ATOM     13  C   UNL     1      -0.017   1.522   0.015  0.00  0.00    +0.027 C 
ATOM     14  C   UNL     1       0.004  -0.008   0.001  0.00  0.00    +0.068 C 
ATOM     15  C   UNL     1       0.746  -0.519   1.237  0.00  0.00    +0.027 C 
ENDBRANCH   1  14
BRANCH  10  16
ATOM     16  C   UNL     1      -7.944  -1.954  -2.402  0.00  0.00    +0.083 C 
ATOM     17  C   UNL     1      -9.184  -1.113  -2.708  0.00  0.00    +0.022 C 
ATOM     18  C   UNL     1      -9.334  -2.591  -2.338  0.00  0.00    +0.032 C 
BRANCH  18  19
ATOM     19  C   UNL     1      -9.712  -3.549  -3.438  0.00  0.00    -0.043 A 
ATOM     20  C   UNL     1      -9.730  -3.119  -4.752  0.00  0.00    +0.007 A 
ATOM     21  C   UNL     1     -10.077  -3.995  -5.762  0.00  0.00    +0.046 A 
ATOM     22  C   UNL     1     -10.406  -5.308  -5.457  0.00  0.00    +0.120 A 
ATOM     23  C   UNL     1     -10.387  -5.737  -4.138  0.00  0.00    +0.046 A 
ATOM     24  C   UNL     1     -10.034  -4.858  -3.132  0.00  0.00    +0.007 A 
BRANCH  22  25
ATOM     25  O   UNL     1     -10.748  -6.172  -6.449  0.00  0.00    -0.495 OA
ATOM     26  C   UNL     1     -11.075  -7.508  -6.061  0.00  0.00    +0.277 C 
ENDBRANCH  22  25
ENDBRANCH  18  19
ENDBRANCH  10  16
TORSDOF 4
