REMARK  Name = ZINC09092816
REMARK  5 active torsions:
REMARK  status: ('A' for Active; 'I' for Inactive)
REMARK    1  A    between atoms: C_1  and  C_2
REMARK    2  A    between atoms: C_2  and  C_21
REMARK    3  A    between atoms: N_5  and  C_9
REMARK    4  A    between atoms: C_9  and  C_10
REMARK    5  A    between atoms: N_12  and  C_13
REMARK                            x       y       z     vdW  Elec       q    Type
REMARK                         _______ _______ _______ _____ _____    ______ ____
ROOT
ATOM      1  C   UNL     1      -7.328   0.719  -1.464  0.00  0.00    +0.047 C 
ATOM      2  C   UNL     1      -7.637   2.144  -1.000  0.00  0.00    +0.135 C 
ATOM      3  C   UNL     1      -6.521   3.093  -1.390  0.00  0.00    +0.251 C 
ATOM      4  O   UNL     1      -6.144   3.359  -2.511  0.00  0.00    -0.272 OA
ATOM      5  N   UNL     1      -6.034   3.579  -0.231  0.00  0.00    -0.215 N 
ATOM      6  C   UNL     1      -6.685   3.079   0.825  0.00  0.00    +0.310 C 
ATOM      7  O   UNL     1      -6.429   3.371   1.977  0.00  0.00    -0.252 OA
ATOM      8  N   UNL     1      -7.655   2.217   0.471  0.00  0.00    -0.281 N 
ATOM      9  H   UNL     1      -8.251   1.738   1.068  0.00  0.00    +0.152 HD
ENDROOT
BRANCH   2  10
ATOM     10  C   UNL     1      -8.950   2.613  -1.571  0.00  0.00    -0.012 A 
ATOM     11  C   UNL     1      -8.982   3.244  -2.801  0.00  0.00    +0.010 A 
ATOM     12  C   UNL     1     -10.184   3.672  -3.331  0.00  0.00    +0.050 A 
ATOM     13  C   UNL     1     -11.361   3.479  -2.626  0.00  0.00    +0.166 A 
ATOM     14  C   UNL     1     -11.329   2.849  -1.384  0.00  0.00    +0.167 A 
ATOM     15  C   UNL     1     -10.120   2.418  -0.862  0.00  0.00    +0.055 A 
ATOM     16  O   UNL     1     -12.602   2.780  -0.897  0.00  0.00    -0.453 OA
ATOM     17  C   UNL     1     -13.460   3.005  -2.030  0.00  0.00    +0.466 C 
ATOM     18  O   UNL     1     -12.654   3.805  -2.916  0.00  0.00    -0.453 OA
ENDBRANCH   2  10
BRANCH   5  19
ATOM     19  C   UNL     1      -4.932   4.540  -0.140  0.00  0.00    +0.214 C 
BRANCH  19  20
ATOM     20  C   UNL     1      -3.624   3.796  -0.043  0.00  0.00    +0.235 C 
ATOM     21  O   UNL     1      -3.614   2.584  -0.050  0.00  0.00    -0.274 OA
ATOM     22  N   UNL     1      -2.466   4.480   0.051  0.00  0.00    -0.283 N 
ATOM     23  H   UNL     1      -2.479   5.446   0.137  0.00  0.00    +0.155 HD
BRANCH  22  24
ATOM     24  C   UNL     1      -1.246   3.795   0.024  0.00  0.00    +0.053 A 
ATOM     25  C   UNL     1      -1.158   2.554  -0.592  0.00  0.00    +0.044 A 
ATOM     26  C   UNL     1       0.048   1.877  -0.611  0.00  0.00    +0.043 A 
ATOM     27  C   UNL     1       1.169   2.442  -0.028  0.00  0.00    +0.021 A 
ATOM     28  C   UNL     1       1.086   3.681   0.579  0.00  0.00    +0.023 A 
ATOM     29  C   UNL     1      -0.118   4.359   0.608  0.00  0.00    +0.062 A 
ATOM     30 CL   UNL     1      -0.221   5.915   1.371  0.00  0.00    -0.082 Cl
ATOM     31 CL   UNL     1       0.157   0.322  -1.374  0.00  0.00    -0.083 Cl
ENDBRANCH  22  24
ENDBRANCH  19  20
ENDBRANCH   5  19
TORSDOF 4
