REMARK  Name = ZINC20106524
REMARK  9 active torsions:
REMARK  status: ('A' for Active; 'I' for Inactive)
REMARK    1  A    between atoms: C_1  and  C_2
REMARK    2  A    between atoms: C_2  and  O_3
REMARK    3  A    between atoms: O_3  and  C_4
REMARK    4  A    between atoms: C_7  and  N_10
REMARK    5  A    between atoms: C_11  and  C_13
REMARK    6  A    between atoms: N_24  and  C_36
REMARK    7  A    between atoms: C_25  and  C_27
REMARK    8  A    between atoms: N_29  and  C_30
REMARK    9  A    between atoms: C_42  and  C_44
REMARK                            x       y       z     vdW  Elec       q    Type
REMARK                         _______ _______ _______ _____ _____    ______ ____
ROOT
ATOM      1  C   UNL     1      -0.580   0.480   1.155  0.00  0.00    +0.123 C 
ATOM      2  C   UNL     1      -0.778  -1.046   1.434  0.00  0.00    +0.155 C 
ATOM      3  C   UNL     1      -1.730  -1.575   0.356  0.00  0.00    +0.004 C 
ATOM      4  C   UNL     1      -1.044  -1.621  -0.793  0.00  0.00    +0.009 C 
ATOM      5  C   UNL     1       0.294  -1.088  -0.427  0.00  0.00    +0.127 C 
ATOM      6  C   UNL     1       0.135   0.462  -0.208  0.00  0.00    +0.128 C 
ATOM      7  C   UNL     1       1.573   0.894  -0.174  0.00  0.00    +0.224 C 
ATOM      8  O   UNL     1       1.995   1.884   0.386  0.00  0.00    -0.275 OA
ATOM      9  N   UNL     1       2.325   0.004  -0.868  0.00  0.00    -0.283 N 
ATOM     10  C   UNL     1       1.506  -1.153  -1.303  0.00  0.00    +0.199 C 
ATOM     11  O   UNL     1       0.507  -1.564   0.929  0.00  0.00    -0.358 OA
ENDROOT
BRANCH   9  12
ATOM     12  C   UNL     1       3.755   0.163  -1.149  0.00  0.00    +0.080 C 
ATOM     13  C   UNL     1       4.533   0.190   0.168  0.00  0.00    +0.023 C 
ATOM     14  C   UNL     1       4.048   1.363   1.022  0.00  0.00    +0.002 C 
ATOM     15  C   UNL     1       4.277   2.674   0.267  0.00  0.00    +0.000 C 
ATOM     16  C   UNL     1       3.498   2.646  -1.050  0.00  0.00    +0.005 C 
ATOM     17  C   UNL     1       3.983   1.473  -1.904  0.00  0.00    +0.006 C 
ATOM     18  C   UNL     1       3.204   1.446  -3.221  0.00  0.00    +0.009 C 
ENDBRANCH   9  12
BRANCH   1  20
ATOM     19  N   UNL     1       0.282   2.450   2.378  0.00  0.00    -0.285 N 
ATOM     20  C   UNL     1       0.289   1.112   2.212  0.00  0.00    +0.224 C 
ATOM     21  O   UNL     1       0.995   0.418   2.912  0.00  0.00    -0.275 OA
ATOM     22  H   UNL     1      -0.417   3.072   1.800  0.00  0.00    +0.155 HD
BRANCH  19  26
ATOM     23  C   UNL     1       2.913   4.229   5.080  0.00  0.00    +0.121 A 
ATOM     24  C   UNL     1       2.524   4.914   3.938  0.00  0.00    +0.047 A 
ATOM     25  C   UNL     1       1.653   4.325   3.043  0.00  0.00    +0.027 A 
ATOM     26  C   UNL     1       1.167   3.047   3.285  0.00  0.00    +0.034 A 
ATOM     27  C   UNL     1       1.553   2.365   4.431  0.00  0.00    +0.027 A 
ATOM     28  C   UNL     1       2.428   2.953   5.323  0.00  0.00    +0.047 A 
BRANCH  23  29
ATOM     29  O   UNL     1       3.770   4.810   5.961  0.00  0.00    -0.492 OA
BRANCH  29  31
ATOM     30  C   UNL     1       5.093   4.859   7.983  0.00  0.00    +0.048 C 
ATOM     31  C   UNL     1       4.128   4.047   7.115  0.00  0.00    +0.225 C 
ENDBRANCH  29  31
ENDBRANCH  23  29
ENDBRANCH  19  26
ENDBRANCH   1  20
BRANCH  10  32
ATOM     32  C   UNL     1       1.117  -1.013  -2.753  0.00  0.00    +0.237 C 
ATOM     33  O   UNL     1       0.986   0.089  -3.242  0.00  0.00    -0.274 OA
ATOM     34  N   UNL     1       0.916  -2.112  -3.506  0.00  0.00    -0.311 N 
ATOM     35  H   UNL     1       1.035  -3.112  -3.062  0.00  0.00    +0.149 HD
BRANCH  34  36
ATOM     36  C   UNL     1       0.538  -1.976  -4.915  0.00  0.00    +0.073 C 
ATOM     37  C   UNL     1      -0.978  -1.804  -5.022  0.00  0.00    +0.022 C 
ATOM     38  C   UNL     1      -1.373  -1.662  -6.493  0.00  0.00    +0.002 C 
ATOM     39  C   UNL     1      -0.946  -2.917  -7.259  0.00  0.00    +0.000 C 
ATOM     40  C   UNL     1       0.571  -3.088  -7.152  0.00  0.00    +0.002 C 
ATOM     41  C   UNL     1       0.965  -3.230  -5.680  0.00  0.00    +0.022 C 
ENDBRANCH  34  36
ENDBRANCH  10  32
TORSDOF 7
