REMARK  Name = ZINC38657348
REMARK  7 active torsions:
REMARK  status: ('A' for Active; 'I' for Inactive)
REMARK    1  A    between atoms: C_3  and  C_6
REMARK    2  A    between atoms: C_11  and  O_20
REMARK    3  A    between atoms: C_15  and  N_19
REMARK    4  A    between atoms: C_16  and  C_17
REMARK    5  A    between atoms: O_20  and  C_21
REMARK    6  A    between atoms: C_21  and  C_23
REMARK    7  A    between atoms: C_24  and  C_25
REMARK                            x       y       z     vdW  Elec       q    Type
REMARK                         _______ _______ _______ _____ _____    ______ ____
ROOT
ATOM      1  C   UNL     1       3.539   0.632  -0.056  0.00  0.00    +0.134 C 
ATOM      2  C   UNL     1       4.026  -0.078  -1.291  0.00  0.00    +0.011 A 
ATOM      3  C   UNL     1       3.364   0.114  -2.491  0.00  0.00    +0.012 A 
ATOM      4  C   UNL     1       3.796  -0.529  -3.635  0.00  0.00    +0.047 A 
ATOM      5  C   UNL     1       4.898  -1.371  -3.583  0.00  0.00    +0.135 A 
ATOM      6  C   UNL     1       5.563  -1.565  -2.383  0.00  0.00    +0.093 A 
ATOM      7  C   UNL     1       5.128  -0.917  -1.234  0.00  0.00    +0.138 A 
ATOM      8  O   UNL     1       5.789  -1.117  -0.067  0.00  0.00    -0.441 OA
ATOM      9  C   UNL     1       5.189  -0.835   1.101  0.00  0.00    +0.199 C 
ATOM     10  C   UNL     1       4.116  -0.015   1.172  0.00  0.00    +0.101 C 
ENDROOT
BRANCH   1  13
ATOM     11  C   UNL     1      -0.115   1.089   0.068  0.00  0.00    +0.041 A 
ATOM     12  C   UNL     1       1.197   1.612   0.006  0.00  0.00    +0.045 A 
ATOM     13  C   UNL     1       2.035   0.560   0.002  0.00  0.00    +0.117 A 
ATOM     14  O   UNL     1       1.305  -0.566   0.057  0.00  0.00    -0.467 OA
ATOM     15  C   UNL     1      -0.000  -0.251   0.097  0.00  0.00    +0.195 A 
ENDBRANCH   1  13
BRANCH   9  16
ATOM     16  N   UNL     1       5.677  -1.396   2.254  0.00  0.00    -0.328 N 
ATOM     17  H   UNL     1       6.445  -1.988   2.218  0.00  0.00    +0.145 HD
ATOM     18  H   UNL     1       5.254  -1.202   3.105  0.00  0.00    +0.145 HD
ENDBRANCH   9  16
BRANCH  10  19
ATOM     19  C   UNL     1       3.520   0.245   2.448  0.00  0.00    +0.101 C 
ATOM     20  N   UNL     1       3.046   0.451   3.460  0.00  0.00    -0.191 NA
ENDBRANCH  10  19
BRANCH   5  21
ATOM     21  O   UNL     1       5.324  -2.006  -4.707  0.00  0.00    -0.423 OA
BRANCH  21  22
ATOM     22  C   UNL     1       5.881  -1.259  -5.683  0.00  0.00    +0.337 C 
ATOM     23  O   UNL     1       6.085  -0.074  -5.500  0.00  0.00    -0.245 OA
BRANCH  22  24
ATOM     24  C   UNL     1       6.239  -1.874  -6.959  0.00  0.00    +0.092 C 
ATOM     25  C   UNL     1       6.796  -1.127  -7.936  0.00  0.00    +0.016 C 
BRANCH  25  26
ATOM     26  C   UNL     1       7.156  -1.746  -9.220  0.00  0.00    -0.006 A 
ATOM     27  C   UNL     1       6.917  -3.108  -9.436  0.00  0.00    +0.011 A 
ATOM     28  C   UNL     1       7.256  -3.681 -10.642  0.00  0.00    +0.020 A 
ATOM     29  C   UNL     1       7.833  -2.913 -11.641  0.00  0.00    +0.042 A 
ATOM     30  C   UNL     1       8.074  -1.565 -11.436  0.00  0.00    +0.040 A 
ATOM     31  C   UNL     1       7.734  -0.975 -10.235  0.00  0.00    +0.049 A 
ATOM     32 CL   UNL     1       8.030   0.717  -9.982  0.00  0.00    -0.083 Cl
ATOM     33 CL   UNL     1       8.257  -3.645 -13.157  0.00  0.00    -0.083 Cl
ENDBRANCH  25  26
ENDBRANCH  22  24
ENDBRANCH  21  22
ENDBRANCH   5  21
TORSDOF 7
