REMARK  Name = ZINC10784888
REMARK  6 active torsions:
REMARK  status: ('A' for Active; 'I' for Inactive)
REMARK    1  A    between atoms: C_1  and  C_2
REMARK    2  A    between atoms: C_10  and  N_15
REMARK    3  A    between atoms: C_11  and  C_12
REMARK    4  A    between atoms: C_16  and  C_18
REMARK    5  A    between atoms: N_24  and  S_25
REMARK    6  A    between atoms: S_25  and  C_28
REMARK                            x       y       z     vdW  Elec       q    Type
REMARK                         _______ _______ _______ _____ _____    ______ ____
ROOT
ATOM      1  N   UNL     1      -2.256   1.132   3.972  0.00  0.00    -0.278 N 
ATOM      2  C   UNL     1      -2.760   1.370   2.745  0.00  0.00    +0.236 C 
ATOM      3  O   UNL     1      -3.787   2.003   2.624  0.00  0.00    -0.274 OA
ATOM      4  H   UNL     1      -1.434   0.626   4.070  0.00  0.00    +0.155 HD
ENDROOT
BRANCH   1  14
ATOM      5  C   UNL     1      -7.771   2.731   9.411  0.00  0.00    +0.109 C 
ATOM      6  C   UNL     1      -6.371   2.824   9.962  0.00  0.00    +0.213 C 
ATOM      7  O   UNL     1      -6.172   2.644  11.144  0.00  0.00    -0.276 OA
ATOM      8  N   UNL     1      -5.341   3.107   9.140  0.00  0.00    -0.297 N 
ATOM      9  C   UNL     1      -3.954   3.107   9.628  0.00  0.00    +0.113 C 
ATOM     10  C   UNL     1      -3.163   2.000   8.926  0.00  0.00    +0.056 C 
ATOM     11  C   UNL     1      -3.423   2.073   7.427  0.00  0.00    -0.020 A 
ATOM     12  C   UNL     1      -4.503   2.716   6.932  0.00  0.00    +0.013 A 
ATOM     13  S   UNL     1      -4.380   2.529   5.176  0.00  0.00    -0.076 S 
ATOM     14  C   UNL     1      -2.912   1.611   5.096  0.00  0.00    +0.084 A 
ATOM     15  C   UNL     1      -2.557   1.466   6.429  0.00  0.00    +0.068 A 
ATOM     16  C   UNL     1      -5.563   3.429   7.716  0.00  0.00    +0.150 C 
BRANCH  15  17
ATOM     17  C   UNL     1      -1.350   0.730   6.818  0.00  0.00    +0.244 C 
ATOM     18  O   UNL     1      -0.289   1.315   6.928  0.00  0.00    -0.270 OA
ATOM     19  N   UNL     1      -1.416  -0.596   7.054  0.00  0.00    -0.325 N 
ATOM     20  H   UNL     1      -2.261  -1.063   6.967  0.00  0.00    +0.145 HD
ATOM     21  H   UNL     1      -0.617  -1.083   7.311  0.00  0.00    +0.145 HD
ENDBRANCH  15  17
ENDBRANCH   1  14
BRANCH   2  22
ATOM     22  C   UNL     1      -2.046   0.850   1.524  0.00  0.00    +0.166 C 
ATOM     23  C   UNL     1      -1.573   2.027   0.665  0.00  0.00    +0.030 C 
ATOM     24  C   UNL     1      -0.973   1.494  -0.638  0.00  0.00    +0.003 C 
ATOM     25  C   UNL     1      -2.044   0.727  -1.418  0.00  0.00    +0.017 C 
ATOM     26  C   UNL     1      -2.523  -0.465  -0.583  0.00  0.00    +0.110 C 
ATOM     27  N   UNL     1      -2.966   0.025   0.730  0.00  0.00    -0.164 NA
BRANCH  27  28
ATOM     28  S   UNL     1      -4.475  -0.346   1.303  0.00  0.00    +0.068 S 
ATOM     29  O   UNL     1      -4.868  -1.551   0.661  0.00  0.00    -0.152 OA
ATOM     30  O   UNL     1      -4.415  -0.221   2.717  0.00  0.00    -0.152 OA
BRANCH  28  31
ATOM     31  C   UNL     1      -5.572   0.909   0.732  0.00  0.00    +0.143 A 
ATOM     32  C   UNL     1      -6.291   0.957  -0.416  0.00  0.00    +0.036 A 
ATOM     33  C   UNL     1      -7.099   2.053  -0.656  0.00  0.00    +0.010 A 
ATOM     34  C   UNL     1      -7.140   3.052   0.259  0.00  0.00    +0.047 A 
ATOM     35  S   UNL     1      -6.019   2.451   1.513  0.00  0.00    -0.077 S 
ENDBRANCH  28  31
ENDBRANCH  27  28
ENDBRANCH   2  22
TORSDOF 5
