REMARK  Name = ZINC14257667
REMARK  6 active torsions:
REMARK  status: ('A' for Active; 'I' for Inactive)
REMARK    1  A    between atoms: C_1  and  C_2
REMARK    2  A    between atoms: C_4  and  C_24
REMARK    3  A    between atoms: N_11  and  C_12
REMARK    4  A    between atoms: C_12  and  N_14
REMARK    5  A    between atoms: C_15  and  C_17
REMARK    6  A    between atoms: C_18  and  C_19
REMARK                            x       y       z     vdW  Elec       q    Type
REMARK                         _______ _______ _______ _____ _____    ______ ____
ROOT
ATOM      1  C   UNL     1      -2.519   0.997   0.019  0.00  0.00    +0.044 C 
ATOM      2  C   UNL     1      -1.217   1.755   0.017  0.00  0.00    -0.049 A 
ATOM      3  C   UNL     1      -1.214   3.143   0.029  0.00  0.00    +0.009 A 
ATOM      4  C   UNL     1      -0.044   3.857   0.022  0.00  0.00    -0.024 A 
ATOM      5  C   UNL     1       1.206   3.195   0.007  0.00  0.00    +0.083 A 
ATOM      6  C   UNL     1       1.164   1.782   0.001  0.00  0.00    +0.041 A 
ATOM      7  C   UNL     1      -0.013   1.076   0.008  0.00  0.00    +0.020 A 
ATOM      8  S   UNL     1       2.888   1.354  -0.017  0.00  0.00    -0.052 S 
ATOM      9  C   UNL     1       3.534   3.020  -0.014  0.00  0.00    +0.165 A 
ATOM     10  N   UNL     1       2.439   3.745  -0.001  0.00  0.00    -0.224 NA
ATOM     11  N   UNL     1       4.853   3.440  -0.024  0.00  0.00    -0.276 N 
ATOM     12  C   UNL     1      -0.091   5.363   0.030  0.00  0.00    +0.046 C 
ATOM     13  H   UNL     1       5.061   4.387  -0.021  0.00  0.00    +0.156 HD
ENDROOT
BRANCH  11  14
ATOM     14  C   UNL     1       5.849   2.532  -0.037  0.00  0.00    +0.143 C 
ATOM     15  S   UNL     1       5.483   0.860  -0.042  0.00  0.00    -0.018 S 
BRANCH  14  16
ATOM     16  N   UNL     1       7.133   2.941  -0.046  0.00  0.00    -0.264 N 
ATOM     17  C   UNL     1       8.130   2.033  -0.059  0.00  0.00    +0.242 C 
ATOM     18  O   UNL     1       7.869   0.844  -0.063  0.00  0.00    -0.270 OA
ATOM     19  H   UNL     1       7.341   3.888  -0.043  0.00  0.00    +0.157 HD
BRANCH  17  20
ATOM     20  C   UNL     1       9.477   2.462  -0.069  0.00  0.00    +0.071 C 
ATOM     21  C   UNL     1      10.480   1.548  -0.083  0.00  0.00    +0.051 C 
BRANCH  21  22
ATOM     22  C   UNL     1      11.829   1.977  -0.092  0.00  0.00    +0.128 A 
ATOM     23  C   UNL     1      12.942   1.161  -0.101  0.00  0.00    +0.049 A 
ATOM     24  C   UNL     1      14.059   2.010  -0.111  0.00  0.00    +0.042 A 
ATOM     25  C   UNL     1      13.596   3.280  -0.100  0.00  0.00    +0.195 A 
ATOM     26  O   UNL     1      12.256   3.257  -0.089  0.00  0.00    -0.464 OA
ENDBRANCH  21  22
ENDBRANCH  17  20
ENDBRANCH  14  16
ENDBRANCH  11  14
TORSDOF 4
