REMARK  Name = ZINC01244998
REMARK  11 active torsions:
REMARK  status: ('A' for Active; 'I' for Inactive)
REMARK    1  A    between atoms: C_1  and  C_2
REMARK    2  A    between atoms: C_7  and  N_8
REMARK    3  A    between atoms: C_9  and  C_11
REMARK    4  A    between atoms: C_11  and  S_12
REMARK    5  A    between atoms: S_12  and  C_13
REMARK    6  A    between atoms: C_25  and  C_28
REMARK    7  A    between atoms: C_28  and  C_29
REMARK    8  A    between atoms: C_28  and  C_30
REMARK    9  A    between atoms: N_33  and  C_34
REMARK   10  A    between atoms: C_34  and  C_35
REMARK   11  A    between atoms: C_35  and  C_36
REMARK                            x       y       z     vdW  Elec       q    Type
REMARK                         _______ _______ _______ _____ _____    ______ ____
ROOT
ATOM      1  C   UNL     1      -0.384  -0.118   7.687  0.00  0.00    +0.198 A 
ATOM      2  N   UNL     1      -0.408   1.192   7.703  0.00  0.00    -0.120 NA
ATOM      3  N   UNL     1      -0.516   1.608   9.035  0.00  0.00    -0.109 NA
ATOM      4  C   UNL     1      -0.555   0.538   9.794  0.00  0.00    +0.240 A 
ATOM      5  N   UNL     1      -0.479  -0.561   8.980  0.00  0.00    -0.249 N 
ATOM      6  C   UNL     1      -0.502  -1.830   9.520  0.00  0.00    +0.102 A 
ATOM      7  C   UNL     1      -0.606  -2.038  10.891  0.00  0.00    +0.074 A 
ATOM      8  C   UNL     1      -0.618  -3.437  11.313  0.00  0.00    -0.018 A 
ATOM      9  C   UNL     1      -0.527  -4.336  10.310  0.00  0.00    +0.021 A 
ATOM     10  S   UNL     1      -0.427  -3.358   8.843  0.00  0.00    -0.072 S 
ATOM     11  C   UNL     1      -0.518  -5.825  10.463  0.00  0.00    +0.203 C 
ATOM     12  O   UNL     1      -0.944  -6.131  11.801  0.00  0.00    -0.371 OA
ATOM     13  C   UNL     1      -0.269  -5.372  12.807  0.00  0.00    +0.126 C 
ATOM     14  C   UNL     1      -0.722  -3.908  12.757  0.00  0.00    +0.068 C 
ATOM     15  C   UNL     1      -0.690  -0.827  11.738  0.00  0.00    +0.264 A 
ATOM     16  O   UNL     1      -0.783  -0.931  12.947  0.00  0.00    -0.267 OA
ATOM     17  N   UNL     1      -0.656   0.389  11.167  0.00  0.00    -0.276 N 
ENDROOT
BRANCH  13  18
ATOM     18  C   UNL     1      -0.595  -5.953  14.184  0.00  0.00    +0.012 C 
ATOM     19  C   UNL     1      -0.131  -7.410  14.246  0.00  0.00    +0.010 C 
ATOM     20  C   UNL     1       0.126  -5.143  15.264  0.00  0.00    +0.010 C 
ENDBRANCH  13  18
BRANCH   1  21
ATOM     21  S   UNL     1      -0.259  -1.133   6.252  0.00  0.00    -0.076 S 
BRANCH  21  22
ATOM     22  C   UNL     1      -0.168   0.052   4.882  0.00  0.00    +0.173 C 
BRANCH  22  24
ATOM     23  N   UNL     1       0.025  -0.015   2.417  0.00  0.00    -0.285 N 
ATOM     24  C   UNL     1      -0.056  -0.694   3.578  0.00  0.00    +0.227 C 
ATOM     25  O   UNL     1      -0.040  -1.907   3.573  0.00  0.00    -0.275 OA
ATOM     26  H   UNL     1       0.078   0.954   2.425  0.00  0.00    +0.155 HD
BRANCH  23  33
ATOM     27  C   UNL     1      -1.264   1.184   0.181  0.00  0.00    +0.045 C 
ATOM     28  C   UNL     1      -0.584  -0.158   0.084  0.00  0.00    -0.029 A 
ATOM     29  C   UNL     1      -0.568  -0.840  -1.117  0.00  0.00    +0.005 A 
ATOM     30  C   UNL     1       0.055  -2.071  -1.206  0.00  0.00    +0.000 A 
ATOM     31  C   UNL     1       0.666  -2.622  -0.095  0.00  0.00    +0.002 A 
ATOM     32  C   UNL     1       0.655  -1.945   1.108  0.00  0.00    +0.023 A 
ATOM     33  C   UNL     1       0.034  -0.706   1.201  0.00  0.00    +0.036 A 
ENDBRANCH  23  33
ENDBRANCH  22  24
ENDBRANCH  21  22
ENDBRANCH   1  21
BRANCH  17  34
ATOM     34  C   UNL     1      -0.741   1.581  12.014  0.00  0.00    +0.133 C 
BRANCH  34  35
ATOM     35  C   UNL     1      -2.209   1.971  12.200  0.00  0.00    +0.057 C 
BRANCH  35  36
ATOM     36  C   UNL     1      -2.297   3.198  13.071  0.00  0.00    -0.046 A 
ATOM     37  C   UNL     1      -2.393   3.065  14.444  0.00  0.00    +0.004 A 
ATOM     38  C   UNL     1      -2.473   4.191  15.243  0.00  0.00    +0.000 A 
ATOM     39  C   UNL     1      -2.457   5.448  14.669  0.00  0.00    +0.000 A 
ATOM     40  C   UNL     1      -2.361   5.580  13.296  0.00  0.00    +0.000 A 
ATOM     41  C   UNL     1      -2.276   4.455  12.498  0.00  0.00    +0.004 A 
ENDBRANCH  35  36
ENDBRANCH  34  35
ENDBRANCH  17  34
TORSDOF 8
