REMARK  Name = ZINC38183958
REMARK  8 active torsions:
REMARK  status: ('A' for Active; 'I' for Inactive)
REMARK    1  A    between atoms: C_4  and  C_7
REMARK    2  A    between atoms: C_7  and  C_8
REMARK    3  A    between atoms: N_16  and  C_17
REMARK    4  A    between atoms: C_17  and  C_18
REMARK    5  A    between atoms: N_20  and  N_21
REMARK    6  A    between atoms: C_22  and  C_23
REMARK    7  A    between atoms: C_27  and  N_34
REMARK    8  A    between atoms: C_32  and  O_33
REMARK                            x       y       z     vdW  Elec       q    Type
REMARK                         _______ _______ _______ _____ _____    ______ ____
ROOT
ATOM      1  C   UNL     1       3.918  -4.235   1.030  0.00  0.00    +0.252 C 
ATOM      2  O   UNL     1       5.114  -4.049   0.949  0.00  0.00    -0.272 OA
ATOM      3  N   UNL     1       3.379  -5.372   0.547  0.00  0.00    -0.206 N 
ATOM      4  H   UNL     1       2.423  -5.521   0.612  0.00  0.00    +0.177 HD
ENDROOT
BRANCH   3   5
ATOM      5  N   UNL     1       4.200  -6.339  -0.048  0.00  0.00    -0.188 NA
ATOM      6  C   UNL     1       3.680  -7.436  -0.514  0.00  0.00    +0.142 C 
BRANCH   6   7
ATOM      7  C   UNL     1       4.541  -8.450  -1.138  0.00  0.00    +0.044 A 
ATOM      8  C   UNL     1       3.973  -9.686  -1.672  0.00  0.00    -0.006 A 
ATOM      9  C   UNL     1       2.598  -9.945  -1.609  0.00  0.00    +0.011 A 
ATOM     10  C   UNL     1       2.108 -11.110  -2.119  0.00  0.00    +0.033 A 
ATOM     11  C   UNL     1       2.956 -12.048  -2.703  0.00  0.00    +0.127 A 
ATOM     12  C   UNL     1       4.297 -11.828  -2.781  0.00  0.00    +0.041 A 
ATOM     13  C   UNL     1       4.838 -10.637  -2.266  0.00  0.00    -0.015 A 
ATOM     14  C   UNL     1       6.217 -10.375  -2.329  0.00  0.00    +0.012 A 
ATOM     15  C   UNL     1       6.730  -9.220  -1.827  0.00  0.00    +0.046 A 
ATOM     16  C   UNL     1       5.918  -8.251  -1.239  0.00  0.00    +0.126 A 
BRANCH  11  17
ATOM     17  N   UNL     1       2.390 -13.303  -3.247  0.00  0.00    +0.056 N 
ATOM     18  O   UNL     1       1.200 -13.508  -3.182  0.00  0.00    -0.126 OA
ATOM     19  O   UNL     1       3.118 -14.124  -3.756  0.00  0.00    -0.126 OA
ENDBRANCH  11  17
BRANCH  16  20
ATOM     20  O   UNL     1       6.472  -7.109  -0.757  0.00  0.00    -0.506 OA
ATOM     21  H   UNL     1       6.746  -7.166   0.169  0.00  0.00    +0.292 HD
ENDBRANCH  16  20
ENDBRANCH   6   7
ENDBRANCH   3   5
BRANCH   1  22
ATOM     22  C   UNL     1       3.035  -3.195   1.670  0.00  0.00    +0.221 C 
BRANCH  22  31
ATOM     23  C   UNL     1       4.164  -0.959   1.377  0.00  0.00    +0.116 A 
ATOM     24  N   UNL     1       4.905  -0.151   2.078  0.00  0.00    -0.232 NA
ATOM     25  C   UNL     1       5.125  -0.684   3.308  0.00  0.00    +0.089 A 
ATOM     26  C   UNL     1       5.835  -0.253   4.432  0.00  0.00    +0.030 A 
ATOM     27  C   UNL     1       5.873  -1.033   5.552  0.00  0.00    +0.002 A 
ATOM     28  C   UNL     1       5.215  -2.254   5.588  0.00  0.00    +0.002 A 
ATOM     29  C   UNL     1       4.509  -2.699   4.491  0.00  0.00    +0.028 A 
ATOM     30  C   UNL     1       4.458  -1.920   3.343  0.00  0.00    +0.069 A 
ATOM     31  N   UNL     1       3.854  -2.063   2.110  0.00  0.00    -0.318 N 
BRANCH  23  32
ATOM     32  C   UNL     1       3.711  -0.707  -0.038  0.00  0.00    +0.109 C 
BRANCH  32  36
ATOM     33  C   UNL     1      -0.017   1.378   0.010  0.00  0.00    +0.000 A 
ATOM     34  C   UNL     1       1.171   2.086   0.002  0.00  0.00    +0.000 A 
ATOM     35  C   UNL     1       2.377   1.411  -0.013  0.00  0.00    +0.004 A 
ATOM     36  C   UNL     1       2.396   0.029  -0.020  0.00  0.00    -0.040 A 
ATOM     37  C   UNL     1       1.208  -0.679  -0.012  0.00  0.00    +0.004 A 
ATOM     38  C   UNL     1       0.002  -0.004   0.002  0.00  0.00    +0.000 A 
ENDBRANCH  32  36
ENDBRANCH  23  32
ENDBRANCH  22  31
ENDBRANCH   1  22
TORSDOF 8
