REMARK  Name = ZINC36013924
REMARK  16 active torsions:
REMARK  status: ('A' for Active; 'I' for Inactive)
REMARK    1  A    between atoms: C_1  and  C_2
REMARK    2  A    between atoms: C_2  and  N_3
REMARK    3  A    between atoms: C_4  and  C_25
REMARK    4  A    between atoms: C_5  and  C_20
REMARK    5  A    between atoms: C_6  and  C_11
REMARK    6  A    between atoms: C_14  and  C_17
REMARK    7  A    between atoms: C_17  and  C_18
REMARK    8  A    between atoms: C_17  and  C_19
REMARK    9  A    between atoms: C_20  and  O_22
REMARK   10  A    between atoms: O_22  and  C_23
REMARK   11  A    between atoms: C_23  and  C_24
REMARK   12  A    between atoms: C_25  and  N_26
REMARK   13  A    between atoms: N_34  and  C_35
REMARK   14  A    between atoms: C_35  and  C_36
REMARK   15  A    between atoms: C_35  and  C_37
REMARK   16  A    between atoms: C_35  and  C_38
REMARK                            x       y       z     vdW  Elec       q    Type
REMARK                         _______ _______ _______ _____ _____    ______ ____
ROOT
ATOM      1  N   UNL     1       0.764  -0.411  -1.170  0.00  0.00    -0.258 N 
ATOM      2  C   UNL     1      -0.017  -0.542  -2.283  0.00  0.00    +0.041 C 
ATOM      3  C   UNL     1       0.490  -1.027  -3.437  0.00  0.00    +0.080 C 
ATOM      4  C   UNL     1       1.954  -1.419  -3.454  0.00  0.00    +0.144 C 
ATOM      5  N   UNL     1       2.708  -1.238  -2.203  0.00  0.00    -0.288 N 
ATOM      6  C   UNL     1       2.062  -0.737  -1.131  0.00  0.00    +0.307 C 
ATOM      7  O   UNL     1       2.677  -0.581  -0.094  0.00  0.00    -0.252 OA
ATOM      8  H   UNL     1       3.648  -1.471  -2.151  0.00  0.00    +0.151 HD
ENDROOT
BRANCH   4   9
ATOM      9  C   UNL     1       2.638  -0.613  -4.529  0.00  0.00    -0.022 A 
ATOM     10  C   UNL     1       3.013   0.694  -4.279  0.00  0.00    +0.006 A 
ATOM     11  C   UNL     1       3.641   1.433  -5.264  0.00  0.00    +0.004 A 
ATOM     12  C   UNL     1       3.894   0.865  -6.499  0.00  0.00    -0.045 A 
ATOM     13  C   UNL     1       3.520  -0.442  -6.748  0.00  0.00    +0.004 A 
ATOM     14  C   UNL     1       2.896  -1.183  -5.761  0.00  0.00    +0.006 A 
BRANCH  12  15
ATOM     15  C   UNL     1       4.577   1.671  -7.573  0.00  0.00    +0.013 C 
ATOM     16  C   UNL     1       5.884   0.983  -7.974  0.00  0.00    +0.012 C 
ATOM     17  C   UNL     1       3.660   1.775  -8.794  0.00  0.00    +0.012 C 
ENDBRANCH  12  15
ENDBRANCH   4   9
BRANCH   1  19
ATOM     18  C   UNL     1       0.282   1.645   0.062  0.00  0.00    +0.025 C 
ATOM     19  C   UNL     1       0.148   0.121   0.048  0.00  0.00    +0.111 C 
ENDBRANCH   1  19
BRANCH   3  20
ATOM     20  C   UNL     1      -0.317  -1.164  -4.590  0.00  0.00    +0.339 C 
ATOM     21  O   UNL     1      -0.764  -2.254  -4.894  0.00  0.00    -0.245 OA
BRANCH  20  22
ATOM     22  O   UNL     1      -0.593  -0.085  -5.353  0.00  0.00    -0.462 OA
BRANCH  22  23
ATOM     23  C   UNL     1      -1.415  -0.297  -6.503  0.00  0.00    +0.229 C 
ATOM     24  C   UNL     1      -1.616   1.030  -7.237  0.00  0.00    +0.048 C 
ENDBRANCH  22  23
ENDBRANCH  20  22
ENDBRANCH   3  20
BRANCH   2  25
ATOM     25  C   UNL     1      -1.468  -0.140  -2.222  0.00  0.00    +0.136 C 
BRANCH  25  26
ATOM     26  N   UNL     1      -2.190  -1.048  -1.321  0.00  0.00    -0.294 NA
ATOM     27  C   UNL     1      -2.221  -2.413  -1.863  0.00  0.00    +0.104 C 
ATOM     28  C   UNL     1      -2.819  -3.361  -0.818  0.00  0.00    +0.124 C 
ATOM     29  N   UNL     1      -4.125  -2.829  -0.398  0.00  0.00    -0.283 N 
ATOM     30  C   UNL     1      -4.199  -1.423   0.029  0.00  0.00    +0.124 C 
ATOM     31  C   UNL     1      -3.546  -0.552  -1.050  0.00  0.00    +0.104 C 
ATOM     32  C   UNL     1      -5.224  -3.608  -0.404  0.00  0.00    +0.303 C 
ATOM     33  O   UNL     1      -5.129  -4.791  -0.671  0.00  0.00    -0.253 OA
ATOM     34  N   UNL     1      -6.428  -3.078  -0.114  0.00  0.00    -0.294 N 
ATOM     35  H   UNL     1      -6.496  -2.151   0.165  0.00  0.00    +0.151 HD
BRANCH  34  36
ATOM     36  C   UNL     1      -7.636  -3.900  -0.220  0.00  0.00    +0.028 C 
ATOM     37  C   UNL     1      -7.522  -5.098   0.725  0.00  0.00    +0.031 C 
ATOM     38  C   UNL     1      -8.858  -3.063   0.162  0.00  0.00    +0.031 C 
ATOM     39  C   UNL     1      -7.789  -4.399  -1.659  0.00  0.00    +0.031 C 
ENDBRANCH  34  36
ENDBRANCH  25  26
ENDBRANCH   2  25
TORSDOF 9
