REMARK  Name = ZINC13511882
REMARK  10 active torsions:
REMARK  status: ('A' for Active; 'I' for Inactive)
REMARK    1  A    between atoms: C_1  and  C_2
REMARK    2  A    between atoms: C_2  and  N_61
REMARK    3  A    between atoms: C_3  and  C_4
REMARK    4  A    between atoms: C_3  and  N_61
REMARK    5  A    between atoms: C_5  and  C_6
REMARK    6  A    between atoms: C_5  and  N_61
REMARK    7  A    between atoms: C_6  and  N_7
REMARK    8  A    between atoms: C_14  and  C_18
REMARK    9  A    between atoms: C_28  and  S_30
REMARK   10  A    between atoms: S_30  and  C_31
REMARK                            x       y       z     vdW  Elec       q    Type
REMARK                         _______ _______ _______ _____ _____    ______ ____
ROOT
ATOM      1  N   UNL     1       2.307   1.498  -6.555  0.00  0.00    -0.330 N 
ATOM      2  C   UNL     1       2.195   1.289  -5.189  0.00  0.00    +0.138 A 
ATOM      3  C   UNL     1       1.016   1.587  -4.519  0.00  0.00    +0.080 A 
ATOM      4  C   UNL     1       0.897   1.378  -3.141  0.00  0.00    +0.094 A 
ATOM      5  C   UNL     1      -0.404   1.734  -2.544  0.00  0.00    +0.037 A 
ATOM      6  C   UNL     1      -0.789   1.624  -1.187  0.00  0.00    -0.030 A 
ATOM      7  C   UNL     1      -2.043   2.005  -0.811  0.00  0.00    -0.018 A 
ATOM      8  C   UNL     1      -2.938   2.500  -1.767  0.00  0.00    +0.076 A 
ATOM      9  N   UNL     1      -2.572   2.600  -3.038  0.00  0.00    -0.239 NA
ATOM     10  C   UNL     1      -1.370   2.242  -3.433  0.00  0.00    +0.112 A 
ATOM     11  S   UNL     1      -0.556   2.240  -5.011  0.00  0.00    -0.064 S 
ATOM     12  C   UNL     1      -2.219   1.796   0.679  0.00  0.00    +0.038 C 
ATOM     13  C   UNL     1      -0.784   1.651   1.238  0.00  0.00    +0.009 C 
ATOM     14  C   UNL     1      -0.010   1.128   0.008  0.00  0.00    +0.036 C 
ATOM     15  N   UNL     1       1.987   0.875  -2.518  0.00  0.00    -0.221 NA
ATOM     16  C   UNL     1       3.090   0.602  -3.182  0.00  0.00    +0.190 A 
ATOM     17  N   UNL     1       3.215   0.797  -4.489  0.00  0.00    -0.206 NA
ATOM     18  H   UNL     1       1.556   1.857  -7.054  0.00  0.00    +0.147 HD
ENDROOT
BRANCH   8  19
ATOM     19  C   UNL     1      -4.302   2.913  -1.357  0.00  0.00    +0.001 A 
ATOM     20  C   UNL     1      -4.970   2.219  -0.350  0.00  0.00    +0.010 A 
ATOM     21  C   UNL     1      -6.237   2.612   0.032  0.00  0.00    +0.001 A 
ATOM     22  C   UNL     1      -6.848   3.685  -0.591  0.00  0.00    +0.000 A 
ATOM     23  C   UNL     1      -6.192   4.374  -1.595  0.00  0.00    +0.001 A 
ATOM     24  C   UNL     1      -4.922   3.994  -1.981  0.00  0.00    +0.010 A 
ENDBRANCH   8  19
BRANCH  16  25
ATOM     25  S   UNL     1       4.465  -0.051  -2.295  0.00  0.00    -0.089 S 
ATOM     26  C   UNL     1       5.655  -0.229  -3.647  0.00  0.00    +0.093 C 
ENDBRANCH  16  25
BRANCH   1  27
ATOM     27  C   UNL     1       3.559   1.177  -7.245  0.00  0.00    +0.084 C 
BRANCH  27  28
ATOM     28  C   UNL     1       3.417   1.499  -8.734  0.00  0.00    -0.060 C 
BRANCH  28  29
ATOM     29  N   UNL     1       4.729   1.305  -9.387  0.00  0.00    +0.380 N 
ATOM     30  H   UNL     1       5.463   1.690  -8.781  0.00  0.00    -0.082 HD
BRANCH  29  32
ATOM     31  C   UNL     1       6.428  -0.322 -10.059  0.00  0.00    -0.017 C 
ATOM     32  C   UNL     1       4.982  -0.137  -9.593  0.00  0.00    -0.082 C 
ENDBRANCH  29  32
BRANCH  29  33
ATOM     33  C   UNL     1       4.757   2.013 -10.684  0.00  0.00    -0.082 C 
ATOM     34  C   UNL     1       4.957   3.507 -10.423  0.00  0.00    -0.017 C 
ENDBRANCH  29  33
ENDBRANCH  28  29
ENDBRANCH  27  28
ENDBRANCH   1  27
TORSDOF 7
