REMARK  Name = ZINC59273364
REMARK  12 active torsions:
REMARK  status: ('A' for Active; 'I' for Inactive)
REMARK    1  A    between atoms: C_1  and  C_2
REMARK    2  A    between atoms: C_2  and  C_30
REMARK    3  A    between atoms: C_4  and  N_10
REMARK    4  A    between atoms: C_6  and  C_8
REMARK    5  A    between atoms: C_6  and  C_9
REMARK    6  A    between atoms: N_10  and  C_11
REMARK    7  A    between atoms: N_10  and  C_20
REMARK    8  A    between atoms: C_11  and  C_12
REMARK    9  A    between atoms: C_17  and  O_18
REMARK   10  A    between atoms: O_18  and  C_19
REMARK   11  A    between atoms: C_20  and  N_22
REMARK   12  A    between atoms: N_22  and  C_23
REMARK                            x       y       z     vdW  Elec       q    Type
REMARK                         _______ _______ _______ _____ _____    ______ ____
ROOT
ATOM      1  N   UNL     1       2.508  -0.725  -2.554  0.00  0.00    -0.305 N 
ENDROOT
BRANCH   1   5
ATOM      2  C   UNL     1      -0.499   1.187   0.035  0.00  0.00    -0.010 C 
ATOM      3  C   UNL     1      -0.334  -0.333  -0.069  0.00  0.00    -0.072 C 
ATOM      4  C   UNL     1       0.366  -0.687  -1.378  0.00  0.00    +0.009 C 
ATOM      5  C   UNL     1       1.854  -0.346  -1.295  0.00  0.00    +0.073 C 
ATOM      6  C   UNL     1       2.464  -1.152  -0.148  0.00  0.00    +0.009 C 
ATOM      7  C   UNL     1       1.780  -0.801   1.170  0.00  0.00    -0.072 C 
ATOM      8  N   UNL     1       0.331  -0.873   1.103  0.00  0.00    +0.386 N 
ATOM      9  C   UNL     1       2.248   0.578   1.646  0.00  0.00    -0.010 C 
ATOM     10  C   UNL     1       2.254  -1.830   2.223  0.00  0.00    -0.010 C 
ATOM     11  C   UNL     1      -1.755  -0.941  -0.126  0.00  0.00    -0.010 C 
ATOM     12  H   UNL     1      -0.052  -0.408   1.932  0.00  0.00    -0.084 HD
ATOM     13  H   UNL     1       0.054  -1.855   1.204  0.00  0.00    -0.084 HD
ENDBRANCH   1   5
BRANCH   1  14
ATOM     14  C   UNL     1       2.489  -2.009  -2.963  0.00  0.00    +0.134 C 
ATOM     15  S   UNL     1       1.652  -3.188  -2.046  0.00  0.00    -0.019 S 
BRANCH  14  16
ATOM     16  N   UNL     1       3.128  -2.365  -4.095  0.00  0.00    -0.324 N 
ATOM     17  H   UNL     1       3.657  -1.712  -4.579  0.00  0.00    +0.148 HD
BRANCH  16  18
ATOM     18  C   UNL     1       3.026  -3.739  -4.593  0.00  0.00    +0.072 C 
ATOM     19  C   UNL     1       4.132  -4.592  -3.938  0.00  0.00    +0.022 C 
ATOM     20  C   UNL     1       3.735  -6.041  -4.029  0.00  0.00    +0.002 C 
ATOM     21  C   UNL     1       4.328  -6.738  -5.268  0.00  0.00    +0.000 C 
ATOM     22  C   UNL     1       4.266  -5.862  -6.533  0.00  0.00    +0.000 C 
ATOM     23  C   UNL     1       2.959  -5.127  -6.661  0.00  0.00    +0.002 C 
ATOM     24  C   UNL     1       3.124  -3.723  -6.045  0.00  0.00    +0.022 C 
ENDBRANCH  16  18
ENDBRANCH  14  16
ENDBRANCH   1  14
BRANCH   1  25
ATOM     25  C   UNL     1       3.181   0.292  -3.365  0.00  0.00    +0.145 C 
BRANCH  25  26
ATOM     26  C   UNL     1       4.543   0.576  -2.786  0.00  0.00    +0.011 A 
ATOM     27  C   UNL     1       4.728   1.663  -1.954  0.00  0.00    +0.009 A 
ATOM     28  C   UNL     1       5.977   1.925  -1.423  0.00  0.00    +0.001 A 
ATOM     29  C   UNL     1       7.045   1.098  -1.722  0.00  0.00    +0.004 A 
ATOM     30  C   UNL     1       6.865   0.009  -2.552  0.00  0.00    +0.046 A 
ATOM     31  C   UNL     1       5.611  -0.258  -3.083  0.00  0.00    +0.125 A 
BRANCH  31  32
ATOM     32  O   UNL     1       5.431  -1.332  -3.896  0.00  0.00    -0.495 OA
ATOM     33  C   UNL     1       6.553  -2.194  -4.091  0.00  0.00    +0.277 C 
ENDBRANCH  31  32
ENDBRANCH  25  26
ENDBRANCH   1  25
TORSDOF 7
