REMARK  Name = ZINC04693675
REMARK  2 active torsions:
REMARK  status: ('A' for Active; 'I' for Inactive)
REMARK    1  A    between atoms: C_10  and  C_23
REMARK    2  A    between atoms: C_13  and  C_16
REMARK                            x       y       z     vdW  Elec       q    Type
REMARK                         _______ _______ _______ _____ _____    ______ ____
ROOT
ATOM      1  C   UNL     1      10.343  -0.925  -4.470  0.00  0.00    +0.001 A 
ATOM      2  C   UNL     1      10.580  -2.286  -4.543  0.00  0.00    +0.004 A 
ATOM      3  C   UNL     1       9.544  -3.155  -4.806  0.00  0.00    +0.046 A 
ATOM      4  C   UNL     1       8.249  -2.677  -5.004  0.00  0.00    +0.129 A 
ATOM      5  C   UNL     1       8.025  -1.309  -4.947  0.00  0.00    +0.017 A 
ATOM      6  C   UNL     1       9.065  -0.441  -4.672  0.00  0.00    +0.009 A 
ATOM      7  C   UNL     1       6.651  -0.752  -5.210  0.00  0.00    +0.136 C 
ATOM      8  C   UNL     1       6.187   0.193  -4.093  0.00  0.00    +0.086 C 
ATOM      9  C   UNL     1       4.857  -0.390  -3.660  0.00  0.00    +0.069 C 
ATOM     10  N   UNL     1       4.662  -1.515  -4.266  0.00  0.00    -0.185 NA
ATOM     11  N   UNL     1       5.709  -1.888  -5.088  0.00  0.00    -0.205 N 
ATOM     12  C   UNL     1       5.998  -3.174  -5.734  0.00  0.00    +0.310 C 
ATOM     13  O   UNL     1       7.275  -3.593  -5.238  0.00  0.00    -0.465 OA
ENDROOT
BRANCH   9  14
ATOM     14  C   UNL     1       3.927   0.233  -2.700  0.00  0.00    +0.001 A 
ATOM     15  C   UNL     1       4.247   1.456  -2.107  0.00  0.00    +0.013 A 
ATOM     16  C   UNL     1       3.376   2.035  -1.209  0.00  0.00    +0.050 A 
ATOM     17  C   UNL     1       2.178   1.407  -0.891  0.00  0.00    +0.162 A 
ATOM     18  C   UNL     1       1.852   0.190  -1.480  0.00  0.00    +0.163 A 
ATOM     19  C   UNL     1       2.723  -0.398  -2.381  0.00  0.00    +0.059 A 
ATOM     20  O   UNL     1       0.680  -0.436  -1.182  0.00  0.00    -0.485 OA
ATOM     21  C   UNL     1       0.002  -0.004   0.002  0.00  0.00    +0.270 C 
ATOM     22  C   UNL     1      -0.019   1.530   0.011  0.00  0.00    +0.270 C 
ATOM     23  O   UNL     1       1.335   1.997   0.000  0.00  0.00    -0.485 OA
ENDBRANCH   9  14
BRANCH  12  24
ATOM     24  C   UNL     1       4.942  -4.186  -5.370  0.00  0.00    +0.014 A 
ATOM     25  C   UNL     1       4.618  -5.196  -6.256  0.00  0.00    +0.009 A 
ATOM     26  C   UNL     1       3.650  -6.124  -5.923  0.00  0.00    +0.002 A 
ATOM     27  C   UNL     1       3.004  -6.043  -4.704  0.00  0.00    +0.020 A 
ATOM     28  C   UNL     1       3.328  -5.032  -3.816  0.00  0.00    +0.041 A 
ATOM     29  C   UNL     1       4.301  -4.106  -4.148  0.00  0.00    +0.029 A 
ATOM     30 CL   UNL     1       2.519  -4.929  -2.284  0.00  0.00    -0.084 Cl
ENDBRANCH  12  24
TORSDOF 2
