REMARK  Name = ZINC12850939
REMARK  13 active torsions:
REMARK  status: ('A' for Active; 'I' for Inactive)
REMARK    1  A    between atoms: C_1  and  C_2
REMARK    2  A    between atoms: C_2  and  C_3
REMARK    3  A    between atoms: C_3  and  C_5
REMARK    4  A    between atoms: C_3  and  N_6
REMARK    5  A    between atoms: C_7  and  C_9
REMARK    6  A    between atoms: C_15  and  C_24
REMARK    7  A    between atoms: C_18  and  C_20
REMARK    8  A    between atoms: C_26  and  O_34
REMARK    9  A    between atoms: C_27  and  O_32
REMARK   10  A    between atoms: C_28  and  O_30
REMARK   11  A    between atoms: O_30  and  C_31
REMARK   12  A    between atoms: O_32  and  C_33
REMARK   13  A    between atoms: O_34  and  C_35
REMARK                            x       y       z     vdW  Elec       q    Type
REMARK                         _______ _______ _______ _____ _____    ______ ____
ROOT
ATOM      1  C   UNL     1      -4.080   0.211   2.619  0.00  0.00    +0.091 C 
ATOM      2  C   UNL     1      -5.428   0.246   2.857  0.00  0.00    +0.104 C 
ATOM      3  N   UNL     1      -5.648   0.521   4.168  0.00  0.00    -0.269 N 
ATOM      4  N   UNL     1      -4.435   0.692   4.823  0.00  0.00    -0.226 N 
ATOM      5  C   UNL     1      -3.418   0.483   3.901  0.00  0.00    +0.126 C 
ATOM      6  N   UNL     1      -2.152   0.544   4.197  0.00  0.00    -0.364 N 
ATOM      7  C   UNL     1      -1.757   0.801   5.587  0.00  0.00    +0.113 C 
ATOM      8  C   UNL     1      -2.787   1.694   6.281  0.00  0.00    +0.062 C 
ATOM      9  C   UNL     1      -4.171   1.037   6.224  0.00  0.00    +0.201 C 
ATOM     10  H   UNL     1      -6.521   0.588   4.585  0.00  0.00    +0.170 HD
ATOM     11  H   UNL     1      -1.480   0.421   3.509  0.00  0.00    +0.161 HD
ENDROOT
BRANCH   7  12
ATOM     12  C   UNL     1      -1.657  -0.508   6.326  0.00  0.00    -0.018 A 
ATOM     13  C   UNL     1      -2.590  -1.502   6.097  0.00  0.00    +0.055 A 
ATOM     14  C   UNL     1      -2.501  -2.708   6.776  0.00  0.00    +0.165 A 
ATOM     15  C   UNL     1      -1.472  -2.917   7.687  0.00  0.00    +0.204 A 
ATOM     16  C   UNL     1      -0.536  -1.915   7.914  0.00  0.00    +0.165 A 
ATOM     17  C   UNL     1      -0.629  -0.714   7.227  0.00  0.00    +0.055 A 
BRANCH  16  18
ATOM     18  O   UNL     1       0.472  -2.115   8.804  0.00  0.00    -0.491 OA
ATOM     19  C   UNL     1       1.398  -1.042   8.987  0.00  0.00    +0.277 C 
ENDBRANCH  16  18
BRANCH  15  20
ATOM     20  O   UNL     1      -1.383  -4.099   8.355  0.00  0.00    -0.488 OA
ATOM     21  C   UNL     1      -0.610  -5.133   7.742  0.00  0.00    +0.277 C 
ENDBRANCH  15  20
BRANCH  14  22
ATOM     22  O   UNL     1      -3.420  -3.685   6.551  0.00  0.00    -0.491 OA
ATOM     23  C   UNL     1      -4.450  -3.401   5.601  0.00  0.00    +0.277 C 
ENDBRANCH  14  22
ENDBRANCH   7  12
BRANCH   1  25
ATOM     24  N   UNL     1      -2.085   0.064   1.224  0.00  0.00    -0.309 N 
ATOM     25  C   UNL     1      -3.424  -0.053   1.334  0.00  0.00    +0.249 C 
ATOM     26  O   UNL     1      -4.087  -0.379   0.367  0.00  0.00    -0.270 OA
ATOM     27  H   UNL     1      -1.564   0.395   1.972  0.00  0.00    +0.149 HD
BRANCH  24  28
ATOM     28  C   UNL     1      -1.418  -0.309  -0.026  0.00  0.00    +0.070 C 
ATOM     29  C   UNL     1      -1.139  -1.813  -0.026  0.00  0.00    +0.028 C 
BRANCH  28  31
ATOM     30  C   UNL     1      -0.384   1.953  -0.271  0.00  0.00    +0.005 C 
ATOM     31  C   UNL     1      -0.098   0.455  -0.146  0.00  0.00    +0.018 C 
ENDBRANCH  28  31
ENDBRANCH  24  28
ENDBRANCH   1  25
BRANCH   9  32
ATOM     32  C   UNL     1      -5.241   2.006   6.732  0.00  0.00    +0.410 C 
ATOM     33  F   UNL     1      -6.500   1.403   6.634  0.00  0.00    -0.169 F 
ATOM     34  F   UNL     1      -4.981   2.328   8.069  0.00  0.00    -0.169 F 
ATOM     35  F   UNL     1      -5.221   3.171   5.959  0.00  0.00    -0.169 F 
ENDBRANCH   9  32
TORSDOF 8
