REMARK  Name = ZINC21919669
REMARK  8 active torsions:
REMARK  status: ('A' for Active; 'I' for Inactive)
REMARK    1  A    between atoms: C_1  and  C_2
REMARK    2  A    between atoms: C_2  and  C_17
REMARK    3  A    between atoms: N_15  and  C_16
REMARK    4  A    between atoms: N_19  and  C_20
REMARK    5  A    between atoms: C_20  and  C_21
REMARK    6  A    between atoms: N_23  and  C_24
REMARK    7  A    between atoms: C_24  and  C_25
REMARK    8  A    between atoms: C_25  and  C_26
REMARK                            x       y       z     vdW  Elec       q    Type
REMARK                         _______ _______ _______ _____ _____    ______ ____
ROOT
ATOM      1  C   UNL     1      -0.166   0.838   2.478  0.00  0.00    +0.043 C 
ATOM      2  C   UNL     1      -0.729   1.579   1.264  0.00  0.00    +0.128 C 
ATOM      3  C   UNL     1      -0.013   1.086   0.008  0.00  0.00    +0.157 C 
ATOM      4  N   UNL     1      -0.724   1.573  -1.180  0.00  0.00    -0.334 N 
ATOM      5  C   UNL     1      -0.259   1.873  -2.416  0.00  0.00    +0.050 A 
ATOM      6  C   UNL     1       1.022   1.843  -2.969  0.00  0.00    +0.026 A 
ATOM      7  C   UNL     1       1.144   2.218  -4.294  0.00  0.00    +0.002 A 
ATOM      8  C   UNL     1       0.055   2.610  -5.056  0.00  0.00    +0.001 A 
ATOM      9  C   UNL     1      -1.216   2.651  -4.544  0.00  0.00    +0.010 A 
ATOM     10  C   UNL     1      -1.373   2.278  -3.201  0.00  0.00    +0.001 A 
ATOM     11  C   UNL     1      -2.511   2.214  -2.376  0.00  0.00    +0.041 A 
ATOM     12  C   UNL     1      -2.103   1.795  -1.160  0.00  0.00    +0.106 A 
ATOM     13  C   UNL     1      -2.881   1.580   0.074  0.00  0.00    +0.264 C 
ATOM     14  O   UNL     1      -4.098   1.597   0.075  0.00  0.00    -0.268 OA
ATOM     15  N   UNL     1      -2.171   1.365   1.206  0.00  0.00    -0.284 N 
ATOM     16  C   UNL     1      -2.871   0.903   2.408  0.00  0.00    +0.133 C 
ENDROOT
BRANCH   2  17
ATOM     17  C   UNL     1      -0.462   3.053   1.430  0.00  0.00    +0.239 C 
ATOM     18  O   UNL     1       0.535   3.547   0.947  0.00  0.00    -0.273 OA
ATOM     19  N   UNL     1      -1.332   3.823   2.114  0.00  0.00    -0.305 N 
ATOM     20  H   UNL     1      -2.236   3.375   2.551  0.00  0.00    +0.149 HD
BRANCH  19  21
ATOM     21  C   UNL     1      -1.072   5.255   2.275  0.00  0.00    +0.200 C 
BRANCH  21  22
ATOM     22  C   UNL     1      -2.187   5.881   3.073  0.00  0.00    +0.230 C 
ATOM     23  O   UNL     1      -3.107   5.198   3.468  0.00  0.00    -0.274 OA
ATOM     24  N   UNL     1      -2.160   7.200   3.348  0.00  0.00    -0.314 N 
ATOM     25  H   UNL     1      -1.325   7.820   2.989  0.00  0.00    +0.149 HD
BRANCH  24  26
ATOM     26  C   UNL     1      -3.244   7.809   4.123  0.00  0.00    +0.109 C 
BRANCH  26  27
ATOM     27  C   UNL     1      -2.973   9.305   4.292  0.00  0.00    +0.061 C 
BRANCH  27  28
ATOM     28  C   UNL     1      -4.088   9.931   5.090  0.00  0.00    -0.009 A 
ATOM     29  C   UNL     1      -4.194  10.085   6.432  0.00  0.00    +0.011 A 
ATOM     30  C   UNL     1      -5.319  10.700   6.949  0.00  0.00    +0.008 A 
ATOM     31  C   UNL     1      -6.288  11.120   6.099  0.00  0.00    +0.045 A 
ATOM     32  S   UNL     1      -5.614  10.655   4.513  0.00  0.00    -0.102 S 
ENDBRANCH  27  28
ENDBRANCH  26  27
ENDBRANCH  24  26
ENDBRANCH  21  22
ENDBRANCH  19  21
ENDBRANCH   2  17
TORSDOF 6
