REMARK  Name = ZINC34969902
REMARK  10 active torsions:
REMARK  status: ('A' for Active; 'I' for Inactive)
REMARK    1  A    between atoms: C_1  and  C_2
REMARK    2  A    between atoms: C_2  and  C_3
REMARK    3  A    between atoms: C_3  and  C_5
REMARK    4  A    between atoms: C_3  and  C_6
REMARK    5  A    between atoms: C_6  and  C_8
REMARK    6  A    between atoms: C_6  and  N_25
REMARK    7  A    between atoms: N_13  and  C_16
REMARK    8  A    between atoms: C_16  and  C_17
REMARK    9  A    between atoms: C_18  and  C_19
REMARK   10  A    between atoms: N_28  and  C_29
REMARK                            x       y       z     vdW  Elec       q    Type
REMARK                         _______ _______ _______ _____ _____    ______ ____
ROOT
ATOM      1  C   UNL     1       0.771  -2.063  -1.256  0.00  0.00    +0.163 C 
ENDROOT
BRANCH   1   2
ATOM      2  C   UNL     1       1.666  -2.398  -0.091  0.00  0.00    +0.236 C 
ATOM      3  O   UNL     1       1.283  -3.164   0.768  0.00  0.00    -0.274 OA
ATOM      4  N   UNL     1       2.892  -1.845  -0.002  0.00  0.00    -0.298 N 
ATOM      5  C   UNL     1       3.330  -0.821  -0.962  0.00  0.00    +0.123 C 
ATOM      6  C   UNL     1       3.865   0.383  -0.180  0.00  0.00    +0.103 C 
ATOM      7  N   UNL     1       4.899  -0.069   0.761  0.00  0.00    -0.296 NA
ATOM      8  C   UNL     1       4.344  -0.992   1.760  0.00  0.00    +0.103 C 
ATOM      9  C   UNL     1       3.826  -2.247   1.061  0.00  0.00    +0.123 C 
BRANCH   7  10
ATOM     10  C   UNL     1       5.559   1.073   1.407  0.00  0.00    +0.111 C 
BRANCH  10  11
ATOM     11  C   UNL     1       6.765   0.591   2.170  0.00  0.00    -0.011 C 
ATOM     12  C   UNL     1       7.956   1.121   1.931  0.00  0.00    +0.005 C 
BRANCH  12  13
ATOM     13  C   UNL     1       9.140   0.648   2.679  0.00  0.00    -0.025 A 
ATOM     14  C   UNL     1       9.008  -0.360   3.634  0.00  0.00    +0.008 A 
ATOM     15  C   UNL     1      10.117  -0.797   4.329  0.00  0.00    +0.001 A 
ATOM     16  C   UNL     1      11.357  -0.237   4.081  0.00  0.00    +0.000 A 
ATOM     17  C   UNL     1      11.495   0.763   3.136  0.00  0.00    +0.001 A 
ATOM     18  C   UNL     1      10.395   1.205   2.430  0.00  0.00    +0.008 A 
ENDBRANCH  12  13
ENDBRANCH  10  11
ENDBRANCH   7  10
ENDBRANCH   1   2
BRANCH   1  19
ATOM     19  N   UNL     1      -0.220  -3.127  -1.433  0.00  0.00    -0.288 N 
ATOM     20  C   UNL     1      -0.781  -3.332  -2.641  0.00  0.00    +0.304 C 
ATOM     21  O   UNL     1      -0.465  -2.633  -3.584  0.00  0.00    -0.252 OA
ATOM     22  N   UNL     1      -1.692  -4.312  -2.803  0.00  0.00    -0.269 N 
ATOM     23  H   UNL     1      -0.472  -3.685  -0.680  0.00  0.00    +0.151 HD
ATOM     24  H   UNL     1      -1.893  -4.914  -2.070  0.00  0.00    +0.156 HD
BRANCH  22  25
ATOM     25  C   UNL     1      -2.349  -4.460  -4.030  0.00  0.00    +0.036 A 
ATOM     26  C   UNL     1      -3.679  -4.857  -4.063  0.00  0.00    +0.023 A 
ATOM     27  C   UNL     1      -4.326  -5.002  -5.275  0.00  0.00    +0.003 A 
ATOM     28  C   UNL     1      -3.650  -4.752  -6.455  0.00  0.00    +0.015 A 
ATOM     29  C   UNL     1      -2.325  -4.356  -6.426  0.00  0.00    +0.020 A 
ATOM     30  C   UNL     1      -1.674  -4.204  -5.216  0.00  0.00    +0.038 A 
ATOM     31 BR   UNL     1      -1.404  -4.016  -8.043  0.00  0.00    -0.050 Br
ENDBRANCH  22  25
ENDBRANCH   1  19
BRANCH   1  32
ATOM     32  C   UNL     1       0.054  -0.739  -0.984  0.00  0.00    +0.015 C 
ATOM     33  C   UNL     1      -0.749  -0.331  -2.221  0.00  0.00    +0.010 C 
BRANCH  32  35
ATOM     34  C   UNL     1      -1.516   0.446   0.556  0.00  0.00    +0.004 C 
ATOM     35  C   UNL     1      -0.893  -0.906   0.206  0.00  0.00    +0.002 C 
ENDBRANCH  32  35
ENDBRANCH   1  32
TORSDOF 8
