REMARK  Name = ZINC19646858
REMARK  3 active torsions:
REMARK  status: ('A' for Active; 'I' for Inactive)
REMARK    1  A    between atoms: C_4  and  C_7
REMARK    2  A    between atoms: N_14  and  N_17
REMARK    3  A    between atoms: C_18  and  C_20
REMARK                            x       y       z     vdW  Elec       q    Type
REMARK                         _______ _______ _______ _____ _____    ______ ____
ROOT
ATOM      1  C   UNL     1       1.611   7.864   2.007  0.00  0.00    +0.022 A 
ATOM      2  C   UNL     1       1.686   6.524   2.206  0.00  0.00    +0.031 A 
ATOM      3  C   UNL     1       1.406   5.642   1.148  0.00  0.00    +0.072 A 
ATOM      4  C   UNL     1       1.056   6.249  -0.077  0.00  0.00    +0.093 A 
ATOM      5  S   UNL     1       1.132   7.984   0.292  0.00  0.00    -0.070 S 
ATOM      6  N   UNL     1       0.765   5.540  -1.158  0.00  0.00    -0.328 N 
ATOM      7  C   UNL     1       0.799   4.223  -1.133  0.00  0.00    +0.179 A 
ATOM      8  N   UNL     1       1.121   3.552   0.010  0.00  0.00    -0.200 N 
ATOM      9  C   UNL     1       1.427   4.209   1.144  0.00  0.00    +0.280 A 
ATOM     10  O   UNL     1       1.717   3.594   2.155  0.00  0.00    -0.265 OA
ATOM     11  S   UNL     1       0.413   3.315  -2.594  0.00  0.00    -0.011 S 
ATOM     12  H   UNL     1       0.492   6.051  -2.093  0.00  0.00    +0.168 HD
ENDROOT
BRANCH   1  16
ATOM     13  C   UNL     1       2.333  10.997   4.782  0.00  0.00    +0.000 A 
ATOM     14  C   UNL     1       1.968  11.299   3.482  0.00  0.00    +0.001 A 
ATOM     15  C   UNL     1       1.731  10.286   2.575  0.00  0.00    +0.009 A 
ATOM     16  C   UNL     1       1.862   8.954   2.973  0.00  0.00    -0.011 A 
ATOM     17  C   UNL     1       2.226   8.656   4.287  0.00  0.00    +0.009 A 
ATOM     18  C   UNL     1       2.465   9.679   5.181  0.00  0.00    +0.001 A 
ENDBRANCH   1  16
BRANCH   8  19
ATOM     19  N   UNL     1       1.140   2.151   0.003  0.00  0.00    -0.212 N 
ATOM     20  C   UNL     1      -0.018   1.461   0.010  0.00  0.00    +0.298 C 
ATOM     21  O   UNL     1      -1.080   2.055   0.018  0.00  0.00    -0.265 OA
ATOM     22  H   UNL     1       2.100   1.614  -0.009  0.00  0.00    +0.176 HD
BRANCH  20  23
ATOM     23  C   UNL     1       0.002  -0.004   0.002  0.00  0.00    +0.192 A 
ATOM     24  C   UNL     1      -1.092  -0.822   0.014  0.00  0.00    +0.056 A 
ATOM     25  C   UNL     1      -0.612  -2.139  -0.003  0.00  0.00    +0.058 A 
ATOM     26  C   UNL     1       0.739  -2.071  -0.015  0.00  0.00    +0.171 A 
ATOM     27  O   UNL     1       1.105  -0.782  -0.012  0.00  0.00    -0.444 OA
ATOM     28 BR   UNL     1       1.917  -3.550  -0.035  0.00  0.00    -0.008 Br
ENDBRANCH  20  23
ENDBRANCH   8  19
TORSDOF 3
