REMARK  Name = ZINC38090170
REMARK  6 active torsions:
REMARK  status: ('A' for Active; 'I' for Inactive)
REMARK    1  A    between atoms: C_1  and  C_2
REMARK    2  A    between atoms: C_2  and  C_4
REMARK    3  A    between atoms: C_2  and  N_11
REMARK    4  A    between atoms: C_7  and  O_10
REMARK    5  A    between atoms: N_11  and  C_12
REMARK    6  A    between atoms: C_13  and  C_15
REMARK                            x       y       z     vdW  Elec       q    Type
REMARK                         _______ _______ _______ _____ _____    ______ ____
ROOT
ATOM      1  N   UNL     1       0.476  -0.984   0.973  0.00  0.00    -0.293 N 
ATOM      2  C   UNL     1       1.142  -0.516   2.191  0.00  0.00    +0.133 C 
ATOM      3  C   UNL     1       0.175  -2.289   0.828  0.00  0.00    +0.263 C 
ATOM      4  O   UNL     1       0.530  -3.093   1.671  0.00  0.00    -0.268 OA
ENDROOT
BRANCH   3   5
ATOM      5  C   UNL     1      -0.581  -2.742  -0.344  0.00  0.00    +0.103 A 
ATOM      6  C   UNL     1      -0.910  -4.046  -0.648  0.00  0.00    +0.047 A 
ATOM      7  C   UNL     1      -1.629  -4.020  -1.848  0.00  0.00    +0.036 A 
ATOM      8  C   UNL     1      -1.724  -2.728  -2.247  0.00  0.00    +0.098 A 
ATOM      9  N   UNL     1      -1.096  -1.941  -1.339  0.00  0.00    -0.356 N 
ATOM     10  H   UNL     1      -1.021  -0.975  -1.383  0.00  0.00    +0.165 HD
ATOM     11 BR   UNL     1      -2.341  -5.520  -2.752  0.00  0.00    -0.049 Br
ENDBRANCH   3   5
BRANCH   1  13
ATOM     12  C   UNL     1       0.520   1.382   0.354  0.00  0.00    +0.033 C 
ATOM     13  C   UNL     1       0.137  -0.032  -0.087  0.00  0.00    +0.103 C 
BRANCH  13  14
ATOM     14  C   UNL     1       0.891  -0.388  -1.342  0.00  0.00    -0.027 A 
ATOM     15  C   UNL     1       0.346  -0.101  -2.580  0.00  0.00    +0.009 A 
ATOM     16  C   UNL     1       1.036  -0.426  -3.732  0.00  0.00    +0.046 A 
ATOM     17  C   UNL     1       2.276  -1.042  -3.646  0.00  0.00    +0.117 A 
ATOM     18  C   UNL     1       2.821  -1.328  -2.403  0.00  0.00    +0.046 A 
ATOM     19  C   UNL     1       2.130  -0.996  -1.254  0.00  0.00    +0.009 A 
BRANCH  17  20
ATOM     20  O   UNL     1       2.957  -1.364  -4.778  0.00  0.00    -0.507 OA
ATOM     21  H   UNL     1       3.545  -0.665  -5.095  0.00  0.00    +0.292 HD
ENDBRANCH  17  20
ENDBRANCH  13  14
ENDBRANCH   1  13
TORSDOF 4
