REMARK  Name = ZINC02392023
REMARK  4 active torsions:
REMARK  status: ('A' for Active; 'I' for Inactive)
REMARK    1  A    between atoms: C_1  and  O_2
REMARK    2  A    between atoms: O_2  and  C_3
REMARK    3  A    between atoms: C_7  and  C_9
REMARK    4  A    between atoms: C_12  and  C_21
REMARK                            x       y       z     vdW  Elec       q    Type
REMARK                         _______ _______ _______ _____ _____    ______ ____
ROOT
ATOM      1  C   UNL     1       1.325  -4.106  -2.289  0.00  0.00    +0.143 C 
ATOM      2  C   UNL     1       0.618  -4.577  -3.565  0.00  0.00    +0.058 C 
ATOM      3  C   UNL     1       0.905  -6.065  -3.797  0.00  0.00    +0.106 C 
ATOM      4  N   UNL     1       2.357  -6.239  -3.997  0.00  0.00    -0.307 N 
ATOM      5  C   UNL     1       3.184  -5.534  -3.133  0.00  0.00    +0.216 A 
ATOM      6  N   UNL     1       2.720  -4.544  -2.330  0.00  0.00    -0.224 N 
ATOM      7  N   UNL     1       3.814  -4.070  -1.604  0.00  0.00    -0.132 NA
ATOM      8  C   UNL     1       4.857  -4.772  -1.988  0.00  0.00    +0.233 A 
ATOM      9  N   UNL     1       4.467  -5.660  -2.922  0.00  0.00    -0.180 NA
ATOM     10  N   UNL     1       6.158  -4.618  -1.508  0.00  0.00    -0.326 N 
ATOM     11  H   UNL     1       2.713  -6.814  -4.692  0.00  0.00    +0.149 HD
ATOM     12  H   UNL     1       6.351  -3.947  -0.835  0.00  0.00    +0.145 HD
ATOM     13  H   UNL     1       6.870  -5.182  -1.849  0.00  0.00    +0.145 HD
ENDROOT
BRANCH   3  14
ATOM     14  C   UNL     1       0.457  -6.859  -2.597  0.00  0.00    -0.027 A 
ATOM     15  C   UNL     1       1.253  -6.913  -1.468  0.00  0.00    +0.006 A 
ATOM     16  C   UNL     1       0.842  -7.641  -0.367  0.00  0.00    +0.015 A 
ATOM     17  C   UNL     1      -0.365  -8.316  -0.395  0.00  0.00    +0.018 A 
ATOM     18  C   UNL     1      -1.161  -8.261  -1.525  0.00  0.00    +0.015 A 
ATOM     19  C   UNL     1      -0.752  -7.529  -2.624  0.00  0.00    +0.006 A 
ATOM     20 BR   UNL     1      -0.927  -9.312   1.111  0.00  0.00    -0.050 Br
ENDBRANCH   3  14
BRANCH   1  25
ATOM     21  C   UNL     1       0.606  -0.607  -1.056  0.00  0.00    +0.120 A 
ATOM     22  C   UNL     1       1.173   0.161  -2.063  0.00  0.00    +0.045 A 
ATOM     23  C   UNL     1       1.786  -0.455  -3.136  0.00  0.00    +0.004 A 
ATOM     24  C   UNL     1       1.836  -1.835  -3.208  0.00  0.00    +0.006 A 
ATOM     25  C   UNL     1       1.271  -2.602  -2.207  0.00  0.00    -0.019 A 
ATOM     26  C   UNL     1       0.661  -1.991  -1.128  0.00  0.00    +0.051 A 
BRANCH  21  28
ATOM     27  C   UNL     1      -0.017   1.425   0.010  0.00  0.00    +0.277 C 
ATOM     28  O   UNL     1       0.002  -0.004   0.002  0.00  0.00    -0.495 OA
ENDBRANCH  21  28
ENDBRANCH   1  25
TORSDOF 3
