REMARK  Name = ZINC31055741
REMARK  11 active torsions:
REMARK  status: ('A' for Active; 'I' for Inactive)
REMARK    1  A    between atoms: C_1  and  C_2
REMARK    2  A    between atoms: C_2  and  C_4
REMARK    3  A    between atoms: C_2  and  N_14
REMARK    4  A    between atoms: C_7  and  O_12
REMARK    5  A    between atoms: C_8  and  O_10
REMARK    6  A    between atoms: O_10  and  C_11
REMARK    7  A    between atoms: O_12  and  C_13
REMARK    8  A    between atoms: C_15  and  C_17
REMARK    9  A    between atoms: N_22  and  C_24
REMARK   10  A    between atoms: C_24  and  C_25
REMARK   11  A    between atoms: C_27  and  C_30
REMARK                            x       y       z     vdW  Elec       q    Type
REMARK                         _______ _______ _______ _____ _____    ______ ____
ROOT
ATOM      1  C   UNL     1       3.041   3.755   0.486  0.00  0.00    +0.058 C 
ATOM      2  C   UNL     1       3.549   3.823  -0.956  0.00  0.00    +0.009 C 
ATOM      3  C   UNL     1       4.964   4.410  -0.963  0.00  0.00    -0.018 C 
ATOM      4  C   UNL     1       4.940   5.792  -0.307  0.00  0.00    -0.078 C 
ATOM      5  N   UNL     1       4.447   5.673   1.071  0.00  0.00    +0.386 N 
ATOM      6  C   UNL     1       3.073   5.155   1.102  0.00  0.00    -0.065 C 
ATOM      7  H   UNL     1       5.089   4.950   1.595  0.00  0.00    -0.081 HD
ENDROOT
BRANCH   1   9
ATOM      8  N   UNL     1       1.356   2.010  -0.000  0.00  0.00    -0.309 N 
ATOM      9  C   UNL     1       1.627   3.233   0.497  0.00  0.00    +0.215 C 
ATOM     10  O   UNL     1       0.733   3.914   0.953  0.00  0.00    -0.276 OA
ATOM     11  H   UNL     1       2.167   1.393  -0.414  0.00  0.00    +0.149 HD
BRANCH   8  13
ATOM     12  C   UNL     1      -0.758   2.010  -1.229  0.00  0.00    +0.033 C 
ATOM     13  C   UNL     1      -0.018   1.503   0.010  0.00  0.00    +0.100 C 
BRANCH  13  14
ATOM     14  C   UNL     1       0.002  -0.004   0.002  0.00  0.00    -0.024 A 
ATOM     15  C   UNL     1       0.918  -0.677  -0.785  0.00  0.00    +0.009 A 
ATOM     16  C   UNL     1       0.945  -2.059  -0.792  0.00  0.00    +0.050 A 
ATOM     17  C   UNL     1       0.044  -2.773  -0.017  0.00  0.00    +0.162 A 
ATOM     18  C   UNL     1      -0.881  -2.096   0.770  0.00  0.00    +0.162 A 
ATOM     19  C   UNL     1      -0.899  -0.710   0.777  0.00  0.00    +0.054 A 
BRANCH  18  20
ATOM     20  O   UNL     1      -1.767  -2.792   1.533  0.00  0.00    -0.491 OA
ATOM     21  C   UNL     1      -2.688  -2.030   2.316  0.00  0.00    +0.277 C 
ENDBRANCH  18  20
BRANCH  17  22
ATOM     22  O   UNL     1       0.065  -4.133  -0.027  0.00  0.00    -0.491 OA
ATOM     23  C   UNL     1       1.042  -4.761  -0.860  0.00  0.00    +0.277 C 
ENDBRANCH  17  22
ENDBRANCH  13  14
ENDBRANCH   8  13
ENDBRANCH   1   9
BRANCH   5  24
ATOM     24  C   UNL     1       4.541   6.958   1.777  0.00  0.00    +0.022 C 
BRANCH  24  25
ATOM     25  C   UNL     1       5.991   7.333   1.946  0.00  0.00    +0.211 A 
ATOM     26  N   UNL     1       6.716   8.031   1.109  0.00  0.00    -0.193 NA
ATOM     27  C   UNL     1       7.942   8.118   1.675  0.00  0.00    +0.203 A 
ATOM     28  N   UNL     1       7.891   7.467   2.808  0.00  0.00    -0.056 NA
ATOM     29  O   UNL     1       6.779   7.011   2.977  0.00  0.00    -0.340 OA
BRANCH  27  30
ATOM     30  C   UNL     1       9.124   8.816   1.113  0.00  0.00    +0.041 A 
ATOM     31  C   UNL     1       9.033   9.467  -0.116  0.00  0.00    +0.014 A 
ATOM     32  C   UNL     1      10.133  10.121  -0.632  0.00  0.00    +0.021 A 
ATOM     33  C   UNL     1      11.331  10.120   0.064  0.00  0.00    +0.042 A 
ATOM     34  C   UNL     1      11.430   9.470   1.281  0.00  0.00    +0.040 A 
ATOM     35  C   UNL     1      10.332   8.818   1.809  0.00  0.00    +0.053 A 
ATOM     36 CL   UNL     1      10.456   8.003   3.337  0.00  0.00    -0.083 Cl
ATOM     37 CL   UNL     1      12.713  10.938  -0.594  0.00  0.00    -0.083 Cl
ENDBRANCH  27  30
ENDBRANCH  24  25
ENDBRANCH   5  24
TORSDOF 8
