REMARK  Name = ZINC06409705
REMARK  9 active torsions:
REMARK  status: ('A' for Active; 'I' for Inactive)
REMARK    1  A    between atoms: C_1  and  C_2
REMARK    2  A    between atoms: C_7  and  C_14
REMARK    3  A    between atoms: C_14  and  N_64
REMARK    4  A    between atoms: C_15  and  C_16
REMARK    5  A    between atoms: C_15  and  N_64
REMARK    6  A    between atoms: C_25  and  C_26
REMARK    7  A    between atoms: C_25  and  N_64
REMARK    8  A    between atoms: N_30  and  C_31
REMARK    9  A    between atoms: C_31  and  C_32
REMARK                            x       y       z     vdW  Elec       q    Type
REMARK                         _______ _______ _______ _____ _____    ______ ____
ROOT
ATOM      1  N   UNL     1       1.039   5.304   1.353  0.00  0.00    +0.390 N 
ATOM      2  H   UNL     1       1.686   4.683   1.853  0.00  0.00    -0.080 HD
ENDROOT
BRANCH   1   3
ATOM      3  C   UNL     1       1.014   4.921  -0.075  0.00  0.00    -0.036 C 
BRANCH   3  10
ATOM      4  C   UNL     1      -1.323  -2.676  -0.740  0.00  0.00    +0.044 C 
ATOM      5  C   UNL     1      -1.107  -1.188  -0.645  0.00  0.00    -0.048 A 
ATOM      6  C   UNL     1      -2.190  -0.327  -0.764  0.00  0.00    +0.004 A 
ATOM      7  C   UNL     1      -2.016   1.025  -0.680  0.00  0.00    +0.010 A 
ATOM      8  C   UNL     1      -0.735   1.548  -0.473  0.00  0.00    -0.001 A 
ATOM      9  C   UNL     1      -0.512   2.992  -0.378  0.00  0.00    +0.017 A 
ATOM     10  C   UNL     1       0.751   3.441  -0.177  0.00  0.00    +0.001 A 
ATOM     11  C   UNL     1       1.820   2.527  -0.061  0.00  0.00    +0.251 A 
ATOM     12  O   UNL     1       2.948   2.951   0.120  0.00  0.00    -0.268 OA
ATOM     13  N   UNL     1       1.626   1.199  -0.147  0.00  0.00    -0.322 N 
ATOM     14  H   UNL     1       2.383   0.599  -0.064  0.00  0.00    +0.169 HD
ATOM     15  C   UNL     1       0.366   0.679  -0.352  0.00  0.00    +0.049 A 
ATOM     16  C   UNL     1       0.164  -0.695  -0.440  0.00  0.00    +0.029 A 
ENDBRANCH   3  10
ENDBRANCH   1   3
BRANCH   1  17
ATOM     17  C   UNL     1      -0.311   5.161   1.937  0.00  0.00    -0.042 C 
BRANCH  17  18
ATOM     18  C   UNL     1      -0.235   5.446   3.415  0.00  0.00    -0.060 A 
ATOM     19  C   UNL     1      -0.018   4.412   4.307  0.00  0.00    +0.005 A 
ATOM     20  C   UNL     1       0.056   4.669   5.663  0.00  0.00    +0.050 A 
ATOM     21  C   UNL     1      -0.096   5.963   6.133  0.00  0.00    +0.166 A 
ATOM     22  C   UNL     1      -0.320   7.004   5.235  0.00  0.00    +0.166 A 
ATOM     23  C   UNL     1      -0.389   6.740   3.877  0.00  0.00    +0.051 A 
ATOM     24  O   UNL     1      -0.436   8.169   5.937  0.00  0.00    -0.453 OA
ATOM     25  C   UNL     1       0.125   7.893   7.234  0.00  0.00    +0.466 C 
ATOM     26  O   UNL     1      -0.072   6.476   7.398  0.00  0.00    -0.453 OA
ENDBRANCH  17  18
ENDBRANCH   1  17
BRANCH   1  27
ATOM     27  C   UNL     1       1.506   6.699   1.494  0.00  0.00    +0.001 C 
BRANCH  27  28
ATOM     28  C   UNL     1       2.939   6.782   1.036  0.00  0.00    +0.135 A 
ATOM     29  N   UNL     1       3.360   7.085  -0.167  0.00  0.00    -0.115 NA
ATOM     30  N   UNL     1       4.648   7.050  -0.159  0.00  0.00    -0.023 NA
ATOM     31  N   UNL     1       5.060   6.733   1.019  0.00  0.00    -0.044 NA
ATOM     32  N   UNL     1       4.036   6.564   1.786  0.00  0.00    -0.229 N 
BRANCH  32  33
ATOM     33  C   UNL     1       4.062   6.201   3.205  0.00  0.00    +0.178 C 
BRANCH  33  34
ATOM     34  C   UNL     1       4.250   4.688   3.341  0.00  0.00    +0.140 C 
ATOM     35  C   UNL     1       4.318   4.287   4.836  0.00  0.00    +0.035 C 
ATOM     36  C   UNL     1       3.857   2.804   4.763  0.00  0.00    +0.031 C 
ATOM     37  C   UNL     1       2.831   2.835   3.610  0.00  0.00    +0.160 C 
ATOM     38  O   UNL     1       3.107   3.994   2.815  0.00  0.00    -0.375 OA
ENDBRANCH  33  34
ENDBRANCH  32  33
ENDBRANCH  27  28
ENDBRANCH   1  27
TORSDOF 8
