REMARK  Name = ZINC34773036
REMARK  6 active torsions:
REMARK  status: ('A' for Active; 'I' for Inactive)
REMARK    1  A    between atoms: C_1  and  C_2
REMARK    2  A    between atoms: C_2  and  C_3
REMARK    3  A    between atoms: C_2  and  C_4
REMARK    4  A    between atoms: C_2  and  C_5
REMARK    5  A    between atoms: C_12  and  N_16
REMARK    6  A    between atoms: C_13  and  C_14
REMARK                            x       y       z     vdW  Elec       q    Type
REMARK                         _______ _______ _______ _____ _____    ______ ____
ROOT
ATOM      1  C   UNL     1       0.721  -0.504  -1.253  0.00  0.00    -0.000 C 
ATOM      2  C   UNL     1      -0.017   0.002  -2.495  0.00  0.00    +0.009 C 
ATOM      3  C   UNL     1       0.539  -0.683  -3.746  0.00  0.00    +0.037 C 
ATOM      4  C   UNL     1       2.053  -0.525  -3.756  0.00  0.00    -0.018 A 
ATOM      5  C   UNL     1       2.733  -0.203  -2.634  0.00  0.00    -0.004 A 
ATOM      6  S   UNL     1       4.426  -0.135  -3.140  0.00  0.00    -0.077 S 
ATOM      7  C   UNL     1       4.255  -0.516  -4.767  0.00  0.00    +0.091 A 
ATOM      8  C   UNL     1       2.891  -0.697  -4.930  0.00  0.00    +0.084 A 
ATOM      9  C   UNL     1       2.159   0.035  -1.271  0.00  0.00    +0.047 C 
ENDROOT
BRANCH   7  10
ATOM     10  N   UNL     1       5.251  -0.625  -5.727  0.00  0.00    -0.263 N 
ATOM     11  C   UNL     1       6.538  -0.414  -5.390  0.00  0.00    +0.307 C 
ATOM     12  O   UNL     1       6.819  -0.039  -4.268  0.00  0.00    -0.252 OA
ATOM     13  N   UNL     1       7.515  -0.618  -6.296  0.00  0.00    -0.281 N 
ATOM     14  C   UNL     1       7.194  -0.954  -7.692  0.00  0.00    +0.137 C 
ATOM     15  C   UNL     1       7.977  -0.008  -8.610  0.00  0.00    +0.179 C 
ATOM     16  O   UNL     1       9.360  -0.042  -8.250  0.00  0.00    -0.377 OA
ATOM     17  C   UNL     1       9.631   0.414  -6.923  0.00  0.00    +0.179 C 
ATOM     18  C   UNL     1       8.933  -0.505  -5.920  0.00  0.00    +0.137 C 
ATOM     19  H   UNL     1       5.020  -0.852  -6.642  0.00  0.00    +0.157 HD
ENDBRANCH   7  10
BRANCH   1  21
ATOM     20  C   UNL     1      -0.020   1.519   0.011  0.00  0.00    +0.011 C 
ATOM     21  C   UNL     1       0.005  -0.010   0.006  0.00  0.00    -0.035 C 
ATOM     22  C   UNL     1       0.747  -0.512   1.246  0.00  0.00    +0.011 C 
ATOM     23  C   UNL     1      -1.429  -0.544   0.019  0.00  0.00    +0.011 C 
ENDBRANCH   1  21
BRANCH   8  24
ATOM     24  C   UNL     1       2.331  -1.041  -6.202  0.00  0.00    +0.102 C 
ATOM     25  N   UNL     1       1.887  -1.313  -7.212  0.00  0.00    -0.191 NA
ENDBRANCH   8  24
TORSDOF 3
