REMARK  Name = ZINC20763970
REMARK  6 active torsions:
REMARK  status: ('A' for Active; 'I' for Inactive)
REMARK    1  A    between atoms: C_1  and  C_2
REMARK    2  A    between atoms: C_5  and  C_9
REMARK    3  A    between atoms: C_6  and  C_8
REMARK    4  A    between atoms: C_12  and  C_26
REMARK    5  A    between atoms: C_15  and  C_17
REMARK    6  A    between atoms: C_31  and  O_32
REMARK                            x       y       z     vdW  Elec       q    Type
REMARK                         _______ _______ _______ _____ _____    ______ ____
ROOT
ATOM      1  C   UNL     1      -2.540   3.892   0.040  0.00  0.00    +0.081 C 
ATOM      2  N   UNL     1      -2.313   5.271  -0.409  0.00  0.00    +0.401 N 
ATOM      3  C   UNL     1      -1.972   5.290  -1.842  0.00  0.00    -0.028 C 
ATOM      4  C   UNL     1      -3.210   4.856  -2.633  0.00  0.00    +0.044 C 
ATOM      5  C   UNL     1      -3.793   3.618  -2.013  0.00  0.00    +0.040 C 
ATOM      6  N   UNL     1      -3.488   3.216  -0.837  0.00  0.00    -0.299 NA
ATOM      7  H   UNL     1      -3.225   5.864  -0.248  0.00  0.00    -0.081 HD
ATOM      8  H   UNL     1      -1.484   5.711   0.164  0.00  0.00    -0.081 HD
ENDROOT
BRANCH   5   9
ATOM      9  C   UNL     1      -4.763   2.829  -2.796  0.00  0.00    -0.001 A 
ATOM     10  C   UNL     1      -5.124   3.240  -4.081  0.00  0.00    +0.013 A 
ATOM     11  C   UNL     1      -6.026   2.499  -4.813  0.00  0.00    +0.050 A 
ATOM     12  C   UNL     1      -6.586   1.349  -4.274  0.00  0.00    +0.166 A 
ATOM     13  C   UNL     1      -6.234   0.936  -2.989  0.00  0.00    +0.167 A 
ATOM     14  C   UNL     1      -5.326   1.672  -2.252  0.00  0.00    +0.059 A 
ATOM     15  O   UNL     1      -6.917  -0.210  -2.697  0.00  0.00    -0.453 OA
ATOM     16  C   UNL     1      -7.375  -0.716  -3.965  0.00  0.00    +0.466 C 
ATOM     17  O   UNL     1      -7.488   0.462  -4.784  0.00  0.00    -0.453 OA
ENDBRANCH   5   9
BRANCH   1  22
ATOM     18  C   UNL     1       2.477   1.024  -0.010  0.00  0.00    +0.044 C 
ATOM     19  C   UNL     1       1.169   1.772   0.003  0.00  0.00    -0.050 A 
ATOM     20  C   UNL     1       0.313   1.687  -1.080  0.00  0.00    +0.003 A 
ATOM     21  C   UNL     1      -0.887   2.374  -1.068  0.00  0.00    +0.004 A 
ATOM     22  C   UNL     1      -1.232   3.144   0.027  0.00  0.00    -0.038 A 
ATOM     23  C   UNL     1      -0.378   3.225   1.111  0.00  0.00    -0.047 A 
ATOM     24  C   UNL     1       0.824   2.543   1.097  0.00  0.00    +0.007 A 
ATOM     25  C   UNL     1      -0.756   4.061   2.306  0.00  0.00    +0.044 C 
ENDBRANCH   1  22
BRANCH   3  26
ATOM     26  C   UNL     1      -1.570   6.684  -2.250  0.00  0.00    -0.018 A 
ATOM     27  C   UNL     1      -1.944   7.766  -1.476  0.00  0.00    +0.020 A 
ATOM     28  C   UNL     1      -1.575   9.045  -1.851  0.00  0.00    +0.018 A 
ATOM     29  C   UNL     1      -0.831   9.245  -3.001  0.00  0.00    +0.019 A 
ATOM     30  C   UNL     1      -0.456   8.166  -3.777  0.00  0.00    +0.047 A 
ATOM     31  C   UNL     1      -0.820   6.881  -3.400  0.00  0.00    +0.119 A 
ATOM     32 BR   UNL     1      -2.087  10.524  -0.790  0.00  0.00    -0.050 Br
BRANCH  31  33
ATOM     33  O   UNL     1      -0.446   5.817  -4.159  0.00  0.00    -0.507 OA
ATOM     34  H   UNL     1       0.149   5.974  -5.071  0.00  0.00    +0.292 HD
ENDBRANCH  31  33
ENDBRANCH   3  26
TORSDOF 4
