REMARK  Name = ZINC08324803
REMARK  7 active torsions:
REMARK  status: ('A' for Active; 'I' for Inactive)
REMARK    1  A    between atoms: C_1  and  C_2
REMARK    2  A    between atoms: C_2  and  O_3
REMARK    3  A    between atoms: O_3  and  C_4
REMARK    4  A    between atoms: C_7  and  C_12
REMARK    5  A    between atoms: C_9  and  O_10
REMARK    6  A    between atoms: O_10  and  C_11
REMARK    7  A    between atoms: C_24  and  O_26
REMARK                            x       y       z     vdW  Elec       q    Type
REMARK                         _______ _______ _______ _____ _____    ______ ____
ROOT
ATOM      1  C   UNL     1      -1.996  -6.097  -0.011  0.00  0.00    +0.224 C 
ATOM      2  N   UNL     1      -0.837  -6.718   0.655  0.00  0.00    -0.313 N 
ATOM      3  C   UNL     1      -0.887  -6.782   2.030  0.00  0.00    +0.080 A 
ATOM      4  C   UNL     1      -2.100  -6.780   2.728  0.00  0.00    +0.068 A 
ATOM      5  C   UNL     1      -1.994  -6.840   4.174  0.00  0.00    -0.023 A 
ATOM      6  C   UNL     1      -0.726  -6.897   4.641  0.00  0.00    -0.005 A 
ATOM      7  S   UNL     1       0.293  -6.871   3.192  0.00  0.00    -0.078 S 
ATOM      8  C   UNL     1      -0.296  -6.965   6.074  0.00  0.00    +0.043 C 
ATOM      9  C   UNL     1      -1.494  -6.585   6.956  0.00  0.00    +0.005 C 
ATOM     10  C   UNL     1      -2.724  -7.367   6.485  0.00  0.00    +0.005 C 
ATOM     11  C   UNL     1      -3.183  -6.842   5.123  0.00  0.00    +0.037 C 
ATOM     12  C   UNL     1      -3.351  -6.725   1.927  0.00  0.00    +0.220 C 
ATOM     13  N   UNL     1      -3.245  -6.434   0.660  0.00  0.00    -0.223 NA
ATOM     14  H   UNL     1      -0.082  -7.062   0.153  0.00  0.00    +0.149 HD
ENDROOT
BRANCH   1  18
ATOM     15  C   UNL     1      -1.498  -1.849   0.006  0.00  0.00    +0.162 A 
ATOM     16  C   UNL     1      -0.389  -2.680  -0.003  0.00  0.00    +0.050 A 
ATOM     17  C   UNL     1      -0.553  -4.052  -0.008  0.00  0.00    +0.011 A 
ATOM     18  C   UNL     1      -1.823  -4.600  -0.005  0.00  0.00    -0.002 A 
ATOM     19  C   UNL     1      -2.934  -3.777   0.004  0.00  0.00    +0.056 A 
ATOM     20  C   UNL     1      -2.776  -2.400   0.016  0.00  0.00    +0.162 A 
BRANCH  20  21
ATOM     21  O   UNL     1      -3.868  -1.589   0.030  0.00  0.00    -0.491 OA
ATOM     22  C   UNL     1      -5.148  -2.225   0.039  0.00  0.00    +0.277 C 
ENDBRANCH  20  21
BRANCH  15  23
ATOM     23  O   UNL     1      -1.339  -0.499   0.012  0.00  0.00    -0.489 OA
BRANCH  23  25
ATOM     24  C   UNL     1      -0.019   1.526   0.010  0.00  0.00    +0.048 C 
ATOM     25  C   UNL     1       0.002  -0.004   0.002  0.00  0.00    +0.226 C 
ENDBRANCH  23  25
ENDBRANCH  15  23
ENDBRANCH   1  18
BRANCH  12  26
ATOM     26  O   UNL     1      -4.556  -6.968   2.493  0.00  0.00    -0.492 OA
ATOM     27  H   UNL     1      -5.299  -6.904   1.878  0.00  0.00    +0.294 HD
ENDBRANCH  12  26
TORSDOF 5
