REMARK  Name = ZINC12635285
REMARK  7 active torsions:
REMARK  status: ('A' for Active; 'I' for Inactive)
REMARK    1  A    between atoms: C_3  and  S_17
REMARK    2  A    between atoms: C_6  and  S_7
REMARK    3  A    between atoms: S_7  and  N_10
REMARK    4  A    between atoms: N_10  and  C_11
REMARK    5  A    between atoms: S_17  and  N_20
REMARK    6  A    between atoms: C_25  and  C_26
REMARK    7  A    between atoms: C_25  and  N_66
REMARK                            x       y       z     vdW  Elec       q    Type
REMARK                         _______ _______ _______ _____ _____    ______ ____
ROOT
ATOM      1  S   UNL     1       9.203  -3.688  -0.320  0.00  0.00    +0.061 S 
ATOM      2  O   UNL     1       8.721  -4.523  -1.364  0.00  0.00    -0.153 OA
ATOM      3  O   UNL     1      10.449  -3.010  -0.400  0.00  0.00    -0.153 OA
ENDROOT
BRANCH   1   4
ATOM      4  N   UNL     1       8.048  -2.527  -0.071  0.00  0.00    -0.180 NA
ATOM      5  C   UNL     1       8.397  -1.231   0.530  0.00  0.00    +0.091 C 
ATOM      6  C   UNL     1       7.440  -0.962   1.696  0.00  0.00    -0.061 C 
ATOM      7  C   UNL     1       5.757  -2.435   0.758  0.00  0.00    -0.061 C 
ATOM      8  C   UNL     1       6.646  -2.765  -0.446  0.00  0.00    +0.091 C 
ATOM      9  N   UNL     1       6.050  -1.054   1.200  0.00  0.00    +0.384 N 
ATOM     10  H   UNL     1       5.938  -0.419   0.401  0.00  0.00    -0.081 HD
BRANCH   9  11
ATOM     11  C   UNL     1       5.107  -0.655   2.265  0.00  0.00    -0.043 C 
BRANCH  11  12
ATOM     12  C   UNL     1       3.725  -0.548   1.674  0.00  0.00    -0.060 A 
ATOM     13  C   UNL     1       2.885  -1.646   1.677  0.00  0.00    +0.005 A 
ATOM     14  C   UNL     1       1.617  -1.553   1.135  0.00  0.00    +0.050 A 
ATOM     15  C   UNL     1       1.183  -0.356   0.589  0.00  0.00    +0.166 A 
ATOM     16  C   UNL     1       2.028   0.751   0.586  0.00  0.00    +0.166 A 
ATOM     17  C   UNL     1       3.298   0.650   1.131  0.00  0.00    +0.051 A 
ATOM     18  O   UNL     1       1.376   1.797  -0.001  0.00  0.00    -0.453 OA
ATOM     19  C   UNL     1      -0.018   1.436   0.010  0.00  0.00    +0.466 C 
ATOM     20  O   UNL     1       0.002  -0.004   0.002  0.00  0.00    -0.453 OA
ENDBRANCH  11  12
ENDBRANCH   9  11
ENDBRANCH   1   4
BRANCH   1  23
ATOM     21  C   UNL     1       8.504  -6.580   2.380  0.00  0.00    +0.030 A 
ATOM     22  C   UNL     1       8.456  -5.799   1.240  0.00  0.00    +0.030 A 
ATOM     23  C   UNL     1       9.263  -4.682   1.133  0.00  0.00    +0.106 A 
ATOM     24  C   UNL     1      10.121  -4.348   2.164  0.00  0.00    +0.030 A 
ATOM     25  C   UNL     1      10.165  -5.125   3.307  0.00  0.00    +0.030 A 
ATOM     26  C   UNL     1       9.358  -6.242   3.414  0.00  0.00    +0.105 A 
BRANCH  26  27
ATOM     27  S   UNL     1       9.418  -7.237   4.867  0.00  0.00    +0.059 S 
ATOM     28  O   UNL     1       9.900  -6.402   5.911  0.00  0.00    -0.153 OA
ATOM     29  O   UNL     1       8.172  -7.915   4.947  0.00  0.00    -0.153 OA
BRANCH  27  30
ATOM     30  N   UNL     1      10.573  -8.398   4.619  0.00  0.00    -0.187 NA
ATOM     31  H   UNL     1      10.319  -9.333   4.574  0.00  0.00    +0.148 HD
BRANCH  30  32
ATOM     32  C   UNL     1      11.978  -8.012   4.466  0.00  0.00    +0.077 C 
ATOM     33  C   UNL     1      12.312  -7.881   2.978  0.00  0.00    +0.020 C 
ATOM     34  C   UNL     1      13.779  -7.478   2.819  0.00  0.00    +0.002 C 
ATOM     35  C   UNL     1      14.673  -8.547   3.450  0.00  0.00    +0.000 C 
ATOM     36  C   UNL     1      14.339  -8.679   4.937  0.00  0.00    +0.002 C 
ATOM     37  C   UNL     1      12.872  -9.081   5.097  0.00  0.00    +0.020 C 
ENDBRANCH  30  32
ENDBRANCH  27  30
ENDBRANCH  26  27
ENDBRANCH   1  23
TORSDOF 7
