REMARK  Name = ZINC09520673
REMARK  3 active torsions:
REMARK  status: ('A' for Active; 'I' for Inactive)
REMARK    1  A    between atoms: C_3  and  C_8
REMARK    2  A    between atoms: C_8  and  S_9
REMARK    3  A    between atoms: S_9  and  C_10
REMARK                            x       y       z     vdW  Elec       q    Type
REMARK                         _______ _______ _______ _____ _____    ______ ____
ROOT
ATOM      1  C   UNL     1      -0.114   7.714  -1.499  0.00  0.00    +0.198 A 
ATOM      2  N   UNL     1      -0.118   8.375  -0.367  0.00  0.00    -0.120 NA
ATOM      3  N   UNL     1      -0.133   9.745  -0.662  0.00  0.00    -0.109 NA
ATOM      4  C   UNL     1      -0.146   9.878  -1.966  0.00  0.00    +0.237 A 
ATOM      5  N   UNL     1      -0.135   8.627  -2.520  0.00  0.00    -0.260 N 
ATOM      6  C   UNL     1      -0.145   8.459  -3.894  0.00  0.00    +0.037 A 
ATOM      7  C   UNL     1      -0.169   9.533  -4.694  0.00  0.00    +0.037 A 
ATOM      8  C   UNL     1      -0.177  10.837  -4.121  0.00  0.00    +0.256 A 
ATOM      9  O   UNL     1      -0.194  11.816  -4.845  0.00  0.00    -0.267 OA
ATOM     10  N   UNL     1      -0.167  10.994  -2.785  0.00  0.00    -0.291 N 
ATOM     11  H   UNL     1      -0.174  11.884  -2.398  0.00  0.00    +0.172 HD
ATOM     12  C   UNL     1      -0.191   9.435  -6.197  0.00  0.00    +0.042 C 
ATOM     13  C   UNL     1       0.255   8.048  -6.655  0.00  0.00    +0.005 C 
ATOM     14  C   UNL     1      -0.557   7.004  -5.879  0.00  0.00    +0.006 C 
ATOM     15  C   UNL     1      -0.117   7.047  -4.418  0.00  0.00    +0.054 C 
ENDROOT
BRANCH   1  16
ATOM     16  S   UNL     1      -0.093   5.961  -1.676  0.00  0.00    -0.081 S 
BRANCH  16  17
ATOM     17  C   UNL     1      -0.069   5.348   0.031  0.00  0.00    +0.112 C 
BRANCH  17  20
ATOM     18  C   UNL     1       1.175   1.783   0.000  0.00  0.00    +0.002 A 
ATOM     19  C   UNL     1       1.156   3.166   0.008  0.00  0.00    +0.004 A 
ATOM     20  C   UNL     1      -0.050   3.841   0.023  0.00  0.00    -0.036 A 
ATOM     21  C   UNL     1      -1.238   3.135   0.030  0.00  0.00    +0.024 A 
ATOM     22  C   UNL     1      -1.220   1.752   0.017  0.00  0.00    +0.041 A 
ATOM     23  C   UNL     1      -0.013   1.076   0.008  0.00  0.00    +0.020 A 
ATOM     24 CL   UNL     1      -2.712   0.864   0.019  0.00  0.00    -0.084 Cl
ENDBRANCH  17  20
ENDBRANCH  16  17
ENDBRANCH   1  16
TORSDOF 3
