REMARK  Name = ZINC38970714
REMARK  4 active torsions:
REMARK  status: ('A' for Active; 'I' for Inactive)
REMARK    1  A    between atoms: N_7  and  S_8
REMARK    2  A    between atoms: S_8  and  C_11
REMARK    3  A    between atoms: C_20  and  N_25
REMARK    4  A    between atoms: N_25  and  C_26
REMARK                            x       y       z     vdW  Elec       q    Type
REMARK                         _______ _______ _______ _____ _____    ______ ____
ROOT
ATOM      1  C   UNL     1      -0.273   1.098   0.323  0.00  0.00    +0.002 A 
ATOM      2  C   UNL     1       0.836   1.950   0.197  0.00  0.00    +0.002 A 
ATOM      3  C   UNL     1       2.098   1.491   0.051  0.00  0.00    +0.030 A 
ATOM      4  C   UNL     1       2.354   0.097   0.018  0.00  0.00    +0.089 A 
ATOM      5  N   UNL     1       3.586  -0.345  -0.125  0.00  0.00    -0.226 NA
ATOM      6  C   UNL     1       3.863  -1.659  -0.160  0.00  0.00    +0.192 C 
ATOM      7  N   UNL     1       5.088  -2.071  -0.301  0.00  0.00    -0.110 NA
ATOM      8  C   UNL     1       2.730  -2.651  -0.032  0.00  0.00    +0.237 C 
ATOM      9  N   UNL     1       1.367  -2.121   0.126  0.00  0.00    -0.359 N 
ATOM     10  C   UNL     1       1.201  -0.828   0.149  0.00  0.00    +0.063 A 
ATOM     11  C   UNL     1      -0.141  -0.247   0.305  0.00  0.00    +0.027 A 
ATOM     12  H   UNL     1       0.608  -2.719   0.211  0.00  0.00    +0.162 HD
ENDROOT
BRANCH   7  13
ATOM     13  S   UNL     1       6.321  -0.973  -0.439  0.00  0.00    +0.103 S 
ATOM     14  O   UNL     1       6.118  -0.288  -1.668  0.00  0.00    -0.146 OA
ATOM     15  O   UNL     1       6.402  -0.295   0.807  0.00  0.00    -0.146 OA
BRANCH  13  16
ATOM     16  C   UNL     1       7.816  -1.888  -0.613  0.00  0.00    +0.141 A 
ATOM     17  C   UNL     1       8.528  -1.808  -1.762  0.00  0.00    +0.031 A 
ATOM     18  C   UNL     1       9.716  -2.518  -1.934  0.00  0.00    +0.004 A 
ATOM     19  C   UNL     1      10.210  -3.318  -0.960  0.00  0.00    +0.031 A 
ATOM     20  C   UNL     1       9.516  -3.451   0.274  0.00  0.00    +0.102 A 
ATOM     21  C   UNL     1       8.277  -2.704   0.456  0.00  0.00    +0.127 A 
ATOM     22  N   UNL     1       7.717  -2.901   1.650  0.00  0.00    -0.189 NA
ATOM     23  S   UNL     1       8.692  -3.920   2.425  0.00  0.00    +0.117 S 
ATOM     24  N   UNL     1       9.847  -4.185   1.337  0.00  0.00    -0.191 NA
ENDBRANCH  13  16
ENDBRANCH   7  13
BRANCH   8  25
ATOM     25  N   UNL     1       2.743  -3.501  -1.225  0.00  0.00    -0.318 N 
ATOM     26  H   UNL     1       2.870  -3.104  -2.101  0.00  0.00    +0.148 HD
BRANCH  25  27
ATOM     27  C   UNL     1       2.571  -4.881  -1.102  0.00  0.00    +0.032 A 
ATOM     28  C   UNL     1       2.230  -5.433   0.127  0.00  0.00    +0.043 A 
ATOM     29  C   UNL     1       2.061  -6.800   0.246  0.00  0.00    +0.044 A 
ATOM     30  C   UNL     1       2.230  -7.618  -0.857  0.00  0.00    +0.040 A 
ATOM     31  C   UNL     1       2.570  -7.071  -2.082  0.00  0.00    +0.044 A 
ATOM     32  C   UNL     1       2.735  -5.705  -2.208  0.00  0.00    +0.043 A 
ATOM     33 CL   UNL     1       2.782  -8.102  -3.463  0.00  0.00    -0.083 Cl
ATOM     34 CL   UNL     1       1.635  -7.490   1.781  0.00  0.00    -0.083 Cl
ENDBRANCH  25  27
ENDBRANCH   8  25
TORSDOF 4
