REMARK  Name = ZINC13669333
REMARK  11 active torsions:
REMARK  status: ('A' for Active; 'I' for Inactive)
REMARK    1  A    between atoms: C_1  and  C_2
REMARK    2  A    between atoms: C_5  and  S_8
REMARK    3  A    between atoms: S_8  and  N_11
REMARK    4  A    between atoms: C_17  and  C_19
REMARK    5  A    between atoms: C_19  and  C_21
REMARK    6  A    between atoms: C_19  and  N_22
REMARK    7  A    between atoms: N_22  and  C_23
REMARK    8  A    between atoms: N_22  and  S_31
REMARK    9  A    between atoms: C_25  and  C_30
REMARK   10  A    between atoms: C_28  and  C_29
REMARK   11  A    between atoms: S_31  and  C_34
REMARK                            x       y       z     vdW  Elec       q    Type
REMARK                         _______ _______ _______ _____ _____    ______ ____
ROOT
ATOM      1  N   UNL     1      -0.647   0.580  -1.767  0.00  0.00    -0.174 NA
ATOM      2  C   UNL     1      -1.779  -0.096  -2.416  0.00  0.00    +0.128 C 
ATOM      3  C   UNL     1      -3.054   0.721  -2.143  0.00  0.00    +0.125 C 
ATOM      4  N   UNL     1      -2.787   2.128  -2.470  0.00  0.00    -0.297 N 
ATOM      5  C   UNL     1      -1.652   2.803  -1.826  0.00  0.00    +0.125 C 
ATOM      6  C   UNL     1      -0.381   1.988  -2.094  0.00  0.00    +0.128 C 
ATOM      7  C   UNL     1      -3.570   2.788  -3.347  0.00  0.00    +0.238 C 
ATOM      8  O   UNL     1      -3.398   3.974  -3.539  0.00  0.00    -0.274 OA
ENDROOT
BRANCH   1   9
ATOM      9  S   UNL     1       0.315  -0.232  -0.691  0.00  0.00    +0.061 S 
ATOM     10  O   UNL     1       0.189  -1.614  -0.996  0.00  0.00    -0.153 OA
ATOM     11  O   UNL     1       1.569   0.436  -0.684  0.00  0.00    -0.153 OA
BRANCH   9  16
ATOM     12  C   UNL     1      -2.083   0.550   4.790  0.00  0.00    +0.044 C 
ATOM     13  C   UNL     1      -1.484   0.355   3.421  0.00  0.00    -0.050 A 
ATOM     14  C   UNL     1      -1.873  -0.720   2.643  0.00  0.00    +0.005 A 
ATOM     15  C   UNL     1      -1.324  -0.899   1.388  0.00  0.00    +0.029 A 
ATOM     16  C   UNL     1      -0.386  -0.003   0.910  0.00  0.00    +0.105 A 
ATOM     17  C   UNL     1       0.007   1.069   1.690  0.00  0.00    +0.029 A 
ATOM     18  C   UNL     1      -0.546   1.250   2.944  0.00  0.00    +0.005 A 
ENDBRANCH   9  16
ENDBRANCH   1   9
BRANCH   7  19
ATOM     19  C   UNL     1      -4.658   2.054  -4.087  0.00  0.00    +0.180 C 
ATOM     20  C   UNL     1      -4.036   1.210  -5.202  0.00  0.00    +0.040 C 
BRANCH  19  21
ATOM     21  N   UNL     1      -5.591   3.022  -4.670  0.00  0.00    -0.196 N 
BRANCH  21  22
ATOM     22  C   UNL     1      -5.173   3.857  -5.709  0.00  0.00    +0.055 A 
ATOM     23  C   UNL     1      -4.544   5.062  -5.423  0.00  0.00    +0.028 A 
ATOM     24  C   UNL     1      -4.128   5.883  -6.452  0.00  0.00    -0.049 A 
ATOM     25  C   UNL     1      -4.346   5.511  -7.766  0.00  0.00    +0.004 A 
ATOM     26  C   UNL     1      -4.975   4.314  -8.054  0.00  0.00    +0.005 A 
ATOM     27  C   UNL     1      -5.389   3.486  -7.029  0.00  0.00    -0.028 A 
ATOM     28  C   UNL     1      -6.076   2.182  -7.344  0.00  0.00    +0.046 C 
ATOM     29  C   UNL     1      -3.443   7.189  -6.143  0.00  0.00    +0.044 C 
ENDBRANCH  21  22
BRANCH  21  30
ATOM     30  S   UNL     1      -7.141   3.126  -4.097  0.00  0.00    +0.043 S 
ATOM     31  O   UNL     1      -7.916   3.526  -5.218  0.00  0.00    -0.155 OA
ATOM     32  O   UNL     1      -7.377   1.877  -3.461  0.00  0.00    -0.155 OA
ATOM     33  C   UNL     1      -7.094   4.455  -2.863  0.00  0.00    +0.218 C 
ENDBRANCH  21  30
ENDBRANCH  19  21
ENDBRANCH   7  19
TORSDOF 6
