REMARK  Name = ZINC03338455
REMARK  8 active torsions:
REMARK  status: ('A' for Active; 'I' for Inactive)
REMARK    1  A    between atoms: C_1  and  S_2
REMARK    2  A    between atoms: S_2  and  C_3
REMARK    3  A    between atoms: C_6  and  C_9
REMARK    4  A    between atoms: C_10  and  C_11
REMARK    5  A    between atoms: C_11  and  O_13
REMARK    6  A    between atoms: O_13  and  C_14
REMARK    7  A    between atoms: C_14  and  C_15
REMARK    8  A    between atoms: N_17  and  C_18
REMARK                            x       y       z     vdW  Elec       q    Type
REMARK                         _______ _______ _______ _____ _____    ______ ____
ROOT
ATOM      1  C   UNL     1       3.677   5.920  -0.510  0.00  0.00    +0.328 C 
ENDROOT
BRANCH   1   2
ATOM      2  C   UNL     1       2.370   5.180  -0.393  0.00  0.00    +0.255 C 
ATOM      3  O   UNL     1       1.328   5.744  -0.653  0.00  0.00    -0.272 OA
ATOM      4  N   UNL     1       2.358   3.890  -0.001  0.00  0.00    -0.280 N 
ATOM      5  H   UNL     1       3.182   3.461   0.277  0.00  0.00    +0.155 HD
BRANCH   4   6
ATOM      6  C   UNL     1       1.156   3.171   0.007  0.00  0.00    +0.071 A 
ATOM      7  C   UNL     1       0.748   2.485  -1.130  0.00  0.00    +0.065 A 
ATOM      8  C   UNL     1      -0.439   1.776  -1.120  0.00  0.00    +0.042 A 
ATOM      9  C   UNL     1      -1.223   1.755   0.020  0.00  0.00    +0.044 A 
ATOM     10  C   UNL     1      -0.818   2.434   1.155  0.00  0.00    +0.042 A 
ATOM     11  C   UNL     1       0.368   3.144   1.151  0.00  0.00    +0.065 A 
ATOM     12 CL   UNL     1       0.874   4.000   2.575  0.00  0.00    -0.082 Cl
ATOM     13 CL   UNL     1      -2.717   0.870   0.027  0.00  0.00    -0.083 Cl
ATOM     14 CL   UNL     1       1.729   2.516  -2.562  0.00  0.00    -0.082 Cl
ENDBRANCH   4   6
ENDBRANCH   1   2
BRANCH   1  15
ATOM     15  O   UNL     1       3.429   7.260  -0.940  0.00  0.00    -0.452 OA
BRANCH  15  16
ATOM     16  C   UNL     1       4.503   8.062  -1.095  0.00  0.00    +0.332 C 
ATOM     17  O   UNL     1       5.619   7.635  -0.871  0.00  0.00    -0.246 OA
BRANCH  16  19
ATOM     18  C   UNL     1       5.406  10.207  -1.675  0.00  0.00    +0.015 C 
ATOM     19  C   UNL     1       4.330   9.403  -1.519  0.00  0.00    +0.092 C 
BRANCH  18  23
ATOM     20  C   UNL     1       4.889  14.211  -2.941  0.00  0.00    +0.008 A 
ATOM     21  C   UNL     1       6.169  13.723  -2.685  0.00  0.00    +0.015 A 
ATOM     22  C   UNL     1       6.340  12.431  -2.276  0.00  0.00    +0.009 A 
ATOM     23  C   UNL     1       5.226  11.596  -2.114  0.00  0.00    -0.025 A 
ATOM     24  C   UNL     1       3.942  12.089  -2.379  0.00  0.00    +0.009 A 
ATOM     25  C   UNL     1       3.779  13.384  -2.781  0.00  0.00    +0.015 A 
BRANCH  20  27
ATOM     26  C   UNL     1       2.879  16.047  -3.669  0.00  0.00    +0.090 C 
ATOM     27  S   UNL     1       4.674  15.879  -3.467  0.00  0.00    -0.129 S 
ENDBRANCH  20  27
ENDBRANCH  18  23
ENDBRANCH  16  19
ENDBRANCH  15  16
ENDBRANCH   1  15
TORSDOF 7
