REMARK  Name = ZINC63913328
REMARK  9 active torsions:
REMARK  status: ('A' for Active; 'I' for Inactive)
REMARK    1  A    between atoms: C_5  and  C_7
REMARK    2  A    between atoms: C_7  and  C_8
REMARK    3  A    between atoms: C_11  and  S_14
REMARK    4  A    between atoms: N_12  and  N_13
REMARK    5  A    between atoms: S_14  and  C_15
REMARK    6  A    between atoms: C_15  and  C_16
REMARK    7  A    between atoms: N_18  and  C_19
REMARK    8  A    between atoms: C_19  and  C_20
REMARK    9  A    between atoms: C_20  and  C_21
REMARK                            x       y       z     vdW  Elec       q    Type
REMARK                         _______ _______ _______ _____ _____    ______ ____
ROOT
ATOM      1  S   UNL     1       0.144  -3.927   4.881  0.00  0.00    -0.075 S 
ENDROOT
BRANCH   1   5
ATOM      2  C   UNL     1       1.372  -2.695   1.389  0.00  0.00    +0.155 A 
ATOM      3  N   UNL     1       2.491  -2.936   2.013  0.00  0.00    -0.132 NA
ATOM      4  N   UNL     1       2.251  -3.358   3.202  0.00  0.00    -0.121 NA
ATOM      5  C   UNL     1       0.955  -3.410   3.404  0.00  0.00    +0.209 A 
ATOM      6  N   UNL     1       0.354  -2.984   2.255  0.00  0.00    -0.228 N 
BRANCH   6   7
ATOM      7  N   UNL     1      -0.987  -2.871   2.018  0.00  0.00    -0.295 N 
ATOM      8  H   UNL     1      -1.360  -3.728   1.637  0.00  0.00    +0.163 HD
ATOM      9  H   UNL     1      -1.481  -2.602   2.855  0.00  0.00    +0.163 HD
ENDBRANCH   6   7
BRANCH   2  10
ATOM     10  C   UNL     1       1.228  -2.186  -0.022  0.00  0.00    +0.116 C 
BRANCH  10  15
ATOM     11  C   UNL     1      -0.017   1.378   0.010  0.00  0.00    +0.000 A 
ATOM     12  C   UNL     1       1.171   2.087   0.002  0.00  0.00    +0.003 A 
ATOM     13  C   UNL     1       2.377   1.414  -0.013  0.00  0.00    +0.038 A 
ATOM     14  C   UNL     1       2.397   0.029  -0.021  0.00  0.00    +0.127 A 
ATOM     15  C   UNL     1       1.208  -0.679  -0.013  0.00  0.00    -0.005 A 
ATOM     16  C   UNL     1       0.002  -0.004   0.002  0.00  0.00    +0.007 A 
ATOM     17  F   UNL     1       3.577  -0.630  -0.036  0.00  0.00    -0.205 F 
ENDBRANCH  10  15
ENDBRANCH   2  10
ENDBRANCH   1   5
BRANCH   1  18
ATOM     18  C   UNL     1       1.505  -4.349   6.003  0.00  0.00    +0.173 C 
BRANCH  18  19
ATOM     19  C   UNL     1       0.942  -4.813   7.322  0.00  0.00    +0.223 C 
ATOM     20  O   UNL     1      -0.258  -4.855   7.489  0.00  0.00    -0.275 OA
ATOM     21  N   UNL     1       1.773  -5.182   8.317  0.00  0.00    -0.314 N 
ATOM     22  H   UNL     1       2.734  -5.149   8.184  0.00  0.00    +0.149 HD
BRANCH  21  23
ATOM     23  C   UNL     1       1.226  -5.633   9.599  0.00  0.00    +0.108 C 
BRANCH  23  24
ATOM     24  C   UNL     1       2.374  -5.989  10.546  0.00  0.00    +0.052 C 
BRANCH  24  25
ATOM     25  C   UNL     1       1.812  -6.453  11.865  0.00  0.00    -0.040 C 
ATOM     26  C   UNL     1       1.585  -7.730  12.249  0.00  0.00    -0.001 A 
ATOM     27  C   UNL     1       1.786  -9.020  11.578  0.00  0.00    +0.010 A 
ATOM     28  C   UNL     1       1.457 -10.158  12.231  0.00  0.00    +0.001 A 
ATOM     29  C   UNL     1       0.929 -10.136  13.530  0.00  0.00    +0.002 A 
ATOM     30  C   UNL     1       0.716  -8.990  14.211  0.00  0.00    +0.026 A 
ATOM     31  C   UNL     1       1.027  -7.734  13.620  0.00  0.00    +0.043 A 
ATOM     32  N   UNL     1       0.913  -6.507  14.067  0.00  0.00    -0.380 N 
ATOM     33  C   UNL     1       1.392  -5.585  13.030  0.00  0.00    +0.144 C 
ATOM     34  H   UNL     1       0.573  -6.251  14.938  0.00  0.00    +0.160 HD
ENDBRANCH  24  25
ENDBRANCH  23  24
ENDBRANCH  21  23
ENDBRANCH  18  19
ENDBRANCH   1  18
TORSDOF 9
