REMARK  Name = ZINC19774985
REMARK  7 active torsions:
REMARK  status: ('A' for Active; 'I' for Inactive)
REMARK    1  A    between atoms: C_1  and  C_2
REMARK    2  A    between atoms: C_3  and  C_24
REMARK    3  A    between atoms: C_4  and  C_16
REMARK    4  A    between atoms: C_10  and  C_14
REMARK    5  A    between atoms: C_10  and  C_15
REMARK    6  A    between atoms: C_24  and  O_26
REMARK    7  A    between atoms: O_26  and  C_27
REMARK                            x       y       z     vdW  Elec       q    Type
REMARK                         _______ _______ _______ _____ _____    ______ ____
ROOT
ATOM      1  C   UNL     1      -1.071   3.056   3.163  0.00  0.00    +0.061 C 
ATOM      2  C   UNL     1      -0.300   2.600   1.951  0.00  0.00    +0.016 C 
ATOM      3  C   UNL     1      -0.749   1.562   1.226  0.00  0.00    +0.065 C 
ATOM      4  C   UNL     1      -0.013   1.086   0.008  0.00  0.00    +0.092 C 
ATOM      5  C   UNL     1       1.405   1.600  -0.003  0.00  0.00    +0.024 C 
ATOM      6  C   UNL     1       1.767   2.640   0.778  0.00  0.00    +0.016 C 
ATOM      7  N   UNL     1       0.852   3.246   1.597  0.00  0.00    -0.321 N 
ATOM      8  C   UNL     1       3.184   3.159   0.775  0.00  0.00    +0.058 C 
ATOM      9  C   UNL     1       3.808   2.939  -0.605  0.00  0.00    -0.023 C 
ATOM     10  C   UNL     1       3.761   1.442  -0.927  0.00  0.00    +0.086 C 
ATOM     11  C   UNL     1       2.334   0.970  -0.848  0.00  0.00    +0.162 C 
ATOM     12  O   UNL     1       1.980   0.026  -1.527  0.00  0.00    -0.292 OA
ATOM     13  C   UNL     1       3.015   3.717  -1.658  0.00  0.00    +0.011 C 
ATOM     14  C   UNL     1       5.260   3.421  -0.595  0.00  0.00    +0.011 C 
ATOM     15  H   UNL     1       1.050   4.262   1.969  0.00  0.00    +0.152 HD
ENDROOT
BRANCH   4  16
ATOM     16  C   UNL     1      -0.727   1.577  -1.225  0.00  0.00    -0.032 A 
ATOM     17  C   UNL     1      -1.234   0.671  -2.137  0.00  0.00    +0.007 A 
ATOM     18  C   UNL     1      -1.890   1.119  -3.268  0.00  0.00    +0.041 A 
ATOM     19  C   UNL     1      -2.040   2.478  -3.488  0.00  0.00    +0.158 A 
ATOM     20  C   UNL     1      -1.530   3.387  -2.573  0.00  0.00    +0.159 A 
ATOM     21  C   UNL     1      -0.879   2.934  -1.439  0.00  0.00    +0.045 A 
ATOM     22  F   UNL     1      -1.676   4.713  -2.786  0.00  0.00    -0.202 F 
ATOM     23  F   UNL     1      -2.680   2.917  -4.593  0.00  0.00    -0.202 F 
ENDBRANCH   4  16
BRANCH   3  24
ATOM     24  C   UNL     1      -1.939   0.905   1.617  0.00  0.00    +0.337 C 
ATOM     25  O   UNL     1      -2.546   1.281   2.603  0.00  0.00    -0.245 OA
BRANCH  24  26
ATOM     26  O   UNL     1      -2.402  -0.139   0.898  0.00  0.00    -0.465 OA
ATOM     27  C   UNL     1      -3.609  -0.755   1.352  0.00  0.00    +0.280 C 
ENDBRANCH  24  26
ENDBRANCH   3  24
TORSDOF 3
