REMARK  Name = ZINC00873390
REMARK  6 active torsions:
REMARK  status: ('A' for Active; 'I' for Inactive)
REMARK    1  A    between atoms: C_1  and  C_2
REMARK    2  A    between atoms: C_9  and  N_13
REMARK    3  A    between atoms: C_10  and  C_11
REMARK    4  A    between atoms: C_14  and  C_16
REMARK    5  A    between atoms: C_16  and  S_17
REMARK    6  A    between atoms: S_17  and  C_18
REMARK                            x       y       z     vdW  Elec       q    Type
REMARK                         _______ _______ _______ _____ _____    ______ ____
ROOT
ATOM      1  N   UNL     1      -1.170  10.460   0.070  0.00  0.00    -0.278 N 
ATOM      2  C   UNL     1      -0.031   9.738   0.056  0.00  0.00    +0.228 C 
ATOM      3  O   UNL     1       1.043  10.301   0.049  0.00  0.00    -0.275 OA
ATOM      4  H   UNL     1      -2.029  10.010   0.076  0.00  0.00    +0.155 HD
ENDROOT
BRANCH   1  12
ATOM      5  C   UNL     1      -0.414  18.246   0.202  0.00  0.00    +0.008 C 
ATOM      6  C   UNL     1      -0.938  16.836   0.483  0.00  0.00    -0.009 C 
ATOM      7  C   UNL     1      -2.202  16.581  -0.343  0.00  0.00    +0.008 C 
ATOM      8  C   UNL     1      -2.869  15.281   0.113  0.00  0.00    +0.037 C 
ATOM      9  C   UNL     1      -1.830  14.166   0.097  0.00  0.00    -0.018 A 
ATOM     10  C   UNL     1      -0.508  14.447   0.086  0.00  0.00    -0.004 A 
ATOM     11  S   UNL     1       0.289  12.866   0.070  0.00  0.00    -0.077 S 
ATOM     12  C   UNL     1      -1.112  11.847   0.077  0.00  0.00    +0.090 A 
ATOM     13  C   UNL     1      -2.162  12.752   0.087  0.00  0.00    +0.084 A 
ATOM     14  C   UNL     1       0.128  15.803   0.089  0.00  0.00    +0.046 C 
BRANCH  13  15
ATOM     15  C   UNL     1      -3.524  12.310   0.090  0.00  0.00    +0.102 C 
ATOM     16  N   UNL     1      -4.605  11.959   0.092  0.00  0.00    -0.191 NA
ENDBRANCH  13  15
ENDBRANCH   1  12
BRANCH   2  17
ATOM     17  C   UNL     1      -0.094   8.233   0.048  0.00  0.00    +0.172 C 
BRANCH  17  18
ATOM     18  S   UNL     1       1.586   7.559   0.028  0.00  0.00    -0.089 S 
BRANCH  18  19
ATOM     19  C   UNL     1       1.225   5.835   0.022  0.00  0.00    +0.136 A 
ATOM     20  N   UNL     1       0.053   5.238   0.030  0.00  0.00    -0.233 NA
ATOM     21  C   UNL     1      -0.075   3.893   0.024  0.00  0.00    +0.079 A 
ATOM     22  C   UNL     1      -1.265   3.130   0.032  0.00  0.00    +0.029 A 
ATOM     23  C   UNL     1      -1.219   1.760   0.017  0.00  0.00    +0.002 A 
ATOM     24  C   UNL     1      -0.013   1.076   0.008  0.00  0.00    +0.001 A 
ATOM     25  C   UNL     1       1.171   1.791   0.001  0.00  0.00    +0.017 A 
ATOM     26  C   UNL     1       1.135   3.162   0.008  0.00  0.00    +0.040 A 
ATOM     27  S   UNL     1       2.357   4.452   0.004  0.00  0.00    -0.061 S 
ENDBRANCH  18  19
ENDBRANCH  17  18
ENDBRANCH   2  17
TORSDOF 5
