REMARK  Name = ZINC20927294
REMARK  7 active torsions:
REMARK  status: ('A' for Active; 'I' for Inactive)
REMARK    1  A    between atoms: C_1  and  C_2
REMARK    2  A    between atoms: C_5  and  N_9
REMARK    3  A    between atoms: C_6  and  C_8
REMARK    4  A    between atoms: N_12  and  C_13
REMARK    5  A    between atoms: C_13  and  C_14
REMARK    6  A    between atoms: C_18  and  N_19
REMARK    7  A    between atoms: N_25  and  C_28
REMARK                            x       y       z     vdW  Elec       q    Type
REMARK                         _______ _______ _______ _____ _____    ______ ____
ROOT
ATOM      1  C   UNL     1      -6.051   2.191  -0.366  0.00  0.00    +0.004 A 
ATOM      2  C   UNL     1      -6.536   2.586  -1.610  0.00  0.00    -0.034 A 
ATOM      3  C   UNL     1      -7.477   3.571  -1.615  0.00  0.00    -0.021 A 
ATOM      4  S   UNL     1      -7.699   3.955   0.099  0.00  0.00    -0.077 S 
ATOM      5  C   UNL     1      -6.527   2.781   0.763  0.00  0.00    +0.089 A 
ATOM      6  C   UNL     1      -8.145   4.166  -2.812  0.00  0.00    -0.036 C 
ATOM      7  N   UNL     1      -7.380   3.771  -4.010  0.00  0.00    +0.381 N 
ATOM      8  C   UNL     1      -7.117   2.325  -4.003  0.00  0.00    -0.074 C 
ATOM      9  C   UNL     1      -6.077   1.981  -2.934  0.00  0.00    +0.018 C 
ATOM     10  C   UNL     1      -8.080   4.173  -5.238  0.00  0.00    -0.096 C 
ATOM     11  H   UNL     1      -6.412   4.293  -3.993  0.00  0.00    -0.082 HD
ENDROOT
BRANCH   5  12
ATOM     12  N   UNL     1      -6.186   2.534   2.098  0.00  0.00    -0.317 N 
ATOM     13  C   UNL     1      -7.067   2.384   3.130  0.00  0.00    +0.092 A 
ATOM     14  C   UNL     1      -6.361   2.158   4.257  0.00  0.00    +0.019 A 
ATOM     15  C   UNL     1      -4.995   2.178   3.912  0.00  0.00    +0.019 A 
ATOM     16  C   UNL     1      -4.916   2.410   2.585  0.00  0.00    +0.092 A 
ENDBRANCH   5  12
BRANCH   1  17
ATOM     17  C   UNL     1      -5.007   1.109  -0.271  0.00  0.00    +0.144 C 
BRANCH  17  21
ATOM     18  N   UNL     1      -1.358   1.453  -0.568  0.00  0.00    -0.269 N 
ATOM     19  C   UNL     1      -2.582   0.912  -0.403  0.00  0.00    +0.304 C 
ATOM     20  O   UNL     1      -2.697  -0.283  -0.213  0.00  0.00    -0.252 OA
ATOM     21  N   UNL     1      -3.677   1.697  -0.450  0.00  0.00    -0.295 N 
ATOM     22  H   UNL     1      -1.247   2.543  -0.663  0.00  0.00    +0.156 HD
ATOM     23  H   UNL     1      -3.572   2.778  -0.622  0.00  0.00    +0.151 HD
BRANCH  18  28
ATOM     24  C   UNL     1       3.212  -1.902  -0.783  0.00  0.00    +0.044 C 
ATOM     25  C   UNL     1       1.999  -1.010  -0.724  0.00  0.00    -0.050 A 
ATOM     26  C   UNL     1       0.890  -1.400   0.005  0.00  0.00    +0.005 A 
ATOM     27  C   UNL     1      -0.223  -0.585   0.060  0.00  0.00    +0.024 A 
ATOM     28  C   UNL     1      -0.229   0.628  -0.617  0.00  0.00    +0.038 A 
ATOM     29  C   UNL     1       0.886   1.017  -1.348  0.00  0.00    -0.029 A 
ATOM     30  C   UNL     1       1.996   0.197  -1.399  0.00  0.00    +0.008 A 
ATOM     31  C   UNL     1       0.884   2.332  -2.084  0.00  0.00    +0.045 C 
ENDBRANCH  18  28
ENDBRANCH  17  21
ENDBRANCH   1  17
TORSDOF 4
