REMARK  Name = ZINC42934174
REMARK  9 active torsions:
REMARK  status: ('A' for Active; 'I' for Inactive)
REMARK    1  A    between atoms: C_1  and  C_2
REMARK    2  A    between atoms: C_2  and  C_3
REMARK    3  A    between atoms: C_2  and  C_4
REMARK    4  A    between atoms: C_4  and  C_6
REMARK    5  A    between atoms: C_4  and  S_18
REMARK    6  A    between atoms: N_8  and  C_9
REMARK    7  A    between atoms: C_9  and  C_10
REMARK    8  A    between atoms: C_10  and  C_11
REMARK    9  A    between atoms: S_18  and  C_19
REMARK                            x       y       z     vdW  Elec       q    Type
REMARK                         _______ _______ _______ _____ _____    ______ ____
ROOT
ATOM      1  C   UNL     1       0.718  -0.497  -1.257  0.00  0.00    +0.142 C 
ENDROOT
BRANCH   1   2
ATOM      2  C   UNL     1      -0.011   0.002  -2.478  0.00  0.00    +0.227 C 
ATOM      3  O   UNL     1      -0.835  -0.702  -3.022  0.00  0.00    -0.275 OA
ATOM      4  N   UNL     1       0.254   1.230  -2.965  0.00  0.00    -0.314 N 
ATOM      5  H   UNL     1       0.913   1.793  -2.530  0.00  0.00    +0.149 HD
BRANCH   4   6
ATOM      6  C   UNL     1      -0.455   1.715  -4.152  0.00  0.00    +0.109 C 
BRANCH   6   7
ATOM      7  C   UNL     1       0.028   3.127  -4.493  0.00  0.00    +0.054 C 
BRANCH   7   8
ATOM      8  C   UNL     1      -0.701   3.626  -5.714  0.00  0.00    -0.046 A 
ATOM      9  C   UNL     1      -0.182   3.388  -6.973  0.00  0.00    +0.006 A 
ATOM     10  C   UNL     1      -0.850   3.845  -8.093  0.00  0.00    +0.038 A 
ATOM     11  C   UNL     1      -2.038   4.541  -7.954  0.00  0.00    +0.123 A 
ATOM     12  C   UNL     1      -2.557   4.779  -6.692  0.00  0.00    +0.038 A 
ATOM     13  C   UNL     1      -1.890   4.316  -5.574  0.00  0.00    +0.006 A 
ATOM     14  F   UNL     1      -2.692   4.989  -9.049  0.00  0.00    -0.205 F 
ENDBRANCH   7   8
ENDBRANCH   6   7
ENDBRANCH   4   6
ENDBRANCH   1   2
BRANCH   1  16
ATOM     15  C   UNL     1      -0.019   1.526   0.010  0.00  0.00    +0.009 C 
ATOM     16  C   UNL     1       0.002  -0.004   0.002  0.00  0.00    +0.005 C 
ATOM     17  C   UNL     1      -1.433  -0.534   0.013  0.00  0.00    +0.009 C 
ENDBRANCH   1  16
BRANCH   1  18
ATOM     18  S   UNL     1       0.743  -2.311  -1.267  0.00  0.00    -0.084 S 
BRANCH  18  19
ATOM     19  C   UNL     1       1.742  -2.732   0.122  0.00  0.00    +0.161 A 
ATOM     20  N   UNL     1       2.342  -1.940   0.991  0.00  0.00    -0.133 NA
ATOM     21  N   UNL     1       3.084  -2.485   2.014  0.00  0.00    -0.125 NA
ATOM     22  C   UNL     1       3.192  -3.794   2.121  0.00  0.00    +0.180 A 
ATOM     23  S   UNL     1       2.208  -4.343   0.735  0.00  0.00    -0.025 S 
ATOM     24  N   UNL     1       3.882  -4.546   3.065  0.00  0.00    -0.336 N 
ATOM     25  H   UNL     1       4.375  -4.103   3.773  0.00  0.00    +0.144 HD
ATOM     26  H   UNL     1       3.870  -5.515   3.015  0.00  0.00    +0.144 HD
ENDBRANCH  18  19
ENDBRANCH   1  18
TORSDOF 7
