REMARK  Name = ZINC02226543
REMARK  6 active torsions:
REMARK  status: ('A' for Active; 'I' for Inactive)
REMARK    1  A    between atoms: C_1  and  C_2
REMARK    2  A    between atoms: C_2  and  C_28
REMARK    3  A    between atoms: C_9  and  N_25
REMARK    4  A    between atoms: C_11  and  S_13
REMARK    5  A    between atoms: S_13  and  C_14
REMARK    6  A    between atoms: C_14  and  C_15
REMARK                            x       y       z     vdW  Elec       q    Type
REMARK                         _______ _______ _______ _____ _____    ______ ____
ROOT
ATOM      1  C   UNL     1       3.985  15.560   0.002  0.00  0.00    +0.041 C 
ATOM      2  C   UNL     1       2.519  15.910   0.266  0.00  0.00    +0.068 C 
ATOM      3  C   UNL     1       1.727  14.623   0.515  0.00  0.00    +0.071 C 
ATOM      4  C   UNL     1       1.636  13.861  -0.804  0.00  0.00    -0.020 A 
ATOM      5  C   UNL     1       1.881  14.506  -1.965  0.00  0.00    +0.021 A 
ATOM      6  S   UNL     1       1.674  13.281  -3.226  0.00  0.00    -0.071 S 
ATOM      7  C   UNL     1       1.256  11.901  -2.192  0.00  0.00    +0.115 A 
ATOM      8  C   UNL     1       1.292  12.442  -0.891  0.00  0.00    +0.051 A 
ATOM      9  C   UNL     1       0.989  11.532   0.160  0.00  0.00    +0.129 A 
ATOM     10  N   UNL     1       0.702  10.276  -0.135  0.00  0.00    -0.207 NA
ATOM     11  C   UNL     1       0.685   9.831  -1.386  0.00  0.00    +0.191 A 
ATOM     12  N   UNL     1       0.964  10.633  -2.405  0.00  0.00    -0.215 NA
ATOM     13  C   UNL     1       2.248  15.950  -2.115  0.00  0.00    +0.203 C 
ATOM     14  O   UNL     1       1.986  16.605  -0.864  0.00  0.00    -0.368 OA
ATOM     15  C   UNL     1       2.426  16.806   1.503  0.00  0.00    +0.041 C 
ENDROOT
BRANCH   9  16
ATOM     16  N   UNL     1       0.996  11.957   1.476  0.00  0.00    -0.343 N 
ATOM     17  H   UNL     1       0.939  11.308   2.196  0.00  0.00    +0.144 HD
ATOM     18  H   UNL     1       1.059  12.903   1.680  0.00  0.00    +0.144 HD
ENDBRANCH   9  16
BRANCH  11  19
ATOM     19  S   UNL     1       0.292   8.141  -1.697  0.00  0.00    -0.081 S 
BRANCH  19  20
ATOM     20  C   UNL     1       0.024   7.564  -0.003  0.00  0.00    +0.112 C 
BRANCH  20  21
ATOM     21  C   UNL     1      -0.334   6.100  -0.023  0.00  0.00    -0.037 A 
ATOM     22  C   UNL     1       0.677   5.144   0.056  0.00  0.00    +0.005 A 
ATOM     23  C   UNL     1       0.387   3.814   0.041  0.00  0.00    +0.009 A 
ATOM     24  C   UNL     1      -0.951   3.395  -0.055  0.00  0.00    -0.018 A 
ATOM     25  C   UNL     1      -1.289   2.031  -0.073  0.00  0.00    +0.008 A 
ATOM     26  C   UNL     1      -2.596   1.663  -0.168  0.00  0.00    +0.001 A 
ATOM     27  C   UNL     1      -3.607   2.619  -0.252  0.00  0.00    +0.001 A 
ATOM     28  C   UNL     1      -3.317   3.948  -0.231  0.00  0.00    +0.008 A 
ATOM     29  C   UNL     1      -1.979   4.367  -0.135  0.00  0.00    -0.018 A 
ATOM     30  C   UNL     1      -1.641   5.731  -0.116  0.00  0.00    +0.013 A 
ENDBRANCH  20  21
ENDBRANCH  19  20
ENDBRANCH  11  19
TORSDOF 4
