REMARK  Name = ZINC16886153
REMARK  10 active torsions:
REMARK  status: ('A' for Active; 'I' for Inactive)
REMARK    1  A    between atoms: C_1  and  C_2
REMARK    2  A    between atoms: C_5  and  C_9
REMARK    3  A    between atoms: C_6  and  C_8
REMARK    4  A    between atoms: C_9  and  C_10
REMARK    5  A    between atoms: C_11  and  C_29
REMARK    6  A    between atoms: C_13  and  C_28
REMARK    7  A    between atoms: N_14  and  C_17
REMARK    8  A    between atoms: C_17  and  C_18
REMARK    9  A    between atoms: C_30  and  C_31
REMARK   10  A    between atoms: C_36  and  O_37
REMARK                            x       y       z     vdW  Elec       q    Type
REMARK                         _______ _______ _______ _____ _____    ______ ____
ROOT
ATOM      1  C   UNL     1      -3.045   4.705   3.308  0.00  0.00    +0.047 A 
ATOM      2  C   UNL     1      -2.591   5.567   4.301  0.00  0.00    +0.074 A 
ATOM      3  N   UNL     1      -1.769   6.583   3.971  0.00  0.00    -0.234 NA
ATOM      4  C   UNL     1      -1.392   6.776   2.739  0.00  0.00    +0.110 A 
ATOM      5  N   UNL     1      -1.804   5.967   1.733  0.00  0.00    -0.292 N 
ATOM      6  C   UNL     1      -2.631   4.932   1.986  0.00  0.00    +0.258 A 
ATOM      7  O   UNL     1      -3.009   4.203   1.083  0.00  0.00    -0.267 OA
ATOM      8  C   UNL     1      -0.472   7.928   2.424  0.00  0.00    +0.086 C 
ENDROOT
BRANCH   2   9
ATOM      9  C   UNL     1      -3.003   5.371   5.696  0.00  0.00    +0.029 C 
ATOM     10  C   UNL     1      -2.560   6.209   6.653  0.00  0.00    +0.013 C 
BRANCH  10  11
ATOM     11  C   UNL     1      -2.973   6.013   8.051  0.00  0.00    +0.016 A 
ATOM     12  C   UNL     1      -3.826   4.958   8.391  0.00  0.00    +0.011 A 
ATOM     13  C   UNL     1      -4.208   4.780   9.703  0.00  0.00    +0.001 A 
ATOM     14  C   UNL     1      -3.752   5.642  10.687  0.00  0.00    +0.004 A 
ATOM     15  C   UNL     1      -2.910   6.689  10.365  0.00  0.00    +0.046 A 
ATOM     16  C   UNL     1      -2.510   6.880   9.052  0.00  0.00    +0.124 A 
BRANCH  16  17
ATOM     17  O   UNL     1      -1.678   7.905   8.736  0.00  0.00    -0.506 OA
ATOM     18  H   UNL     1      -2.135   8.727   8.512  0.00  0.00    +0.292 HD
ENDBRANCH  16  17
ENDBRANCH  10  11
ENDBRANCH   2   9
BRANCH   1  19
ATOM     19  C   UNL     1      -3.964   3.559   3.643  0.00  0.00    +0.078 C 
BRANCH  19  24
ATOM     20  C   UNL     1      -9.452   5.210   2.908  0.00  0.00    +0.044 C 
ATOM     21  C   UNL     1      -8.021   4.780   3.100  0.00  0.00    -0.050 A 
ATOM     22  C   UNL     1      -6.990   5.632   2.751  0.00  0.00    +0.003 A 
ATOM     23  C   UNL     1      -5.677   5.237   2.927  0.00  0.00    +0.004 A 
ATOM     24  C   UNL     1      -5.395   3.990   3.452  0.00  0.00    -0.040 A 
ATOM     25  C   UNL     1      -6.426   3.135   3.796  0.00  0.00    -0.047 A 
ATOM     26  C   UNL     1      -7.739   3.533   3.625  0.00  0.00    +0.007 A 
ATOM     27  C   UNL     1      -6.118   1.773   4.362  0.00  0.00    +0.044 C 
ENDBRANCH  19  24
ENDBRANCH   1  19
BRANCH   5  28
ATOM     28  C   UNL     1      -1.353   6.222   0.363  0.00  0.00    +0.162 C 
BRANCH  28  29
ATOM     29  C   UNL     1      -0.060   5.489   0.115  0.00  0.00    -0.020 A 
ATOM     30  C   UNL     1       0.541   4.801   1.124  0.00  0.00    +0.006 A 
ATOM     31  C   UNL     1       1.736   4.116   0.914  0.00  0.00    +0.001 A 
ATOM     32  C   UNL     1       2.338   4.116  -0.307  0.00  0.00    +0.008 A 
ATOM     33  C   UNL     1       1.748   4.815  -1.373  0.00  0.00    -0.018 A 
ATOM     34  C   UNL     1       0.532   5.511  -1.159  0.00  0.00    -0.013 A 
ATOM     35  C   UNL     1      -0.058   6.212  -2.225  0.00  0.00    +0.009 A 
ATOM     36  C   UNL     1       0.547   6.216  -3.445  0.00  0.00    +0.001 A 
ATOM     37  C   UNL     1       1.740   5.527  -3.656  0.00  0.00    +0.001 A 
ATOM     38  C   UNL     1       2.340   4.838  -2.648  0.00  0.00    +0.008 A 
ENDBRANCH  28  29
ENDBRANCH   5  28
TORSDOF 7
