REMARK  Name = ZINC57722583
REMARK  8 active torsions:
REMARK  status: ('A' for Active; 'I' for Inactive)
REMARK    1  A    between atoms: C_1  and  C_2
REMARK    2  A    between atoms: C_7  and  C_8
REMARK    3  A    between atoms: C_7  and  C_9
REMARK    4  A    between atoms: N_12  and  N_13
REMARK    5  A    between atoms: C_14  and  C_16
REMARK    6  A    between atoms: C_16  and  O_17
REMARK    7  A    between atoms: O_17  and  C_18
REMARK    8  A    between atoms: C_18  and  C_20
REMARK                            x       y       z     vdW  Elec       q    Type
REMARK                         _______ _______ _______ _____ _____    ______ ____
ROOT
ATOM      1  N   UNL     1       0.514   1.231  -2.587  0.00  0.00    -0.204 N 
ATOM      2  C   UNL     1       0.608   1.768  -3.819  0.00  0.00    +0.270 C 
ATOM      3  O   UNL     1       0.946   1.077  -4.758  0.00  0.00    -0.270 OA
ATOM      4  H   UNL     1       0.244   1.783  -1.836  0.00  0.00    +0.177 HD
ENDROOT
BRANCH   1  15
ATOM      5  C   UNL     1       0.812   1.639   0.070  0.00  0.00    +0.018 C 
ATOM      6  C   UNL     1       0.558   0.131   0.111  0.00  0.00    +0.013 C 
ATOM      7  C   UNL     1      -0.856  -0.307   0.602  0.00  0.00    +0.013 C 
ATOM      8  C   UNL     1      -0.678  -1.781   1.034  0.00  0.00    +0.005 C 
ATOM      9  C   UNL     1       0.825  -2.091   0.754  0.00  0.00    +0.001 C 
ATOM     10  C   UNL     1       1.472  -0.698   1.080  0.00  0.00    -0.021 C 
ATOM     11  C   UNL     1       1.272  -0.299   2.543  0.00  0.00    +0.012 C 
ATOM     12  C   UNL     1       2.946  -0.639   0.671  0.00  0.00    +0.012 C 
ATOM     13  C   UNL     1       0.930  -2.111  -0.802  0.00  0.00    +0.057 C 
ATOM     14  C   UNL     1       0.779  -0.620  -1.209  0.00  0.00    +0.044 C 
ATOM     15  N   UNL     1       0.806  -0.125  -2.389  0.00  0.00    -0.189 NA
ENDBRANCH   1  15
BRANCH   2  16
ATOM     16  C   UNL     1       0.294   3.226  -4.032  0.00  0.00    +0.329 C 
BRANCH  16  17
ATOM     17  O   UNL     1       0.466   3.554  -5.412  0.00  0.00    -0.452 OA
BRANCH  17  18
ATOM     18  C   UNL     1       0.223   4.830  -5.773  0.00  0.00    +0.342 C 
ATOM     19  O   UNL     1      -0.125   5.643  -4.937  0.00  0.00    -0.245 OA
BRANCH  18  20
ATOM     20  C   UNL     1       0.378   5.239  -7.173  0.00  0.00    +0.084 A 
ATOM     21  C   UNL     1       0.754   4.447  -8.219  0.00  0.00    +0.098 A 
ATOM     22  N   UNL     1       0.786   5.177  -9.359  0.00  0.00    -0.360 N 
ATOM     23  H   UNL     1       1.025   4.830 -10.232  0.00  0.00    +0.165 HD
ATOM     24  C   UNL     1       0.431   6.486  -9.103  0.00  0.00    +0.047 A 
ATOM     25  C   UNL     1       0.154   6.587  -7.730  0.00  0.00    +0.014 A 
ATOM     26  C   UNL     1      -0.239   7.806  -7.184  0.00  0.00    +0.011 A 
ATOM     27  C   UNL     1      -0.357   8.911  -7.999  0.00  0.00    +0.001 A 
ATOM     28  C   UNL     1      -0.088   8.813  -9.356  0.00  0.00    +0.002 A 
ATOM     29  C   UNL     1       0.309   7.614  -9.908  0.00  0.00    +0.026 A 
ENDBRANCH  18  20
ENDBRANCH  17  18
ENDBRANCH  16  17
ENDBRANCH   2  16
TORSDOF 5
