REMARK  Name = ZINC39678649
REMARK  9 active torsions:
REMARK  status: ('A' for Active; 'I' for Inactive)
REMARK    1  A    between atoms: C_1  and  C_2
REMARK    2  A    between atoms: C_2  and  C_3
REMARK    3  A    between atoms: C_2  and  O_4
REMARK    4  A    between atoms: O_4  and  C_5
REMARK    5  A    between atoms: C_5  and  C_7
REMARK    6  A    between atoms: C_7  and  N_8
REMARK    7  A    between atoms: C_9  and  C_11
REMARK    8  A    between atoms: C_22  and  C_24
REMARK    9  A    between atoms: C_29  and  C_30
REMARK                            x       y       z     vdW  Elec       q    Type
REMARK                         _______ _______ _______ _____ _____    ______ ____
ROOT
ATOM      1  C   UNL     1      -0.417  -2.143   6.661  0.00  0.00    +0.100 C 
ATOM      2  C   UNL     1      -1.690  -2.918   6.252  0.00  0.00    +0.121 C 
ATOM      3  N   UNL     1      -1.534  -4.251   6.881  0.00  0.00    -0.296 N 
ATOM      4  C   UNL     1      -0.944  -3.964   8.211  0.00  0.00    +0.115 C 
ATOM      5  C   UNL     1       0.067  -2.830   7.949  0.00  0.00    -0.004 C 
ATOM      6  C   UNL     1       0.062  -1.840   9.110  0.00  0.00    -0.010 C 
ATOM      7  C   UNL     1       0.603  -2.529  10.365  0.00  0.00    -0.082 C 
ATOM      8  N   UNL     1       1.966  -3.011  10.113  0.00  0.00    +0.379 N 
ATOM      9  C   UNL     1       1.948  -4.032   9.058  0.00  0.00    -0.082 C 
ATOM     10  C   UNL     1       1.465  -3.406   7.747  0.00  0.00    -0.010 C 
ATOM     11  C   UNL     1      -1.857  -5.452   6.363  0.00  0.00    +0.247 C 
ATOM     12  O   UNL     1      -1.763  -6.454   7.045  0.00  0.00    -0.270 OA
ATOM     13  H   UNL     1       2.546  -2.239   9.822  0.00  0.00    -0.086 HD
ATOM     14  H   UNL     1       2.342  -3.411  10.960  0.00  0.00    -0.086 HD
ENDROOT
BRANCH  11  15
ATOM     15  C   UNL     1      -2.327  -5.552   4.965  0.00  0.00    +0.049 A 
ATOM     16  C   UNL     1      -3.141  -4.554   4.426  0.00  0.00    +0.013 A 
ATOM     17  C   UNL     1      -3.575  -4.653   3.120  0.00  0.00    +0.001 A 
ATOM     18  C   UNL     1      -3.205  -5.738   2.345  0.00  0.00    +0.001 A 
ATOM     19  C   UNL     1      -2.398  -6.730   2.873  0.00  0.00    +0.013 A 
ATOM     20  C   UNL     1      -1.953  -6.641   4.176  0.00  0.00    +0.067 A 
BRANCH  20  21
ATOM     21  C   UNL     1      -1.069  -7.720   4.748  0.00  0.00    +0.418 C 
ATOM     22  F   UNL     1      -0.835  -8.696   3.773  0.00  0.00    -0.166 F 
ATOM     23  F   UNL     1       0.149  -7.160   5.150  0.00  0.00    -0.166 F 
ATOM     24  F   UNL     1      -1.701  -8.304   5.851  0.00  0.00    -0.166 F 
ENDBRANCH  20  21
ENDBRANCH  11  15
BRANCH   1  26
ATOM     25  N   UNL     1       1.551  -1.275   5.441  0.00  0.00    -0.305 N 
ATOM     26  C   UNL     1       0.631  -2.249   5.584  0.00  0.00    +0.219 C 
ATOM     27  O   UNL     1       0.647  -3.211   4.846  0.00  0.00    -0.275 OA
ATOM     28  H   UNL     1       1.538  -0.505   6.031  0.00  0.00    +0.149 HD
BRANCH  25  29
ATOM     29  C   UNL     1       2.570  -1.378   4.393  0.00  0.00    +0.224 C 
BRANCH  29  30
ATOM     30  C   UNL     1       3.469  -0.169   4.446  0.00  0.00    +0.325 C 
ATOM     31  O   UNL     1       3.278   0.690   5.274  0.00  0.00    -0.249 OA
BRANCH  30  32
ATOM     32  O   UNL     1       4.482  -0.047   3.574  0.00  0.00    -0.461 OA
BRANCH  32  34
ATOM     33  C   UNL     1       6.457   0.852   4.638  0.00  0.00    +0.052 C 
ATOM     34  C   UNL     1       5.294   1.124   3.682  0.00  0.00    +0.170 C 
ATOM     35  C   UNL     1       5.843   1.492   2.302  0.00  0.00    +0.052 C 
ENDBRANCH  32  34
ENDBRANCH  30  32
ENDBRANCH  29  30
ENDBRANCH  25  29
ENDBRANCH   1  26
TORSDOF 7
