REMARK  Name = ZINC35656488
REMARK  6 active torsions:
REMARK  status: ('A' for Active; 'I' for Inactive)
REMARK    1  A    between atoms: C_1  and  C_2
REMARK    2  A    between atoms: C_2  and  N_3
REMARK    3  A    between atoms: C_7  and  C_8
REMARK    4  A    between atoms: C_13  and  O_14
REMARK    5  A    between atoms: N_19  and  C_20
REMARK    6  A    between atoms: C_23  and  C_26
REMARK                            x       y       z     vdW  Elec       q    Type
REMARK                         _______ _______ _______ _____ _____    ______ ____
ROOT
ATOM      1  N   UNL     1       0.809  -0.124   1.264  0.00  0.00    -0.246 N 
ATOM      2  C   UNL     1       2.087  -0.455   1.185  0.00  0.00    +0.259 C 
ATOM      3  O   UNL     1       2.725  -0.289   0.162  0.00  0.00    -0.269 OA
ATOM      4  C   UNL     1       2.704  -1.033   2.393  0.00  0.00    +0.078 C 
ATOM      5  C   UNL     1       3.979  -1.456   2.592  0.00  0.00    +0.032 C 
ATOM      6  S   UNL     1       1.322  -1.027   3.526  0.00  0.00    -0.049 S 
ATOM      7  C   UNL     1       0.106  -0.313   2.431  0.00  0.00    +0.168 C 
ATOM      8  N   UNL     1      -1.158  -0.037   2.679  0.00  0.00    -0.225 NA
ENDROOT
BRANCH   5   9
ATOM      9  C   UNL     1       4.426  -1.831   3.939  0.00  0.00    +0.020 A 
ATOM     10  C   UNL     1       3.700  -1.419   5.063  0.00  0.00    +0.027 A 
ATOM     11  C   UNL     1       4.126  -1.775   6.324  0.00  0.00    +0.020 A 
ATOM     12  C   UNL     1       5.270  -2.541   6.486  0.00  0.00    +0.039 A 
ATOM     13  C   UNL     1       5.997  -2.956   5.385  0.00  0.00    +0.084 A 
ATOM     14  C   UNL     1       5.581  -2.612   4.108  0.00  0.00    +0.142 A 
ATOM     15 CL   UNL     1       7.428  -3.915   5.602  0.00  0.00    -0.080 Cl
ATOM     16 BR   UNL     1       3.145  -1.217   7.841  0.00  0.00    -0.050 Br
BRANCH  14  17
ATOM     17  O   UNL     1       6.291  -3.023   3.026  0.00  0.00    -0.505 OA
ATOM     18  H   UNL     1       6.986  -2.408   2.755  0.00  0.00    +0.292 HD
ENDBRANCH  14  17
ENDBRANCH   5   9
BRANCH   8  19
ATOM     19  C   UNL     1      -1.683  -0.297   3.908  0.00  0.00    +0.067 A 
ATOM     20  C   UNL     1      -1.413  -1.517   4.541  0.00  0.00    +0.028 A 
ATOM     21  C   UNL     1      -1.938  -1.778   5.771  0.00  0.00    +0.017 A 
ATOM     22  C   UNL     1      -2.750  -0.825   6.403  0.00  0.00    +0.063 A 
ATOM     23  C   UNL     1      -3.020   0.395   5.769  0.00  0.00    +0.017 A 
ATOM     24  C   UNL     1      -2.490   0.658   4.541  0.00  0.00    +0.028 A 
BRANCH  22  25
ATOM     25  C   UNL     1      -3.317  -1.107   7.729  0.00  0.00    +0.387 C 
ATOM     26  O   UNL     1      -3.080  -2.172   8.282  0.00  0.00    -0.241 OA
ATOM     27  O   UNL     1      -4.025  -0.275   8.280  0.00  0.00    -0.241 OA
ENDBRANCH  22  25
ENDBRANCH   8  19
BRANCH   1  29
ATOM     28  C   UNL     1       0.279   1.978   0.132  0.00  0.00    +0.025 C 
ATOM     29  C   UNL     1       0.137   0.455   0.098  0.00  0.00    +0.112 C 
ENDBRANCH   1  29
TORSDOF 5
