REMARK  Name = ZINC52063713
REMARK  4 active torsions:
REMARK  status: ('A' for Active; 'I' for Inactive)
REMARK    1  A    between atoms: C_4  and  N_6
REMARK    2  A    between atoms: N_9  and  C_12
REMARK    3  A    between atoms: C_12  and  C_13
REMARK    4  A    between atoms: C_13  and  C_18
REMARK                            x       y       z     vdW  Elec       q    Type
REMARK                         _______ _______ _______ _____ _____    ______ ____
ROOT
ATOM      1  N   UNL     1       0.808  -1.801  -1.326  0.00  0.00    +0.383 N 
ATOM      2  C   UNL     1       2.111  -1.835  -2.003  0.00  0.00    -0.063 C 
ATOM      3  C   UNL     1       1.941  -2.423  -3.406  0.00  0.00    +0.066 C 
ATOM      4  N   UNL     1       1.388  -3.780  -3.302  0.00  0.00    -0.305 NA
ATOM      5  C   UNL     1       0.095  -3.765  -2.603  0.00  0.00    +0.066 C 
ATOM      6  C   UNL     1       0.280  -3.166  -1.207  0.00  0.00    -0.063 C 
ATOM      7  H   UNL     1       0.166  -1.237  -1.861  0.00  0.00    -0.081 HD
ENDROOT
BRANCH   1  11
ATOM      8  C   UNL     1      -0.629   0.387   0.997  0.00  0.00    -0.002 C 
ATOM      9  C   UNL     1       0.797   0.990   1.033  0.00  0.00    -0.002 C 
ATOM     10  C   UNL     1       1.523   0.215  -0.095  0.00  0.00    -0.015 C 
ATOM     11  C   UNL     1       0.969  -1.220   0.014  0.00  0.00    -0.068 C 
ATOM     12  C   UNL     1      -0.400  -1.111   0.709  0.00  0.00    -0.015 C 
ENDBRANCH   1  11
BRANCH   4  13
ATOM     13  C   UNL     1       1.263  -4.401  -4.627  0.00  0.00    +0.098 C 
BRANCH  13  14
ATOM     14  C   UNL     1       2.636  -4.891  -5.093  0.00  0.00    +0.039 C 
ATOM     15  C   UNL     1       2.488  -5.739  -6.373  0.00  0.00    +0.015 C 
ATOM     16  C   UNL     1       3.542  -6.862  -6.208  0.00  0.00    +0.001 C 
ATOM     17  C   UNL     1       3.465  -7.184  -4.695  0.00  0.00    +0.001 C 
ATOM     18  C   UNL     1       3.257  -5.810  -4.026  0.00  0.00    +0.015 C 
BRANCH  14  19
ATOM     19  C   UNL     1       3.542  -3.716  -5.353  0.00  0.00    +0.231 C 
ATOM     20  O   UNL     1       4.625  -3.659  -4.821  0.00  0.00    -0.300 OA
ENDBRANCH  14  19
ENDBRANCH  13  14
ENDBRANCH   4  13
TORSDOF 4
