REMARK  Name = ZINC40824475
REMARK  6 active torsions:
REMARK  status: ('A' for Active; 'I' for Inactive)
REMARK    1  A    between atoms: C_1  and  C_2
REMARK    2  A    between atoms: C_6  and  C_7
REMARK    3  A    between atoms: C_18  and  C_20
REMARK    4  A    between atoms: N_26  and  N_27
REMARK    5  A    between atoms: N_27  and  C_28
REMARK    6  A    between atoms: C_28  and  N_30
REMARK                            x       y       z     vdW  Elec       q    Type
REMARK                         _______ _______ _______ _____ _____    ______ ____
ROOT
ATOM      1  C   UNL     1      -1.051   0.452  -0.167  0.00  0.00    +0.048 C 
ATOM      2  C   UNL     1       0.072  -0.539  -0.001  0.00  0.00    +0.009 A 
ATOM      3  C   UNL     1       0.738  -1.232  -1.019  0.00  0.00    +0.042 A 
ATOM      4  C   UNL     1       1.687  -2.029  -0.423  0.00  0.00    +0.115 A 
ATOM      5  O   UNL     1       1.617  -1.838   0.892  0.00  0.00    -0.454 OA
ATOM      6  C   UNL     1       0.649  -0.936   1.173  0.00  0.00    +0.193 A 
ATOM      7  C   UNL     1       2.606  -2.934  -1.204  0.00  0.00    +0.075 C 
ATOM      8  C   UNL     1       1.998  -3.210  -2.582  0.00  0.00    +0.014 C 
ATOM      9  C   UNL     1       1.645  -1.897  -3.289  0.00  0.00    +0.058 C 
ATOM     10  C   UNL     1       0.554  -1.202  -2.487  0.00  0.00    +0.070 C 
ATOM     11  N   UNL     1      -0.463  -0.625  -3.050  0.00  0.00    -0.185 NA
ENDROOT
BRANCH   6  12
ATOM     12  C   UNL     1       0.278  -0.467   2.512  0.00  0.00    +0.287 C 
ATOM     13  O   UNL     1       0.140   0.724   2.723  0.00  0.00    -0.266 OA
ATOM     14  N   UNL     1       0.089  -1.354   3.509  0.00  0.00    -0.262 N 
ATOM     15  C   UNL     1       0.126  -2.732   3.253  0.00  0.00    +0.040 A 
ATOM     16  C   UNL     1       0.075  -3.177   1.937  0.00  0.00    +0.026 A 
ATOM     17  C   UNL     1       0.113  -4.529   1.663  0.00  0.00    +0.040 A 
ATOM     18  C   UNL     1       0.203  -5.442   2.701  0.00  0.00    +0.124 A 
ATOM     19  C   UNL     1       0.254  -5.000   4.011  0.00  0.00    +0.043 A 
ATOM     20  C   UNL     1       0.213  -3.644   4.293  0.00  0.00    -0.023 A 
ATOM     21  C   UNL     1       0.259  -3.198   5.730  0.00  0.00    +0.039 C 
ATOM     22  C   UNL     1       0.709  -1.740   5.824  0.00  0.00    +0.027 C 
ATOM     23  C   UNL     1      -0.151  -0.893   4.883  0.00  0.00    +0.079 C 
ATOM     24  C   UNL     1       0.240   0.581   5.012  0.00  0.00    +0.028 C 
ATOM     25  F   UNL     1       0.243  -6.766   2.434  0.00  0.00    -0.205 F 
ENDBRANCH   6  12
BRANCH  11  26
ATOM     26  N   UNL     1      -0.586  -0.628  -4.445  0.00  0.00    -0.218 N 
ATOM     27  H   UNL     1       0.089  -1.061  -4.991  0.00  0.00    +0.176 HD
BRANCH  26  28
ATOM     28  C   UNL     1      -1.642  -0.028  -5.029  0.00  0.00    +0.147 C 
ATOM     29  S   UNL     1      -1.793  -0.031  -6.735  0.00  0.00    -0.017 S 
BRANCH  28  30
ATOM     30  N   UNL     1      -2.580   0.574  -4.271  0.00  0.00    -0.339 N 
ATOM     31  H   UNL     1      -2.495   0.575  -3.305  0.00  0.00    +0.144 HD
ATOM     32  H   UNL     1      -3.340   1.005  -4.692  0.00  0.00    +0.144 HD
ENDBRANCH  28  30
ENDBRANCH  26  28
ENDBRANCH  11  26
TORSDOF 4
