REMARK  Name = ZINC29183806
REMARK  8 active torsions:
REMARK  status: ('A' for Active; 'I' for Inactive)
REMARK    1  A    between atoms: C_1  and  C_2
REMARK    2  A    between atoms: N_5  and  S_11
REMARK    3  A    between atoms: C_7  and  C_10
REMARK    4  A    between atoms: S_11  and  C_14
REMARK    5  A    between atoms: C_14  and  C_15
REMARK    6  A    between atoms: C_15  and  N_16
REMARK    7  A    between atoms: C_17  and  C_19
REMARK    8  A    between atoms: C_23  and  N_24
REMARK                            x       y       z     vdW  Elec       q    Type
REMARK                         _______ _______ _______ _____ _____    ______ ____
ROOT
ATOM      1  N   UNL     1      -0.808  -4.616  -4.256  0.00  0.00    -0.310 N 
ATOM      2  C   UNL     1      -1.186  -5.428  -5.263  0.00  0.00    +0.247 C 
ATOM      3  O   UNL     1      -2.302  -5.911  -5.268  0.00  0.00    -0.270 OA
ATOM      4  H   UNL     1       0.082  -4.230  -4.251  0.00  0.00    +0.149 HD
ENDROOT
BRANCH   2   5
ATOM      5  C   UNL     1      -0.251  -5.728  -6.353  0.00  0.00    +0.071 A 
ATOM      6  C   UNL     1       0.649  -6.866  -6.285  0.00  0.00    -0.023 A 
ATOM      7  C   UNL     1       1.446  -7.005  -7.367  0.00  0.00    -0.004 A 
ATOM      8  S   UNL     1       1.000  -5.662  -8.428  0.00  0.00    -0.075 S 
ATOM      9  C   UNL     1      -0.194  -4.942  -7.491  0.00  0.00    +0.097 A 
ATOM     10  C   UNL     1       2.474  -8.070  -7.596  0.00  0.00    +0.043 C 
ATOM     11  C   UNL     1       2.755  -8.764  -6.255  0.00  0.00    +0.005 C 
ATOM     12  C   UNL     1       1.422  -9.117  -5.590  0.00  0.00    +0.005 C 
ATOM     13  C   UNL     1       0.720  -7.841  -5.120  0.00  0.00    +0.037 C 
BRANCH   9  14
ATOM     14  N   UNL     1      -0.949  -3.813  -7.790  0.00  0.00    -0.317 N 
ATOM     15  C   UNL     1      -1.907  -3.260  -6.986  0.00  0.00    +0.092 A 
ATOM     16  C   UNL     1      -2.414  -2.182  -7.618  0.00  0.00    +0.019 A 
ATOM     17  C   UNL     1      -1.748  -2.063  -8.855  0.00  0.00    +0.019 A 
ATOM     18  C   UNL     1      -0.854  -3.069  -8.932  0.00  0.00    +0.092 A 
ENDBRANCH   9  14
ENDBRANCH   2   5
BRANCH   1  19
ATOM     19  C   UNL     1      -1.741  -4.316  -3.167  0.00  0.00    +0.128 C 
BRANCH  19  20
ATOM     20  C   UNL     1      -1.069  -3.378  -2.162  0.00  0.00    +0.204 C 
BRANCH  20  21
ATOM     21  S   UNL     1      -2.225  -3.006  -0.815  0.00  0.00    +0.033 S 
ATOM     22  O   UNL     1      -2.466  -4.174  -0.041  0.00  0.00    -0.158 OA
ATOM     23  O   UNL     1      -3.306  -2.222  -1.300  0.00  0.00    -0.158 OA
BRANCH  21  27
ATOM     24  C   UNL     1      -0.019   1.526   0.010  0.00  0.00    +0.039 C 
ATOM     25  C   UNL     1       0.002  -0.004   0.002  0.00  0.00    +0.131 C 
ATOM     26  C   UNL     1      -1.436  -0.536   0.015  0.00  0.00    +0.140 C 
ATOM     27  N   UNL     1      -1.389  -1.995   0.196  0.00  0.00    -0.176 NA
ATOM     28  C   UNL     1      -0.578  -2.530   1.302  0.00  0.00    +0.140 C 
ATOM     29  C   UNL     1       0.818  -1.901   1.226  0.00  0.00    +0.131 C 
ATOM     30  O   UNL     1       0.691  -0.479   1.161  0.00  0.00    -0.371 OA
ATOM     31  C   UNL     1       1.621  -2.288   2.469  0.00  0.00    +0.039 C 
ENDBRANCH  21  27
ENDBRANCH  20  21
ENDBRANCH  19  20
ENDBRANCH   1  19
TORSDOF 6
