REMARK  Name = ZINC39491167
REMARK  15 active torsions:
REMARK  status: ('A' for Active; 'I' for Inactive)
REMARK    1  A    between atoms: C_1  and  C_2
REMARK    2  A    between atoms: C_2  and  C_3
REMARK    3  A    between atoms: C_2  and  C_4
REMARK    4  A    between atoms: C_4  and  N_5
REMARK    5  A    between atoms: N_5  and  C_6
REMARK    6  A    between atoms: C_6  and  C_7
REMARK    7  A    between atoms: N_9  and  C_20
REMARK    8  A    between atoms: C_13  and  C_16
REMARK    9  A    between atoms: C_16  and  O_18
REMARK   10  A    between atoms: O_18  and  C_19
REMARK   11  A    between atoms: C_20  and  C_21
REMARK   12  A    between atoms: C_21  and  C_23
REMARK   13  A    between atoms: C_21  and  S_30
REMARK   14  A    between atoms: C_23  and  C_24
REMARK   15  A    between atoms: S_30  and  C_33
REMARK                            x       y       z     vdW  Elec       q    Type
REMARK                         _______ _______ _______ _____ _____    ______ ____
ROOT
ATOM      1  C   UNL     1      -0.702  -0.645   5.015  0.00  0.00    -0.039 A 
ATOM      2  C   UNL     1      -0.459   0.487   5.692  0.00  0.00    +0.088 A 
ATOM      3  N   UNL     1      -1.170   0.494   6.862  0.00  0.00    -0.345 N 
ATOM      4  C   UNL     1      -1.907  -0.660   6.970  0.00  0.00    +0.049 A 
ATOM      5  C   UNL     1      -1.652  -1.424   5.814  0.00  0.00    +0.002 A 
ATOM      6  C   UNL     1      -2.274  -2.658   5.644  0.00  0.00    +0.025 A 
ATOM      7  C   UNL     1      -3.148  -3.124   6.622  0.00  0.00    +0.060 A 
ATOM      8  C   UNL     1      -3.396  -2.352   7.766  0.00  0.00    +0.017 A 
ATOM      9  C   UNL     1      -2.782  -1.147   7.939  0.00  0.00    +0.027 A 
ENDROOT
BRANCH   7  10
ATOM     10  C   UNL     1      -3.815  -4.429   6.455  0.00  0.00    +0.339 C 
ATOM     11  O   UNL     1      -3.601  -5.098   5.463  0.00  0.00    -0.245 OA
BRANCH  10  12
ATOM     12  O   UNL     1      -4.661  -4.880   7.402  0.00  0.00    -0.464 OA
ATOM     13  C   UNL     1      -5.271  -6.152   7.174  0.00  0.00    +0.280 C 
ENDBRANCH  10  12
ENDBRANCH   7  10
BRANCH   1  14
ATOM     14  C   UNL     1      -0.116  -1.037   3.683  0.00  0.00    -0.045 C 
BRANCH  14  15
ATOM     15  N   UNL     1      -1.089  -0.758   2.618  0.00  0.00    +0.382 N 
ATOM     16  H   UNL     1      -1.308   0.227   2.612  0.00  0.00    -0.085 HD
ATOM     17  H   UNL     1      -1.931  -1.289   2.784  0.00  0.00    -0.085 HD
BRANCH  15  18
ATOM     18  C   UNL     1      -0.517  -1.140   1.320  0.00  0.00    -0.079 C 
BRANCH  18  20
ATOM     19  C   UNL     1      -1.768   0.659   0.120  0.00  0.00    +0.005 C 
ATOM     20  C   UNL     1      -1.531  -0.850   0.211  0.00  0.00    -0.034 C 
ATOM     21  C   UNL     1      -0.986  -1.362  -1.124  0.00  0.00    +0.005 C 
ENDBRANCH  18  20
ENDBRANCH  15  18
ENDBRANCH  14  15
ENDBRANCH   1  14
BRANCH   3  22
ATOM     22  C   UNL     1      -1.148   1.573   7.853  0.00  0.00    +0.148 C 
BRANCH  22  23
ATOM     23  C   UNL     1      -0.321   1.137   9.063  0.00  0.00    +0.160 C 
BRANCH  23  24
ATOM     24  S   UNL     1       1.421   0.979   8.580  0.00  0.00    +0.002 S 
ATOM     25  O   UNL     1       1.544   1.040   7.166  0.00  0.00    -0.169 OA
ATOM     26  O   UNL     1       2.236   1.792   9.414  0.00  0.00    -0.169 OA
BRANCH  24  27
ATOM     27  C   UNL     1       1.859  -0.675   8.999  0.00  0.00    +0.089 A 
ATOM     28  C   UNL     1       2.276  -0.976  10.282  0.00  0.00    +0.027 A 
ATOM     29  C   UNL     1       2.620  -2.275  10.610  0.00  0.00    +0.002 A 
ATOM     30  C   UNL     1       2.545  -3.272   9.656  0.00  0.00    +0.000 A 
ATOM     31  C   UNL     1       2.126  -2.971   8.373  0.00  0.00    +0.002 A 
ATOM     32  C   UNL     1       1.779  -1.674   8.046  0.00  0.00    +0.027 A 
ENDBRANCH  24  27
ENDBRANCH  23  24
BRANCH  23  33
ATOM     33  C   UNL     1      -0.449   2.183  10.172  0.00  0.00    +0.063 C 
BRANCH  33  34
ATOM     34  C   UNL     1       0.193   1.661  11.432  0.00  0.00    -0.045 A 
ATOM     35  C   UNL     1      -0.459   0.714  12.199  0.00  0.00    +0.004 A 
ATOM     36  C   UNL     1       0.130   0.236  13.355  0.00  0.00    +0.000 A 
ATOM     37  C   UNL     1       1.372   0.704  13.742  0.00  0.00    +0.000 A 
ATOM     38  C   UNL     1       2.025   1.650  12.974  0.00  0.00    +0.000 A 
ATOM     39  C   UNL     1       1.437   2.125  11.817  0.00  0.00    +0.004 A 
ENDBRANCH  33  34
ENDBRANCH  23  33
ENDBRANCH  22  23
ENDBRANCH   3  22
TORSDOF 12
