REMARK  Name = ZINC04335481
REMARK  7 active torsions:
REMARK  status: ('A' for Active; 'I' for Inactive)
REMARK    1  A    between atoms: C_3  and  C_6
REMARK    2  A    between atoms: C_6  and  C_8
REMARK    3  A    between atoms: C_9  and  N_25
REMARK    4  A    between atoms: C_15  and  S_16
REMARK    5  A    between atoms: S_16  and  C_17
REMARK    6  A    between atoms: C_17  and  C_18
REMARK    7  A    between atoms: C_18  and  N_19
REMARK                            x       y       z     vdW  Elec       q    Type
REMARK                         _______ _______ _______ _____ _____    ______ ____
ROOT
ATOM      1  C   UNL     1       4.752   0.699  -0.040  0.00  0.00    +0.083 A 
ATOM      2  C   UNL     1       6.116   0.897  -0.047  0.00  0.00    +0.054 A 
ATOM      3  C   UNL     1       6.991  -0.278  -0.062  0.00  0.00    +0.051 A 
ATOM      4  C   UNL     1       6.321  -1.519  -0.068  0.00  0.00    +0.121 A 
ATOM      5  S   UNL     1       4.590  -1.073  -0.046  0.00  0.00    -0.063 S 
ATOM      6  N   UNL     1       7.053  -2.614  -0.081  0.00  0.00    -0.202 NA
ATOM      7  S   UNL     1       8.634  -2.087  -0.087  0.00  0.00    +0.020 S 
ATOM      8  C   UNL     1       8.406  -0.432  -0.072  0.00  0.00    +0.075 A 
ENDROOT
BRANCH   2   9
ATOM      9  N   UNL     1       6.647   2.177  -0.041  0.00  0.00    -0.356 N 
ATOM     10  H   UNL     1       6.057   2.946  -0.031  0.00  0.00    +0.142 HD
ATOM     11  H   UNL     1       7.609   2.303  -0.046  0.00  0.00    +0.142 HD
ENDBRANCH   2   9
BRANCH   1  12
ATOM     12  C   UNL     1       3.728   1.670  -0.025  0.00  0.00    +0.208 C 
ATOM     13  O   UNL     1       4.013   2.857  -0.022  0.00  0.00    -0.285 OA
BRANCH  12  16
ATOM     14  C   UNL     1      -0.016   1.351   0.009  0.00  0.00    +0.008 A 
ATOM     15  C   UNL     1       1.177   2.035   0.002  0.00  0.00    +0.019 A 
ATOM     16  C   UNL     1       2.320   1.252  -0.013  0.00  0.00    +0.060 A 
ATOM     17  S   UNL     1       1.636  -0.394  -0.016  0.00  0.00    -0.093 S 
ATOM     18  C   UNL     1       0.002  -0.004   0.002  0.00  0.00    +0.046 A 
ENDBRANCH  12  16
ENDBRANCH   1  12
BRANCH   8  19
ATOM     19  S   UNL     1       9.634   0.832  -0.070  0.00  0.00    -0.118 S 
BRANCH  19  20
ATOM     20  C   UNL     1      11.202  -0.081  -0.088  0.00  0.00    +0.056 C 
BRANCH  20  21
ATOM     21  C   UNL     1      12.369   0.910  -0.087  0.00  0.00    -0.068 C 
BRANCH  21  22
ATOM     22  N   UNL     1      13.638   0.171  -0.102  0.00  0.00    +0.380 N 
ATOM     23  C   UNL     1      13.770  -0.597   1.142  0.00  0.00    -0.079 C 
ATOM     24  C   UNL     1      15.052  -1.431   1.098  0.00  0.00    -0.019 C 
ATOM     25  C   UNL     1      16.256  -0.498   0.943  0.00  0.00    -0.004 C 
ATOM     26  C   UNL     1      16.072   0.351  -0.319  0.00  0.00    -0.019 C 
ATOM     27  C   UNL     1      14.753   1.119  -0.222  0.00  0.00    -0.079 C 
ATOM     28  H   UNL     1      13.650  -0.461  -0.888  0.00  0.00    -0.082 HD
ENDBRANCH  21  22
ENDBRANCH  20  21
ENDBRANCH  19  20
ENDBRANCH   8  19
TORSDOF 7
