REMARK  Name = ZINC39545851
REMARK  8 active torsions:
REMARK  status: ('A' for Active; 'I' for Inactive)
REMARK    1  A    between atoms: C_1  and  C_2
REMARK    2  A    between atoms: C_2  and  C_3
REMARK    3  A    between atoms: C_2  and  S_4
REMARK    4  A    between atoms: S_4  and  N_7
REMARK    5  A    between atoms: N_7  and  S_25
REMARK    6  A    between atoms: C_8  and  C_10
REMARK    7  A    between atoms: S_25  and  O_28
REMARK    8  A    between atoms: O_28  and  C_29
REMARK                            x       y       z     vdW  Elec       q    Type
REMARK                         _______ _______ _______ _____ _____    ______ ____
ROOT
ATOM      1  N   UNL     1      -2.554  -0.391  -1.265  0.00  0.00    -0.008 N 
ATOM      2  C   UNL     1      -2.500  -1.317  -2.243  0.00  0.00    +0.277 C 
ATOM      3  O   UNL     1      -2.949  -1.066  -3.341  0.00  0.00    -0.270 OA
ENDROOT
BRANCH   2   4
ATOM      4  C   UNL     1      -1.883  -2.665  -1.972  0.00  0.00    +0.154 C 
ATOM      5  C   UNL     1      -0.370  -2.523  -1.713  0.00  0.00    +0.100 C 
ATOM      6  C   UNL     1       0.269  -3.360  -2.798  0.00  0.00    +0.137 C 
ATOM      7  C   UNL     1      -0.664  -3.883  -3.551  0.00  0.00    +0.107 C 
ATOM      8  N   UNL     1      -0.460  -4.754  -4.644  0.00  0.00    -0.302 N 
ATOM      9  C   UNL     1      -1.428  -5.763  -4.784  0.00  0.00    +0.037 A 
ATOM     10  C   UNL     1      -1.267  -6.744  -5.751  0.00  0.00    +0.023 A 
ATOM     11  C   UNL     1      -2.224  -7.730  -5.895  0.00  0.00    +0.002 A 
ATOM     12  C   UNL     1      -3.337  -7.733  -5.074  0.00  0.00    +0.000 A 
ATOM     13  C   UNL     1      -3.495  -6.758  -4.108  0.00  0.00    +0.007 A 
ATOM     14  C   UNL     1      -2.539  -5.768  -3.952  0.00  0.00    -0.010 A 
ATOM     15  C   UNL     1      -2.727  -4.735  -2.872  0.00  0.00    +0.124 C 
ATOM     16  N   UNL     1      -1.966  -3.520  -3.167  0.00  0.00    -0.368 NA
ATOM     17  F   UNL     1       1.598  -3.540  -2.963  0.00  0.00    -0.207 F 
ATOM     18  H   UNL     1       0.292  -4.664  -5.251  0.00  0.00    +0.153 HD
ATOM     19  H   UNL     1      -2.414  -3.015  -3.916  0.00  0.00    +0.129 HD
ENDBRANCH   2   4
BRANCH   1  20
ATOM     20  S   UNL     1      -2.051  -0.773   0.265  0.00  0.00    +0.071 S 
ATOM     21  O   UNL     1      -2.126  -2.191   0.329  0.00  0.00    -0.153 OA
ATOM     22  O   UNL     1      -2.848   0.033   1.121  0.00  0.00    -0.153 OA
BRANCH  20  24
ATOM     23  C   UNL     1      -0.259   1.293   0.317  0.00  0.00    +0.033 C 
ATOM     24  C   UNL     1      -0.320  -0.235   0.335  0.00  0.00    +0.147 C 
ATOM     25  C   UNL     1       0.326  -0.757   1.620  0.00  0.00    +0.033 C 
ENDBRANCH  20  24
ENDBRANCH   1  20
BRANCH   1  26
ATOM     26  S   UNL     1      -3.124   1.129  -1.594  0.00  0.00    +0.231 S 
ATOM     27  O   UNL     1      -4.072   0.988  -2.643  0.00  0.00    -0.114 OA
ATOM     28  O   UNL     1      -3.452   1.719  -0.344  0.00  0.00    -0.114 OA
BRANCH  26  29
ATOM     29  O   UNL     1      -1.962   1.931  -2.163  0.00  0.00    -0.330 OA
BRANCH  29  30
ATOM     30  C   UNL     1      -1.647   1.615  -3.447  0.00  0.00    +0.158 A 
ATOM     31  C   UNL     1      -0.722   0.615  -3.709  0.00  0.00    +0.048 A 
ATOM     32  C   UNL     1      -0.404   0.295  -5.014  0.00  0.00    +0.004 A 
ATOM     33  C   UNL     1      -1.007   0.970  -6.060  0.00  0.00    +0.000 A 
ATOM     34  C   UNL     1      -1.929   1.967  -5.801  0.00  0.00    +0.004 A 
ATOM     35  C   UNL     1      -2.255   2.287  -4.497  0.00  0.00    +0.048 A 
ENDBRANCH  29  30
ENDBRANCH  26  29
ENDBRANCH   1  26
TORSDOF 6
