REMARK  Name = ZINC03052547
REMARK  8 active torsions:
REMARK  status: ('A' for Active; 'I' for Inactive)
REMARK    1  A    between atoms: C_4  and  N_7
REMARK    2  A    between atoms: N_7  and  C_8
REMARK    3  A    between atoms: C_8  and  S_21
REMARK    4  A    between atoms: C_9  and  C_10
REMARK    5  A    between atoms: C_9  and  C_12
REMARK    6  A    between atoms: N_14  and  C_15
REMARK    7  A    between atoms: S_21  and  C_22
REMARK    8  A    between atoms: C_22  and  C_23
REMARK                            x       y       z     vdW  Elec       q    Type
REMARK                         _______ _______ _______ _____ _____    ______ ____
ROOT
ATOM      1  C   UNL     1       3.538  -2.023  -0.032  0.00  0.00    +0.088 C 
ATOM      2  C   UNL     1       4.709  -2.786  -0.001  0.00  0.00    +0.141 C 
ENDROOT
BRANCH   2   3
ATOM      3  C   UNL     1       5.967  -2.148   0.149  0.00  0.00    +0.261 C 
ATOM      4  O   UNL     1       6.021  -0.948   0.349  0.00  0.00    -0.269 OA
ATOM      5  N   UNL     1       7.103  -2.870   0.071  0.00  0.00    -0.281 N 
ATOM      6  H   UNL     1       7.064  -3.810  -0.162  0.00  0.00    +0.155 HD
BRANCH   5   7
ATOM      7  C   UNL     1       8.336  -2.262   0.327  0.00  0.00    +0.034 A 
ATOM      8  C   UNL     1       9.466  -2.657  -0.379  0.00  0.00    +0.023 A 
ATOM      9  C   UNL     1      10.682  -2.055  -0.125  0.00  0.00    +0.002 A 
ATOM     10  C   UNL     1      10.777  -1.060   0.832  0.00  0.00    +0.000 A 
ATOM     11  C   UNL     1       9.654  -0.666   1.537  0.00  0.00    +0.002 A 
ATOM     12  C   UNL     1       8.434  -1.260   1.283  0.00  0.00    +0.023 A 
ENDBRANCH   5   7
ENDBRANCH   2   3
BRANCH   1  13
ATOM     13  N   UNL     1       3.610  -0.659  -0.032  0.00  0.00    -0.308 N 
ATOM     14  H   UNL     1       3.555  -0.170   0.804  0.00  0.00    +0.153 HD
BRANCH  13  18
ATOM     15  C   UNL     1       4.073   1.403  -3.621  0.00  0.00    +0.000 A 
ATOM     16  C   UNL     1       3.889   2.102  -2.443  0.00  0.00    +0.002 A 
ATOM     17  C   UNL     1       3.735   1.422  -1.251  0.00  0.00    +0.023 A 
ATOM     18  C   UNL     1       3.765   0.033  -1.237  0.00  0.00    +0.032 A 
ATOM     19  C   UNL     1       3.950  -0.666  -2.422  0.00  0.00    +0.023 A 
ATOM     20  C   UNL     1       4.104   0.020  -3.611  0.00  0.00    +0.002 A 
ENDBRANCH  13  18
ENDBRANCH   1  13
BRANCH   2  21
ATOM     21  C   UNL     1       4.639  -4.211  -0.120  0.00  0.00    +0.107 C 
ATOM     22  N   UNL     1       4.584  -5.342  -0.215  0.00  0.00    -0.191 NA
ENDBRANCH   2  21
BRANCH   1  23
ATOM     23  S   UNL     1       1.968  -2.822  -0.071  0.00  0.00    -0.104 S 
BRANCH  23  24
ATOM     24  C   UNL     1       0.778  -1.458   0.052  0.00  0.00    +0.113 C 
BRANCH  24  25
ATOM     25  C   UNL     1      -0.618  -2.016   0.153  0.00  0.00    -0.002 A 
ATOM     26  C   UNL     1      -1.352  -2.254  -0.993  0.00  0.00    +0.007 A 
ATOM     27  C   UNL     1      -2.633  -2.766  -0.901  0.00  0.00    +0.000 A 
ATOM     28  C   UNL     1      -3.181  -3.041   0.339  0.00  0.00    +0.003 A 
ATOM     29  C   UNL     1      -2.448  -2.805   1.486  0.00  0.00    +0.038 A 
ATOM     30  C   UNL     1      -1.163  -2.297   1.395  0.00  0.00    +0.127 A 
ATOM     31  F   UNL     1      -0.444  -2.070   2.516  0.00  0.00    -0.205 F 
ENDBRANCH  24  25
ENDBRANCH  23  24
ENDBRANCH   1  23
TORSDOF 8
