REMARK  Name = ZINC09968983
REMARK  7 active torsions:
REMARK  status: ('A' for Active; 'I' for Inactive)
REMARK    1  A    between atoms: C_5  and  C_7
REMARK    2  A    between atoms: C_7  and  N_8
REMARK    3  A    between atoms: C_15  and  C_20
REMARK    4  A    between atoms: C_16  and  C_17
REMARK    5  A    between atoms: C_20  and  N_21
REMARK    6  A    between atoms: N_21  and  C_22
REMARK    7  A    between atoms: C_22  and  C_23
REMARK                            x       y       z     vdW  Elec       q    Type
REMARK                         _______ _______ _______ _____ _____    ______ ____
ROOT
ATOM      1  N   UNL     1       1.489  -2.679   1.333  0.00  0.00    -0.330 N 
ATOM      2  C   UNL     1       2.729  -2.835   1.903  0.00  0.00    +0.050 A 
ATOM      3  C   UNL     1       4.024  -2.606   1.444  0.00  0.00    +0.026 A 
ATOM      4  C   UNL     1       5.097  -2.864   2.267  0.00  0.00    +0.002 A 
ATOM      5  C   UNL     1       4.903  -3.352   3.553  0.00  0.00    +0.001 A 
ATOM      6  C   UNL     1       3.644  -3.584   4.026  0.00  0.00    +0.010 A 
ATOM      7  C   UNL     1       2.535  -3.329   3.208  0.00  0.00    +0.002 A 
ATOM      8  C   UNL     1       1.139  -3.462   3.397  0.00  0.00    -0.025 A 
ATOM      9  C   UNL     1       0.526  -3.058   2.251  0.00  0.00    +0.134 A 
ENDROOT
BRANCH   9  10
ATOM     10  C   UNL     1      -0.922  -3.030   2.025  0.00  0.00    +0.403 C 
ATOM     11  O   UNL     1      -1.367  -2.649   0.950  0.00  0.00    -0.239 OA
ATOM     12  O   UNL     1      -1.687  -3.389   2.911  0.00  0.00    -0.239 OA
ENDBRANCH   9  10
BRANCH   1  13
ATOM     13  C   UNL     1       1.229  -2.186  -0.022  0.00  0.00    +0.159 C 
BRANCH  13  18
ATOM     14  C   UNL     1       0.097   1.363   0.591  0.00  0.00    +0.000 A 
ATOM     15  C   UNL     1       1.124   2.085   0.011  0.00  0.00    +0.001 A 
ATOM     16  C   UNL     1       2.185   1.425  -0.580  0.00  0.00    +0.020 A 
ATOM     17  C   UNL     1       2.219   0.042  -0.591  0.00  0.00    +0.046 A 
ATOM     18  C   UNL     1       1.192  -0.679  -0.010  0.00  0.00    -0.009 A 
ATOM     19  C   UNL     1       0.131  -0.018   0.581  0.00  0.00    +0.007 A 
ATOM     20 CL   UNL     1       3.551  -0.788  -1.333  0.00  0.00    -0.083 Cl
ENDBRANCH  13  18
ENDBRANCH   1  13
BRANCH   8  21
ATOM     21  C   UNL     1       0.454  -3.957   4.644  0.00  0.00    -0.043 C 
BRANCH  21  22
ATOM     22  N   UNL     1       0.173  -2.821   5.532  0.00  0.00    +0.384 N 
ATOM     23  H   UNL     1       1.039  -2.367   5.782  0.00  0.00    -0.085 HD
ATOM     24  H   UNL     1      -0.427  -2.163   5.057  0.00  0.00    -0.085 HD
BRANCH  22  25
ATOM     25  C   UNL     1      -0.495  -3.303   6.748  0.00  0.00    -0.046 C 
BRANCH  25  26
ATOM     26  C   UNL     1      -0.783  -2.138   7.659  0.00  0.00    -0.061 A 
ATOM     27  C   UNL     1       0.153  -1.749   8.599  0.00  0.00    +0.005 A 
ATOM     28  C   UNL     1      -0.107  -0.680   9.436  0.00  0.00    +0.050 A 
ATOM     29  C   UNL     1      -1.307   0.004   9.336  0.00  0.00    +0.166 A 
ATOM     30  C   UNL     1      -2.251  -0.387   8.389  0.00  0.00    +0.166 A 
ATOM     31  C   UNL     1      -1.981  -1.456   7.549  0.00  0.00    +0.051 A 
ATOM     32  O   UNL     1      -3.336   0.435   8.488  0.00  0.00    -0.453 OA
ATOM     33  C   UNL     1      -3.219   1.072   9.774  0.00  0.00    +0.466 C 
ATOM     34  O   UNL     1      -1.801   1.072  10.028  0.00  0.00    -0.453 OA
ENDBRANCH  25  26
ENDBRANCH  22  25
ENDBRANCH  21  22
ENDBRANCH   8  21
TORSDOF 7
