REMARK  Name = ZINC44352210
REMARK  3 active torsions:
REMARK  status: ('A' for Active; 'I' for Inactive)
REMARK    1  A    between atoms: C_1  and  C_2
REMARK    2  A    between atoms: C_7  and  C_8
REMARK    3  A    between atoms: C_14  and  C_16
REMARK                            x       y       z     vdW  Elec       q    Type
REMARK                         _______ _______ _______ _____ _____    ______ ____
ROOT
ATOM      1  C   UNL     1       0.025   0.045   2.504  0.00  0.00    +0.107 C 
ATOM      2  C   UNL     1      -1.422   0.388   2.915  0.00  0.00    +0.029 C 
ATOM      3  C   UNL     1      -1.405   0.180   4.453  0.00  0.00    +0.021 C 
ATOM      4  C   UNL     1      -0.442  -1.024   4.593  0.00  0.00    +0.109 C 
ATOM      5  N   UNL     1       0.593  -0.803   3.562  0.00  0.00    -0.288 N 
ATOM      6  C   UNL     1       1.847  -1.296   3.585  0.00  0.00    +0.282 C 
ATOM      7  O   UNL     1       2.616  -1.048   2.675  0.00  0.00    -0.267 OA
ENDROOT
BRANCH   1  14
ATOM      8  C   UNL     1      -0.018   1.503   0.010  0.00  0.00    +0.044 C 
ATOM      9  C   UNL     1       0.002  -0.004   0.002  0.00  0.00    -0.046 A 
ATOM     10  C   UNL     1       0.006  -0.689  -1.199  0.00  0.00    +0.004 A 
ATOM     11  C   UNL     1       0.025  -2.071  -1.207  0.00  0.00    +0.000 A 
ATOM     12  C   UNL     1       0.040  -2.768  -0.013  0.00  0.00    +0.000 A 
ATOM     13  C   UNL     1       0.037  -2.084   1.188  0.00  0.00    +0.006 A 
ATOM     14  C   UNL     1       0.023  -0.702   1.195  0.00  0.00    -0.024 A 
ENDBRANCH   1  14
BRANCH   6  15
ATOM     15  C   UNL     1       2.286  -2.132   4.706  0.00  0.00    +0.191 A 
ATOM     16  C   UNL     1       3.524  -2.689   4.856  0.00  0.00    +0.056 A 
ATOM     17  C   UNL     1       3.503  -3.403   6.063  0.00  0.00    +0.058 A 
ATOM     18  C   UNL     1       2.266  -3.254   6.592  0.00  0.00    +0.171 A 
ATOM     19  O   UNL     1       1.538  -2.482   5.774  0.00  0.00    -0.444 OA
ATOM     20 BR   UNL     1       1.668  -4.003   8.222  0.00  0.00    -0.008 Br
ENDBRANCH   6  15
TORSDOF 2
