REMARK  Name = ZINC45616386
REMARK  11 active torsions:
REMARK  status: ('A' for Active; 'I' for Inactive)
REMARK    1  A    between atoms: C_1  and  C_2
REMARK    2  A    between atoms: C_2  and  C_3
REMARK    3  A    between atoms: C_3  and  C_4
REMARK    4  A    between atoms: C_4  and  C_6
REMARK    5  A    between atoms: C_4  and  C_21
REMARK    6  A    between atoms: C_6  and  N_7
REMARK    7  A    between atoms: C_8  and  C_10
REMARK    8  A    between atoms: C_10  and  S_11
REMARK    9  A    between atoms: S_11  and  C_12
REMARK   10  A    between atoms: C_15  and  C_19
REMARK   11  A    between atoms: C_16  and  N_18
REMARK                            x       y       z     vdW  Elec       q    Type
REMARK                         _______ _______ _______ _____ _____    ______ ____
ROOT
ATOM      1  N   UNL     1       0.540  -2.180   3.665  0.00  0.00    -0.314 N 
ATOM      2  C   UNL     1       0.897  -2.525   4.918  0.00  0.00    +0.223 C 
ATOM      3  O   UNL     1       1.923  -3.142   5.107  0.00  0.00    -0.275 OA
ATOM      4  H   UNL     1      -0.281  -1.686   3.513  0.00  0.00    +0.149 HD
ENDROOT
BRANCH   1   5
ATOM      5  C   UNL     1       1.392  -2.549   2.532  0.00  0.00    +0.112 C 
BRANCH   5   6
ATOM      6  C   UNL     1       0.763  -2.041   1.233  0.00  0.00    +0.038 C 
BRANCH   6   7
ATOM      7  C   UNL     1       1.573  -2.526   0.059  0.00  0.00    -0.024 A 
ATOM      8  C   UNL     1       2.907  -2.178  -0.051  0.00  0.00    +0.007 A 
ATOM      9  C   UNL     1       3.651  -2.622  -1.128  0.00  0.00    +0.020 A 
ATOM     10  C   UNL     1       3.061  -3.416  -2.096  0.00  0.00    +0.042 A 
ATOM     11  C   UNL     1       1.728  -3.765  -1.986  0.00  0.00    +0.040 A 
ATOM     12  C   UNL     1       0.985  -3.324  -0.905  0.00  0.00    +0.046 A 
ATOM     13 CL   UNL     1      -0.688  -3.766  -0.763  0.00  0.00    -0.083 Cl
ATOM     14 CL   UNL     1       3.996  -3.974  -3.449  0.00  0.00    -0.083 Cl
ENDBRANCH   6   7
BRANCH   6  15
ATOM     15  C   UNL     1       0.742  -0.511   1.242  0.00  0.00    +0.009 C 
BRANCH  15  17
ATOM     16  C   UNL     1      -0.019   1.526   0.010  0.00  0.00    +0.004 C 
ATOM     17  C   UNL     1       0.002  -0.004   0.002  0.00  0.00    -0.003 C 
ENDBRANCH  15  17
ENDBRANCH   6  15
ENDBRANCH   5   6
ENDBRANCH   1   5
BRANCH   2  18
ATOM     18  C   UNL     1       0.020  -2.145   6.083  0.00  0.00    +0.173 C 
BRANCH  18  19
ATOM     19  S   UNL     1       0.766  -2.748   7.623  0.00  0.00    -0.077 S 
BRANCH  19  20
ATOM     20  C   UNL     1      -0.362  -2.231   8.873  0.00  0.00    +0.190 A 
ATOM     21  N   UNL     1      -1.454  -1.564   8.519  0.00  0.00    -0.229 NA
ATOM     22  C   UNL     1      -2.328  -1.156   9.422  0.00  0.00    +0.136 A 
ATOM     23  C   UNL     1      -2.091  -1.436  10.772  0.00  0.00    +0.109 A 
ATOM     24  C   UNL     1      -0.920  -2.148  11.110  0.00  0.00    +0.138 A 
ATOM     25  N   UNL     1      -0.097  -2.525  10.139  0.00  0.00    -0.206 NA
BRANCH  24  26
ATOM     26  N   UNL     1      -0.637  -2.450  12.427  0.00  0.00    -0.342 N 
ATOM     27  H   UNL     1      -1.245  -2.174  13.129  0.00  0.00    +0.144 HD
ATOM     28  H   UNL     1       0.171  -2.939  12.649  0.00  0.00    +0.144 HD
ENDBRANCH  24  26
BRANCH  23  29
ATOM     29  C   UNL     1      -3.013  -1.013  11.784  0.00  0.00    +0.104 C 
ATOM     30  N   UNL     1      -3.743  -0.676  12.586  0.00  0.00    -0.191 NA
ENDBRANCH  23  29
ENDBRANCH  19  20
ENDBRANCH  18  19
ENDBRANCH   2  18
TORSDOF 10
