REMARK  Name = ZINC01242631
REMARK  6 active torsions:
REMARK  status: ('A' for Active; 'I' for Inactive)
REMARK    1  A    between atoms: C_1  and  C_2
REMARK    2  A    between atoms: C_5  and  C_21
REMARK    3  A    between atoms: C_8  and  C_10
REMARK    4  A    between atoms: C_19  and  O_20
REMARK    5  A    between atoms: C_24  and  O_27
REMARK    6  A    between atoms: O_27  and  C_28
REMARK                            x       y       z     vdW  Elec       q    Type
REMARK                         _______ _______ _______ _____ _____    ______ ____
ROOT
ATOM      1  C   UNL     1      -0.018   1.503   0.010  0.00  0.00    +0.111 C 
ATOM      2  C   UNL     1       0.002  -0.004   0.002  0.00  0.00    +0.232 C 
ATOM      3  O   UNL     1       1.061  -0.596  -0.011  0.00  0.00    -0.274 OA
ATOM      4  N   UNL     1      -1.156  -0.694   0.009  0.00  0.00    -0.185 N 
ATOM      5  C   UNL     1      -1.279  -2.160   0.009  0.00  0.00    +0.137 C 
ATOM      6  C   UNL     1      -2.802  -2.396   0.019  0.00  0.00    +0.087 C 
ATOM      7  C   UNL     1      -3.386  -1.001   0.025  0.00  0.00    +0.072 C 
ATOM      8  N   UNL     1      -2.432  -0.135   0.025  0.00  0.00    -0.181 NA
ENDROOT
BRANCH   7   9
ATOM      9  C   UNL     1      -4.824  -0.682   0.035  0.00  0.00    +0.040 A 
ATOM     10  C   UNL     1      -5.771  -1.723   0.046  0.00  0.00    +0.014 A 
ATOM     11  C   UNL     1      -7.101  -1.454   0.056  0.00  0.00    +0.009 A 
ATOM     12  C   UNL     1      -7.554  -0.121   0.055  0.00  0.00    -0.014 A 
ATOM     13  C   UNL     1      -8.927   0.176   0.066  0.00  0.00    +0.008 A 
ATOM     14  C   UNL     1      -9.336   1.475   0.065  0.00  0.00    +0.001 A 
ATOM     15  C   UNL     1      -8.413   2.518   0.053  0.00  0.00    +0.001 A 
ATOM     16  C   UNL     1      -7.075   2.268   0.043  0.00  0.00    +0.012 A 
ATOM     17  C   UNL     1      -6.615   0.940   0.044  0.00  0.00    +0.024 A 
ATOM     18  C   UNL     1      -5.238   0.647   0.040  0.00  0.00    +0.133 A 
BRANCH  18  19
ATOM     19  O   UNL     1      -4.324   1.649   0.035  0.00  0.00    -0.506 OA
ATOM     20  H   UNL     1      -4.064   1.941  -0.850  0.00  0.00    +0.292 HD
ENDBRANCH  18  19
ENDBRANCH   7   9
BRANCH   5  21
ATOM     21  C   UNL     1      -0.657  -2.744  -1.234  0.00  0.00    -0.024 A 
ATOM     22  C   UNL     1      -0.794  -2.092  -2.446  0.00  0.00    +0.009 A 
ATOM     23  C   UNL     1      -0.225  -2.625  -3.586  0.00  0.00    +0.046 A 
ATOM     24  C   UNL     1       0.484  -3.815  -3.515  0.00  0.00    +0.120 A 
ATOM     25  C   UNL     1       0.620  -4.467  -2.298  0.00  0.00    +0.046 A 
ATOM     26  C   UNL     1       0.054  -3.927  -1.160  0.00  0.00    +0.009 A 
BRANCH  24  27
ATOM     27  O   UNL     1       1.044  -4.342  -4.636  0.00  0.00    -0.495 OA
ATOM     28  C   UNL     1       1.759  -5.569  -4.488  0.00  0.00    +0.277 C 
ENDBRANCH  24  27
ENDBRANCH   5  21
TORSDOF 4
