REMARK  Name = ZINC16337789
REMARK  4 active torsions:
REMARK  status: ('A' for Active; 'I' for Inactive)
REMARK    1  A    between atoms: C_11  and  C_13
REMARK    2  A    between atoms: C_13  and  N_14
REMARK    3  A    between atoms: C_18  and  C_21
REMARK    4  A    between atoms: C_21  and  O_22
REMARK                            x       y       z     vdW  Elec       q    Type
REMARK                         _______ _______ _______ _____ _____    ______ ____
ROOT
ATOM      1  C   UNL     1       3.327  -5.052  -0.253  0.00  0.00    +0.002 A 
ATOM      2  C   UNL     1       4.374  -4.577  -1.022  0.00  0.00    +0.001 A 
ATOM      3  C   UNL     1       4.379  -3.262  -1.442  0.00  0.00    +0.016 A 
ATOM      4  C   UNL     1       3.334  -2.414  -1.098  0.00  0.00    +0.029 A 
ATOM      5  C   UNL     1       2.274  -2.889  -0.331  0.00  0.00    +0.050 A 
ATOM      6  C   UNL     1       2.284  -4.216   0.092  0.00  0.00    +0.024 A 
ATOM      7  N   UNL     1       1.185  -2.092   0.027  0.00  0.00    -0.271 N 
ATOM      8  C   UNL     1       1.224  -0.633   0.005  0.00  0.00    +0.124 C 
ATOM      9  C   UNL     1       1.666  -0.172  -1.393  0.00  0.00    +0.094 C 
ATOM     10  S   UNL     1       3.376  -0.736  -1.644  0.00  0.00    -0.122 S 
ATOM     11  C   UNL     1       0.044  -2.698   0.411  0.00  0.00    +0.203 C 
ATOM     12  O   UNL     1      -0.060  -3.904   0.328  0.00  0.00    -0.277 OA
ENDROOT
BRANCH  11  13
ATOM     13  C   UNL     1      -1.103  -1.878   0.944  0.00  0.00    +0.019 C 
BRANCH  13  14
ATOM     14  N   UNL     1      -2.161  -2.773   1.430  0.00  0.00    +0.386 N 
ATOM     15  C   UNL     1      -1.661  -3.546   2.573  0.00  0.00    -0.078 C 
ATOM     16  C   UNL     1      -2.732  -4.538   3.032  0.00  0.00    -0.018 C 
ATOM     17  C   UNL     1      -3.990  -3.768   3.445  0.00  0.00    +0.002 C 
ATOM     18  C   UNL     1      -4.460  -2.909   2.268  0.00  0.00    -0.002 C 
ATOM     19  C   UNL     1      -3.325  -1.977   1.838  0.00  0.00    -0.073 C 
ATOM     20  H   UNL     1      -2.430  -3.406   0.691  0.00  0.00    -0.081 HD
BRANCH  18  21
ATOM     21  C   UNL     1      -5.671  -2.077   2.694  0.00  0.00    +0.157 C 
BRANCH  21  22
ATOM     22  O   UNL     1      -6.766  -2.946   2.989  0.00  0.00    -0.395 OA
ATOM     23  H   UNL     1      -7.570  -2.486   3.267  0.00  0.00    +0.209 HD
ENDBRANCH  21  22
ENDBRANCH  18  21
ENDBRANCH  13  14
ENDBRANCH  11  13
TORSDOF 4
