REMARK  Name = ZINC35560113
REMARK  5 active torsions:
REMARK  status: ('A' for Active; 'I' for Inactive)
REMARK    1  A    between atoms: C_1  and  C_2
REMARK    2  A    between atoms: C_2  and  N_3
REMARK    3  A    between atoms: N_3  and  C_4
REMARK    4  A    between atoms: C_4  and  C_6
REMARK    5  A    between atoms: C_4  and  C_14
REMARK                            x       y       z     vdW  Elec       q    Type
REMARK                         _______ _______ _______ _____ _____    ______ ____
ROOT
ATOM      1  C   UNL     1       0.733  -1.960   1.184  0.00  0.00    -0.007 C 
ENDROOT
BRANCH   1   2
ATOM      2  C   UNL     1       1.292  -2.516   2.468  0.00  0.00    -0.039 A 
ATOM      3  C   UNL     1       2.508  -3.174   2.463  0.00  0.00    +0.005 A 
ATOM      4  C   UNL     1       3.022  -3.685   3.640  0.00  0.00    +0.020 A 
ATOM      5  C   UNL     1       2.321  -3.538   4.823  0.00  0.00    +0.042 A 
ATOM      6  C   UNL     1       1.105  -2.879   4.829  0.00  0.00    +0.040 A 
ATOM      7  C   UNL     1       0.593  -2.364   3.651  0.00  0.00    +0.044 A 
ATOM      8 CL   UNL     1      -0.931  -1.532   3.658  0.00  0.00    -0.083 Cl
ATOM      9 CL   UNL     1       2.966  -4.180   6.301  0.00  0.00    -0.083 Cl
ENDBRANCH   1   2
BRANCH   1  10
ATOM     10  C   UNL     1       1.440  -2.590   0.012  0.00  0.00    -0.035 A 
ATOM     11  C   UNL     1       2.542  -1.978  -0.555  0.00  0.00    +0.026 A 
ATOM     12  C   UNL     1       3.155  -2.572  -1.608  0.00  0.00    +0.056 A 
ATOM     13  S   UNL     1       2.167  -4.043  -1.829  0.00  0.00    -0.074 S 
ATOM     14  C   UNL     1       1.008  -3.770  -0.499  0.00  0.00    +0.058 A 
ATOM     15 BR   UNL     1      -0.447  -4.845   0.052  0.00  0.00    -0.042 Br
ATOM     16 BR   UNL     1       4.664  -1.994  -2.590  0.00  0.00    -0.043 Br
ENDBRANCH   1  10
BRANCH   1  17
ATOM     17  N   UNL     1       0.934  -0.505   1.152  0.00  0.00    +0.386 N 
ATOM     18  H   UNL     1       1.922  -0.302   1.122  0.00  0.00    -0.085 HD
ATOM     19  H   UNL     1       0.531  -0.091   1.980  0.00  0.00    -0.085 HD
BRANCH  17  21
ATOM     20  C   UNL     1       0.493   1.569  -0.074  0.00  0.00    -0.017 C 
ATOM     21  C   UNL     1       0.283   0.054  -0.041  0.00  0.00    -0.085 C 
ENDBRANCH  17  21
ENDBRANCH   1  17
TORSDOF 4
