REMARK  Name = ZINC45302749
REMARK  9 active torsions:
REMARK  status: ('A' for Active; 'I' for Inactive)
REMARK    1  A    between atoms: C_1  and  C_2
REMARK    2  A    between atoms: C_3  and  C_12
REMARK    3  A    between atoms: C_7  and  C_10
REMARK    4  A    between atoms: C_15  and  C_18
REMARK    5  A    between atoms: C_19  and  C_20
REMARK    6  A    between atoms: C_23  and  O_28
REMARK    7  A    between atoms: C_24  and  O_26
REMARK    8  A    between atoms: O_26  and  C_27
REMARK    9  A    between atoms: O_28  and  C_29
REMARK                            x       y       z     vdW  Elec       q    Type
REMARK                         _______ _______ _______ _____ _____    ______ ____
ROOT
ATOM      1  C   UNL     1      -2.474   0.015   0.015  0.00  0.00    -0.012 A 
ATOM      2  C   UNL     1      -2.831   0.796   1.114  0.00  0.00    +0.009 A 
ATOM      3  C   UNL     1      -4.038   1.458   1.125  0.00  0.00    +0.008 A 
ATOM      4  C   UNL     1      -4.905   1.348   0.034  0.00  0.00    -0.025 A 
ATOM      5  C   UNL     1      -4.545   0.564  -1.067  0.00  0.00    +0.008 A 
ATOM      6  C   UNL     1      -3.336  -0.092  -1.078  0.00  0.00    +0.009 A 
ENDROOT
BRANCH   1   9
ATOM      7  C   UNL     1      -0.018   1.503   0.010  0.00  0.00    +0.064 C 
ATOM      8  C   UNL     1       0.002  -0.004   0.002  0.00  0.00    +0.025 A 
ATOM      9  C   UNL     1      -1.174  -0.697   0.004  0.00  0.00    +0.049 A 
ATOM     10  C   UNL     1      -1.121  -2.164  -0.004  0.00  0.00    +0.208 A 
ATOM     11  O   UNL     1      -2.145  -2.831  -0.003  0.00  0.00    -0.286 OA
ATOM     12  C   UNL     1       0.152  -2.782  -0.014  0.00  0.00    +0.107 A 
ATOM     13  C   UNL     1       1.260  -2.009  -0.015  0.00  0.00    +0.035 A 
ATOM     14  N   UNL     1       1.181  -0.656  -0.013  0.00  0.00    -0.360 N 
ATOM     15  H   UNL     1       2.002  -0.139  -0.018  0.00  0.00    +0.165 HD
ATOM     16  C   UNL     1       2.616  -2.666  -0.025  0.00  0.00    +0.065 C 
ATOM     17 CL   UNL     1       0.289  -4.513  -0.023  0.00  0.00    -0.078 Cl
ENDBRANCH   1   9
BRANCH   4  18
ATOM     18  C   UNL     1      -6.197   2.055   0.044  0.00  0.00    +0.008 C 
ATOM     19  C   UNL     1      -7.030   1.949  -1.004  0.00  0.00    +0.008 C 
BRANCH  19  20
ATOM     20  C   UNL     1      -8.322   2.656  -0.994  0.00  0.00    -0.021 A 
ATOM     21  C   UNL     1      -8.680   3.444   0.104  0.00  0.00    +0.012 A 
ATOM     22  C   UNL     1      -9.890   4.105   0.111  0.00  0.00    +0.050 A 
ATOM     23  C   UNL     1     -10.754   3.991  -0.968  0.00  0.00    +0.162 A 
ATOM     24  C   UNL     1     -10.403   3.208  -2.066  0.00  0.00    +0.162 A 
ATOM     25  C   UNL     1      -9.190   2.547  -2.084  0.00  0.00    +0.057 A 
BRANCH  24  26
ATOM     26  O   UNL     1     -11.253   3.098  -3.122  0.00  0.00    -0.491 OA
ATOM     27  C   UNL     1     -10.830   2.278  -4.213  0.00  0.00    +0.277 C 
ENDBRANCH  24  26
BRANCH  23  28
ATOM     28  O   UNL     1     -11.946   4.645  -0.955  0.00  0.00    -0.491 OA
ATOM     29  C   UNL     1     -12.242   5.431   0.201  0.00  0.00    +0.277 C 
ENDBRANCH  23  28
ENDBRANCH  19  20
ENDBRANCH   4  18
TORSDOF 5
