REMARK  Name = ZINC64729014
REMARK  5 active torsions:
REMARK  status: ('A' for Active; 'I' for Inactive)
REMARK    1  A    between atoms: C_4  and  N_7
REMARK    2  A    between atoms: C_8  and  S_18
REMARK    3  A    between atoms: S_18  and  C_19
REMARK    4  A    between atoms: C_19  and  C_20
REMARK    5  A    between atoms: N_22  and  C_23
REMARK                            x       y       z     vdW  Elec       q    Type
REMARK                         _______ _______ _______ _____ _____    ______ ____
ROOT
ATOM      1  N   UNL     1       3.600  -0.639  -0.040  0.00  0.00    -0.252 N 
ATOM      2  C   UNL     1       3.806  -2.095  -0.052  0.00  0.00    +0.258 C 
ATOM      3  N   UNL     1       5.257  -2.312  -0.063  0.00  0.00    -0.242 NA
ATOM      4  C   UNL     1       5.848  -1.166  -0.058  0.00  0.00    +0.165 C 
ATOM      5  C   UNL     1       4.840  -0.076  -0.048  0.00  0.00    +0.160 C 
ATOM      6  N   UNL     1       5.276   1.171  -0.048  0.00  0.00    -0.221 NA
ATOM      7  C   UNL     1       6.568   1.458  -0.058  0.00  0.00    +0.213 C 
ATOM      8  N   UNL     1       7.532   0.571  -0.069  0.00  0.00    -0.163 NA
ATOM      9  C   UNL     1       7.280  -0.749  -0.062  0.00  0.00    +0.290 C 
ATOM     10  O   UNL     1       8.181  -1.568  -0.074  0.00  0.00    -0.266 OA
ENDROOT
BRANCH   1  14
ATOM     11  C   UNL     1      -0.050   1.362  -0.004  0.00  0.00    +0.000 A 
ATOM     12  C   UNL     1       1.131   2.081  -0.011  0.00  0.00    +0.002 A 
ATOM     13  C   UNL     1       2.344   1.421  -0.022  0.00  0.00    +0.023 A 
ATOM     14  C   UNL     1       2.377   0.032  -0.027  0.00  0.00    +0.038 A 
ATOM     15  C   UNL     1       1.188  -0.688  -0.020  0.00  0.00    +0.023 A 
ATOM     16  C   UNL     1      -0.021  -0.021  -0.009  0.00  0.00    +0.002 A 
ENDBRANCH   1  14
BRANCH   2  17
ATOM     17  S   UNL     1       3.058  -2.816  -1.539  0.00  0.00    -0.106 S 
BRANCH  17  18
ATOM     18  C   UNL     1       3.924  -1.998  -2.907  0.00  0.00    +0.168 C 
BRANCH  18  19
ATOM     19  C   UNL     1       3.390  -2.514  -4.219  0.00  0.00    +0.227 C 
ATOM     20  O   UNL     1       2.512  -3.350  -4.230  0.00  0.00    -0.275 OA
ATOM     21  N   UNL     1       3.889  -2.045  -5.380  0.00  0.00    -0.285 N 
ATOM     22  H   UNL     1       4.543  -1.329  -5.373  0.00  0.00    +0.155 HD
BRANCH  21  23
ATOM     23  C   UNL     1       3.463  -2.592  -6.595  0.00  0.00    +0.034 A 
ATOM     24  C   UNL     1       4.356  -2.717  -7.652  0.00  0.00    +0.023 A 
ATOM     25  C   UNL     1       3.933  -3.257  -8.851  0.00  0.00    +0.003 A 
ATOM     26  C   UNL     1       2.623  -3.673  -9.000  0.00  0.00    +0.015 A 
ATOM     27  C   UNL     1       1.731  -3.549  -7.950  0.00  0.00    +0.020 A 
ATOM     28  C   UNL     1       2.150  -3.015  -6.746  0.00  0.00    +0.038 A 
ATOM     29 BR   UNL     1      -0.060  -4.117  -8.159  0.00  0.00    -0.050 Br
ENDBRANCH  21  23
ENDBRANCH  18  19
ENDBRANCH  17  18
ENDBRANCH   2  17
TORSDOF 5
