REMARK  Name = ZINC40727431
REMARK  9 active torsions:
REMARK  status: ('A' for Active; 'I' for Inactive)
REMARK    1  A    between atoms: C_1  and  C_2
REMARK    2  A    between atoms: C_5  and  S_8
REMARK    3  A    between atoms: S_8  and  C_9
REMARK    4  A    between atoms: C_10  and  N_25
REMARK    5  A    between atoms: C_11  and  O_15
REMARK    6  A    between atoms: O_15  and  C_16
REMARK    7  A    between atoms: C_19  and  C_22
REMARK    8  A    between atoms: C_22  and  C_23
REMARK    9  A    between atoms: C_22  and  C_24
REMARK                            x       y       z     vdW  Elec       q    Type
REMARK                         _______ _______ _______ _____ _____    ______ ____
ROOT
ATOM      1  C   UNL     1       0.463  -4.936   1.682  0.00  0.00    +0.129 A 
ATOM      2  C   UNL     1       0.500  -6.281   2.061  0.00  0.00    +0.120 A 
ATOM      3  C   UNL     1       0.637  -6.579   3.415  0.00  0.00    +0.246 A 
ATOM      4  N   UNL     1       0.728  -5.581   4.290  0.00  0.00    -0.199 NA
ATOM      5  C   UNL     1       0.689  -4.326   3.892  0.00  0.00    +0.226 A 
ATOM      6  N   UNL     1       0.565  -3.999   2.621  0.00  0.00    -0.227 NA
ENDROOT
BRANCH   2   7
ATOM      7  N   UNL     1       0.400  -7.303   1.104  0.00  0.00    -0.352 N 
ATOM      8  H   UNL     1       0.304  -7.080   0.165  0.00  0.00    +0.143 HD
ATOM      9  H   UNL     1       0.427  -8.232   1.382  0.00  0.00    +0.143 HD
ENDBRANCH   2   7
BRANCH   1  10
ATOM     10  S   UNL     1       0.290  -4.488  -0.014  0.00  0.00    -0.068 S 
BRANCH  10  15
ATOM     11  C   UNL     1       0.750   1.530   0.009  0.00  0.00    +0.044 C 
ATOM     12  C   UNL     1       0.635   0.028   0.003  0.00  0.00    -0.050 A 
ATOM     13  C   UNL     1       1.777  -0.751  -0.041  0.00  0.00    +0.004 A 
ATOM     14  C   UNL     1       1.676  -2.128  -0.046  0.00  0.00    +0.015 A 
ATOM     15  C   UNL     1       0.425  -2.732  -0.007  0.00  0.00    +0.014 A 
ATOM     16  C   UNL     1      -0.721  -1.946   0.038  0.00  0.00    +0.015 A 
ATOM     17  C   UNL     1      -0.611  -0.569   0.048  0.00  0.00    +0.004 A 
ENDBRANCH  10  15
ENDBRANCH   1  10
BRANCH   3  18
ATOM     18  O   UNL     1       0.678  -7.869   3.836  0.00  0.00    -0.436 OA
BRANCH  18  19
ATOM     19  C   UNL     1       0.690  -8.103   5.174  0.00  0.00    +0.130 A 
ATOM     20  C   UNL     1      -0.450  -7.874   5.931  0.00  0.00    +0.046 A 
ATOM     21  C   UNL     1      -0.435  -8.114   7.291  0.00  0.00    +0.007 A 
ATOM     22  C   UNL     1       0.715  -8.581   7.899  0.00  0.00    -0.045 A 
ATOM     23  C   UNL     1       1.853  -8.810   7.148  0.00  0.00    +0.007 A 
ATOM     24  C   UNL     1       1.842  -8.578   5.786  0.00  0.00    +0.046 A 
BRANCH  22  25
ATOM     25  C   UNL     1       0.729  -8.841   9.383  0.00  0.00    +0.013 C 
ATOM     26  C   UNL     1       1.052 -10.315   9.640  0.00  0.00    +0.012 C 
ATOM     27  C   UNL     1       1.793  -7.963  10.045  0.00  0.00    +0.012 C 
ENDBRANCH  22  25
ENDBRANCH  18  19
ENDBRANCH   3  18
TORSDOF 6
