REMARK  Name = ZINC28641737
REMARK  6 active torsions:
REMARK  status: ('A' for Active; 'I' for Inactive)
REMARK    1  A    between atoms: C_1  and  C_2
REMARK    2  A    between atoms: N_6  and  C_14
REMARK    3  A    between atoms: C_14  and  C_15
REMARK    4  A    between atoms: C_20  and  C_23
REMARK    5  A    between atoms: C_26  and  S_29
REMARK    6  A    between atoms: S_29  and  C_30
REMARK                            x       y       z     vdW  Elec       q    Type
REMARK                         _______ _______ _______ _____ _____    ______ ____
ROOT
ATOM      1  C   UNL     1       1.147   1.655   0.000  0.00  0.00    +0.236 C 
ATOM      2  O   UNL     1       1.130   2.868   0.007  0.00  0.00    -0.274 OA
ATOM      3  N   UNL     1      -0.011   0.966   0.007  0.00  0.00    -0.263 N 
ATOM      4  C   UNL     1      -1.224   1.644   0.017  0.00  0.00    +0.165 A 
ATOM      5  N   UNL     1      -2.452   1.160   0.015  0.00  0.00    -0.225 NA
ATOM      6  C   UNL     1      -3.507   1.961   0.030  0.00  0.00    +0.080 A 
ATOM      7  C   UNL     1      -3.321   3.315   0.036  0.00  0.00    +0.076 A 
ATOM      8  S   UNL     1      -1.535   3.404   0.027  0.00  0.00    -0.060 S 
ATOM      9  H   UNL     1       0.004  -0.134   0.006  0.00  0.00    +0.157 HD
ENDROOT
BRANCH   6  10
ATOM     10  C   UNL     1      -4.877   1.393   0.034  0.00  0.00    +0.001 A 
ATOM     11  C   UNL     1      -5.984   2.241   0.049  0.00  0.00    +0.011 A 
ATOM     12  C   UNL     1      -7.257   1.712   0.048  0.00  0.00    +0.015 A 
ATOM     13  C   UNL     1      -7.437   0.333   0.041  0.00  0.00    +0.008 A 
ATOM     14  C   UNL     1      -6.335  -0.515   0.031  0.00  0.00    +0.015 A 
ATOM     15  C   UNL     1      -5.060   0.011   0.028  0.00  0.00    +0.011 A 
BRANCH  13  16
ATOM     16  S   UNL     1      -9.065  -0.341   0.046  0.00  0.00    -0.129 S 
ATOM     17  C   UNL     1     -10.144   1.117   0.060  0.00  0.00    +0.090 C 
ENDBRANCH  13  16
ENDBRANCH   6  10
BRANCH   1  18
ATOM     18  C   UNL     1       2.462   0.920  -0.017  0.00  0.00    +0.210 C 
BRANCH  18  23
ATOM     19  C   UNL     1       5.161   4.201  -2.418  0.00  0.00    +0.062 C 
ATOM     20  C   UNL     1       5.224   3.312  -1.174  0.00  0.00    +0.256 C 
ATOM     21  C   UNL     1       4.070   2.342  -1.188  0.00  0.00    +0.261 C 
ATOM     22  O   UNL     1       3.597   1.974  -2.243  0.00  0.00    -0.271 OA
ATOM     23  N   UNL     1       3.562   1.887  -0.022  0.00  0.00    -0.256 N 
ATOM     24  C   UNL     1       4.109   2.350   1.183  0.00  0.00    +0.079 A 
ATOM     25  C   UNL     1       3.857   1.690   2.375  0.00  0.00    +0.027 A 
ATOM     26  C   UNL     1       4.405   2.165   3.553  0.00  0.00    +0.002 A 
ATOM     27  C   UNL     1       5.202   3.295   3.543  0.00  0.00    +0.004 A 
ATOM     28  C   UNL     1       5.457   3.958   2.357  0.00  0.00    +0.047 A 
ATOM     29  C   UNL     1       4.912   3.489   1.174  0.00  0.00    +0.143 A 
ATOM     30  O   UNL     1       5.154   4.128  -0.002  0.00  0.00    -0.478 OA
ENDBRANCH  18  23
ENDBRANCH   1  18
TORSDOF 4
