REMARK  Name = ZINC11842016
REMARK  8 active torsions:
REMARK  status: ('A' for Active; 'I' for Inactive)
REMARK    1  A    between atoms: C_1  and  C_2
REMARK    2  A    between atoms: C_2  and  C_19
REMARK    3  A    between atoms: N_5  and  C_9
REMARK    4  A    between atoms: C_9  and  C_10
REMARK    5  A    between atoms: C_10  and  C_11
REMARK    6  A    between atoms: C_14  and  O_17
REMARK    7  A    between atoms: O_17  and  C_18
REMARK    8  A    between atoms: C_24  and  N_60
REMARK                            x       y       z     vdW  Elec       q    Type
REMARK                         _______ _______ _______ _____ _____    ______ ____
ROOT
ATOM      1  C   UNL     1      -2.143  -0.271  -1.141  0.00  0.00    +0.042 C 
ATOM      2  C   UNL     1      -1.392  -0.634   0.142  0.00  0.00    +0.112 C 
ATOM      3  C   UNL     1      -1.418  -2.132   0.369  0.00  0.00    +0.247 C 
ATOM      4  O   UNL     1      -0.958  -2.990  -0.353  0.00  0.00    -0.273 OA
ATOM      5  N   UNL     1      -2.059  -2.312   1.541  0.00  0.00    -0.224 N 
ATOM      6  C   UNL     1      -2.437  -1.148   2.080  0.00  0.00    +0.309 C 
ATOM      7  O   UNL     1      -3.032  -1.054   3.136  0.00  0.00    -0.252 OA
ATOM      8  N   UNL     1      -2.088  -0.089   1.321  0.00  0.00    -0.285 N 
ATOM      9  H   UNL     1      -2.259   0.846   1.513  0.00  0.00    +0.151 HD
ENDROOT
BRANCH   2  10
ATOM     10  C   UNL     1       0.049  -0.123   0.084  0.00  0.00    +0.018 C 
ATOM     11  C   UNL     1       0.046   1.398  -0.093  0.00  0.00    -0.013 C 
ATOM     12  C   UNL     1       1.488   1.910  -0.089  0.00  0.00    -0.078 C 
ATOM     13  C   UNL     1       2.191   0.090   1.348  0.00  0.00    -0.078 C 
ATOM     14  C   UNL     1       0.770  -0.476   1.387  0.00  0.00    -0.013 C 
ATOM     15  N   UNL     1       2.119   1.559   1.201  0.00  0.00    +0.382 N 
ATOM     16  H   UNL     1       1.549   1.942   1.965  0.00  0.00    -0.081 HD
BRANCH  15  17
ATOM     17  C   UNL     1       3.474   2.142   1.275  0.00  0.00    -0.058 C 
ATOM     18  C   UNL     1       4.044   1.881   2.669  0.00  0.00    -0.004 C 
ATOM     19  C   UNL     1       5.031   2.966   3.142  0.00  0.00    +0.067 C 
ATOM     20  S   UNL     1       4.960   4.217   1.794  0.00  0.00    -0.162 S 
ATOM     21  C   UNL     1       3.380   3.670   1.011  0.00  0.00    +0.054 C 
ENDBRANCH  15  17
ENDBRANCH   2  10
BRANCH   5  22
ATOM     22  C   UNL     1      -2.309  -3.621   2.149  0.00  0.00    +0.122 C 
BRANCH  22  23
ATOM     23  C   UNL     1      -1.138  -3.992   3.062  0.00  0.00    +0.054 C 
BRANCH  23  24
ATOM     24  C   UNL     1      -1.396  -5.338   3.688  0.00  0.00    -0.046 A 
ATOM     25  C   UNL     1      -2.058  -5.421   4.899  0.00  0.00    +0.007 A 
ATOM     26  C   UNL     1      -2.300  -6.654   5.472  0.00  0.00    +0.046 A 
ATOM     27  C   UNL     1      -1.868  -7.810   4.837  0.00  0.00    +0.120 A 
ATOM     28  C   UNL     1      -1.199  -7.724   3.625  0.00  0.00    +0.046 A 
ATOM     29  C   UNL     1      -0.964  -6.488   3.053  0.00  0.00    +0.007 A 
BRANCH  27  30
ATOM     30  O   UNL     1      -2.101  -9.024   5.401  0.00  0.00    -0.495 OA
ATOM     31  C   UNL     1      -2.796  -9.037   6.650  0.00  0.00    +0.277 C 
ENDBRANCH  27  30
ENDBRANCH  23  24
ENDBRANCH  22  23
ENDBRANCH   5  22
TORSDOF 6
