REMARK  Name = ZINC09654145
REMARK  6 active torsions:
REMARK  status: ('A' for Active; 'I' for Inactive)
REMARK    1  A    between atoms: C_1  and  C_2
REMARK    2  A    between atoms: C_6  and  C_7
REMARK    3  A    between atoms: C_7  and  O_9
REMARK    4  A    between atoms: O_9  and  C_10
REMARK    5  A    between atoms: C_10  and  C_11
REMARK    6  A    between atoms: C_22  and  C_24
REMARK                            x       y       z     vdW  Elec       q    Type
REMARK                         _______ _______ _______ _____ _____    ______ ____
ROOT
ATOM      1  C   UNL     1      -0.229  -1.748   5.917  0.00  0.00    +0.258 C 
ATOM      2  O   UNL     1      -0.539  -0.853   5.160  0.00  0.00    -0.272 OA
ATOM      3  N   UNL     1      -0.187  -1.523   7.245  0.00  0.00    -0.266 N 
ATOM      4  C   UNL     1      -0.337  -0.225   7.753  0.00  0.00    +0.040 A 
ATOM      5  C   UNL     1      -0.247   0.857   6.884  0.00  0.00    +0.024 A 
ATOM      6  C   UNL     1      -0.396   2.143   7.363  0.00  0.00    +0.002 A 
ATOM      7  C   UNL     1      -0.635   2.353   8.709  0.00  0.00    +0.000 A 
ATOM      8  C   UNL     1      -0.723   1.281   9.574  0.00  0.00    +0.005 A 
ATOM      9  C   UNL     1      -0.573  -0.013   9.102  0.00  0.00    -0.026 A 
ATOM     10  C   UNL     1      -0.665  -1.159  10.074  0.00  0.00    +0.039 C 
ATOM     11  C   UNL     1      -0.981  -2.461   9.338  0.00  0.00    +0.027 C 
ATOM     12  C   UNL     1       0.011  -2.634   8.186  0.00  0.00    +0.079 C 
ATOM     13  C   UNL     1      -0.247  -3.965   7.476  0.00  0.00    +0.028 C 
ENDROOT
BRANCH   1  14
ATOM     14  C   UNL     1       0.108  -3.113   5.373  0.00  0.00    +0.328 C 
BRANCH  14  15
ATOM     15  O   UNL     1       0.162  -3.057   3.946  0.00  0.00    -0.451 OA
BRANCH  15  16
ATOM     16  C   UNL     1       0.454  -4.204   3.299  0.00  0.00    +0.347 C 
ATOM     17  O   UNL     1       0.658  -5.223   3.930  0.00  0.00    -0.244 OA
BRANCH  16  23
ATOM     18  C   UNL     1       1.101  -6.667   1.505  0.00  0.00    +0.045 C 
ATOM     19  C   UNL     1       0.808  -5.282   0.988  0.00  0.00    -0.029 A 
ATOM     20  C   UNL     1       0.798  -4.990  -0.354  0.00  0.00    +0.012 A 
ATOM     21  C   UNL     1       0.526  -3.722  -0.751  0.00  0.00    +0.046 A 
ATOM     22  S   UNL     1       0.276  -2.885   0.684  0.00  0.00    -0.090 S 
ATOM     23  C   UNL     1       0.526  -4.221   1.837  0.00  0.00    +0.099 A 
ENDBRANCH  16  23
ENDBRANCH  15  16
ENDBRANCH  14  15
ENDBRANCH   1  14
TORSDOF 4
