REMARK  Name = ZINC45932955
REMARK  6 active torsions:
REMARK  status: ('A' for Active; 'I' for Inactive)
REMARK    1  A    between atoms: C_4  and  O_24
REMARK    2  A    between atoms: C_5  and  C_7
REMARK    3  A    between atoms: C_8  and  C_9
REMARK    4  A    between atoms: N_11  and  C_12
REMARK    5  A    between atoms: C_17  and  N_18
REMARK    6  A    between atoms: O_24  and  C_25
REMARK                            x       y       z     vdW  Elec       q    Type
REMARK                         _______ _______ _______ _____ _____    ______ ____
ROOT
ATOM      1  C   UNL     1       0.125  -4.313  -0.026  0.00  0.00    +0.241 C 
ATOM      2  O   UNL     1       1.191  -4.901  -0.034  0.00  0.00    -0.270 OA
ATOM      3  N   UNL     1      -1.028  -5.010  -0.015  0.00  0.00    -0.280 N 
ATOM      4  H   UNL     1      -1.875  -4.544   0.072  0.00  0.00    +0.155 HD
ENDROOT
BRANCH   3   5
ATOM      5  C   UNL     1      -1.005  -6.404  -0.129  0.00  0.00    +0.055 A 
ATOM      6  C   UNL     1       0.065  -7.034  -0.749  0.00  0.00    +0.025 A 
ATOM      7  C   UNL     1       0.086  -8.411  -0.860  0.00  0.00    +0.002 A 
ATOM      8  C   UNL     1      -0.957  -9.166  -0.354  0.00  0.00    +0.002 A 
ATOM      9  C   UNL     1      -2.027  -8.547   0.264  0.00  0.00    +0.025 A 
ATOM     10  C   UNL     1      -2.054  -7.166   0.385  0.00  0.00    +0.057 A 
BRANCH  10  11
ATOM     11  N   UNL     1      -3.134  -6.537   1.017  0.00  0.00    -0.270 N 
ATOM     12  C   UNL     1      -4.353  -6.094   0.329  0.00  0.00    +0.114 C 
ATOM     13  C   UNL     1      -5.400  -5.878   1.444  0.00  0.00    +0.029 C 
ATOM     14  C   UNL     1      -4.502  -5.591   2.669  0.00  0.00    +0.098 C 
ATOM     15  C   UNL     1      -3.191  -6.268   2.333  0.00  0.00    +0.220 C 
ATOM     16  O   UNL     1      -2.318  -6.527   3.134  0.00  0.00    -0.275 OA
ENDBRANCH  10  11
ENDBRANCH   3   5
BRANCH   1  18
ATOM     17  C   UNL     1       1.252  -2.153  -0.041  0.00  0.00    +0.016 C 
ATOM     18  C   UNL     1       0.096  -2.851  -0.029  0.00  0.00    +0.068 C 
BRANCH  17  23
ATOM     19  C   UNL     1      -0.019   1.374  -0.040  0.00  0.00    +0.001 A 
ATOM     20  C   UNL     1       1.168   2.090  -0.051  0.00  0.00    +0.004 A 
ATOM     21  C   UNL     1       2.382   1.432  -0.059  0.00  0.00    +0.046 A 
ATOM     22  C   UNL     1       2.422   0.046  -0.056  0.00  0.00    +0.137 A 
ATOM     23  C   UNL     1       1.223  -0.684  -0.044  0.00  0.00    +0.017 A 
ATOM     24  C   UNL     1       0.001  -0.004  -0.036  0.00  0.00    +0.011 A 
BRANCH  22  25
ATOM     25  O   UNL     1       3.615  -0.601  -0.064  0.00  0.00    -0.405 OA
BRANCH  25  26
ATOM     26  C   UNL     1       4.792   0.208  -0.076  0.00  0.00    +0.575 C 
ATOM     27  F   UNL     1       4.813   1.019   1.064  0.00  0.00    -0.133 F 
ATOM     28  F   UNL     1       5.924  -0.615  -0.084  0.00  0.00    -0.133 F 
ATOM     29  F   UNL     1       4.793   1.013  -1.221  0.00  0.00    -0.133 F 
ENDBRANCH  25  26
ENDBRANCH  22  25
ENDBRANCH  17  23
ENDBRANCH   1  18
TORSDOF 6
