REMARK  Name = ZINC63270486
REMARK  9 active torsions:
REMARK  status: ('A' for Active; 'I' for Inactive)
REMARK    1  A    between atoms: C_1  and  O_2
REMARK    2  A    between atoms: O_2  and  C_3
REMARK    3  A    between atoms: C_6  and  C_9
REMARK    4  A    between atoms: C_15  and  O_21
REMARK    5  A    between atoms: O_21  and  C_22
REMARK    6  A    between atoms: C_22  and  C_23
REMARK    7  A    between atoms: N_25  and  C_26
REMARK    8  A    between atoms: C_26  and  C_27
REMARK    9  A    between atoms: C_27  and  C_28
REMARK                            x       y       z     vdW  Elec       q    Type
REMARK                         _______ _______ _______ _____ _____    ______ ____
ROOT
ATOM      1  C   UNL     1       2.587  -2.550   4.310  0.00  0.00    +0.128 C 
ATOM      2  C   UNL     1       3.733  -3.428   3.788  0.00  0.00    +0.245 C 
ATOM      3  O   UNL     1       3.203  -4.426   2.915  0.00  0.00    -0.490 OA
ATOM      4  C   UNL     1       2.187  -5.203   3.357  0.00  0.00    +0.134 A 
ATOM      5  C   UNL     1       1.955  -6.439   2.775  0.00  0.00    +0.092 A 
ATOM      6  C   UNL     1       0.909  -7.230   3.227  0.00  0.00    +0.125 A 
ATOM      7  C   UNL     1       0.086  -6.793   4.262  0.00  0.00    +0.046 A 
ATOM      8  C   UNL     1       0.302  -5.579   4.847  0.00  0.00    +0.018 A 
ATOM      9  C   UNL     1       1.354  -4.772   4.405  0.00  0.00    +0.060 A 
ATOM     10  C   UNL     1       1.612  -3.464   5.031  0.00  0.00    +0.177 C 
ATOM     11  O   UNL     1       1.075  -3.134   6.068  0.00  0.00    -0.291 OA
ENDROOT
BRANCH   1  15
ATOM     12  C   UNL     1       0.626  -0.618   1.042  0.00  0.00    +0.120 A 
ATOM     13  C   UNL     1       1.202   0.138   2.051  0.00  0.00    +0.046 A 
ATOM     14  C   UNL     1       1.835  -0.488   3.107  0.00  0.00    +0.008 A 
ATOM     15  C   UNL     1       1.895  -1.869   3.158  0.00  0.00    -0.033 A 
ATOM     16  C   UNL     1       1.322  -2.625   2.152  0.00  0.00    +0.008 A 
ATOM     17  C   UNL     1       0.682  -2.003   1.098  0.00  0.00    +0.046 A 
BRANCH  12  19
ATOM     18  C   UNL     1      -0.017   1.425   0.010  0.00  0.00    +0.277 C 
ATOM     19  O   UNL     1       0.002  -0.004   0.002  0.00  0.00    -0.495 OA
ENDBRANCH  12  19
ENDBRANCH   1  15
BRANCH   6  20
ATOM     20  O   UNL     1       0.685  -8.440   2.654  0.00  0.00    -0.483 OA
BRANCH  20  21
ATOM     21  C   UNL     1      -0.407  -9.206   3.164  0.00  0.00    +0.324 C 
BRANCH  21  22
ATOM     22  C   UNL     1      -0.501 -10.509   2.412  0.00  0.00    +0.251 C 
ATOM     23  O   UNL     1       0.290 -10.756   1.527  0.00  0.00    -0.272 OA
ATOM     24  N   UNL     1      -1.464 -11.399   2.723  0.00  0.00    -0.312 N 
ATOM     25  H   UNL     1      -2.097 -11.201   3.431  0.00  0.00    +0.149 HD
BRANCH  24  26
ATOM     26  C   UNL     1      -1.554 -12.666   1.992  0.00  0.00    +0.108 C 
BRANCH  26  27
ATOM     27  C   UNL     1      -2.724 -13.487   2.538  0.00  0.00    +0.052 C 
BRANCH  27  28
ATOM     28  C   UNL     1      -2.818 -14.790   1.786  0.00  0.00    -0.040 C 
ATOM     29  C   UNL     1      -2.289 -15.979   2.152  0.00  0.00    -0.001 A 
ATOM     30  C   UNL     1      -1.498 -16.401   3.315  0.00  0.00    +0.010 A 
ATOM     31  C   UNL     1      -1.103 -17.691   3.407  0.00  0.00    +0.001 A 
ATOM     32  C   UNL     1      -1.428 -18.633   2.421  0.00  0.00    +0.002 A 
ATOM     33  C   UNL     1      -2.151 -18.322   1.325  0.00  0.00    +0.026 A 
ATOM     34  C   UNL     1      -2.619 -16.994   1.126  0.00  0.00    +0.043 A 
ATOM     35  N   UNL     1      -3.325 -16.452   0.163  0.00  0.00    -0.380 N 
ATOM     36  C   UNL     1      -3.527 -15.033   0.473  0.00  0.00    +0.144 C 
ATOM     37  H   UNL     1      -3.660 -16.914  -0.622  0.00  0.00    +0.160 HD
ENDBRANCH  27  28
ENDBRANCH  26  27
ENDBRANCH  24  26
ENDBRANCH  21  22
ENDBRANCH  20  21
ENDBRANCH   6  20
TORSDOF 8
