REMARK  Name = ZINC42266206
REMARK  3 active torsions:
REMARK  status: ('A' for Active; 'I' for Inactive)
REMARK    1  A    between atoms: C_3  and  C_11
REMARK    2  A    between atoms: C_6  and  N_7
REMARK    3  A    between atoms: N_13  and  C_14
REMARK                            x       y       z     vdW  Elec       q    Type
REMARK                         _______ _______ _______ _____ _____    ______ ____
ROOT
ATOM      1  C   UNL     1       3.655   2.165  -0.028  0.00  0.00    +0.251 C 
ATOM      2  O   UNL     1       4.715   1.570  -0.037  0.00  0.00    -0.270 OA
ATOM      3  N   UNL     1       3.638   3.512  -0.015  0.00  0.00    -0.280 N 
ATOM      4  H   UNL     1       2.794   3.987  -0.073  0.00  0.00    +0.155 HD
ENDROOT
BRANCH   3   5
ATOM      5  C   UNL     1       4.838   4.227   0.083  0.00  0.00    +0.048 A 
ATOM      6  C   UNL     1       5.989   3.739  -0.522  0.00  0.00    +0.027 A 
ATOM      7  C   UNL     1       7.172   4.445  -0.425  0.00  0.00    +0.040 A 
ATOM      8  C   UNL     1       7.211   5.639   0.276  0.00  0.00    +0.125 A 
ATOM      9  C   UNL     1       6.066   6.128   0.880  0.00  0.00    +0.055 A 
ATOM     10  C   UNL     1       4.878   5.427   0.780  0.00  0.00    +0.042 A 
ATOM     11 BR   UNL     1       3.311   6.099   1.599  0.00  0.00    -0.048 Br
ATOM     12  F   UNL     1       8.370   6.328   0.370  0.00  0.00    -0.205 F 
ENDBRANCH   3   5
BRANCH   1  15
ATOM     13  C   UNL     1      -0.016   1.379  -0.022  0.00  0.00    +0.033 A 
ATOM     14  C   UNL     1       1.166   2.089  -0.019  0.00  0.00    +0.018 A 
ATOM     15  C   UNL     1       2.386   1.410  -0.030  0.00  0.00    +0.072 A 
ATOM     16  C   UNL     1       2.399   0.012  -0.043  0.00  0.00    +0.138 A 
ATOM     17  C   UNL     1       1.206  -0.687  -0.046  0.00  0.00    +0.071 A 
ATOM     18  C   UNL     1       0.003  -0.005  -0.035  0.00  0.00    +0.129 A 
ATOM     19  F   UNL     1       3.574  -0.655  -0.054  0.00  0.00    -0.205 F 
BRANCH  18  20
ATOM     20  N   UNL     1      -1.271  -0.759  -0.038  0.00  0.00    +0.057 N 
ATOM     21  O   UNL     1      -2.324  -0.166  -0.029  0.00  0.00    -0.126 OA
ATOM     22  O   UNL     1      -1.257  -1.968  -0.050  0.00  0.00    -0.126 OA
ENDBRANCH  18  20
ENDBRANCH   1  15
TORSDOF 3
