REMARK  Name = ZINC15119516
REMARK  3 active torsions:
REMARK  status: ('A' for Active; 'I' for Inactive)
REMARK    1  A    between atoms: C_1  and  C_2
REMARK    2  A    between atoms: C_11  and  C_12
REMARK    3  A    between atoms: C_11  and  O_13
REMARK                            x       y       z     vdW  Elec       q    Type
REMARK                         _______ _______ _______ _____ _____    ______ ____
ROOT
ATOM      1  C   UNL     1       3.327   0.598  -0.688  0.00  0.00    +0.010 C 
ATOM      2  C   UNL     1       2.018   1.256  -1.132  0.00  0.00    +0.021 C 
ATOM      3  C   UNL     1       2.307   2.588  -1.894  0.00  0.00    -0.005 C 
ATOM      4  C   UNL     1       3.318   3.347  -0.981  0.00  0.00    +0.004 C 
ATOM      5  C   UNL     1       2.487   3.774   0.251  0.00  0.00    +0.006 C 
ATOM      6  C   UNL     1       1.053   3.233  -0.034  0.00  0.00    +0.021 C 
ATOM      7  C   UNL     1       0.990   3.386  -1.594  0.00  0.00    +0.010 C 
ATOM      8  C   UNL     1       1.187   1.685   0.099  0.00  0.00    +0.069 C 
ATOM      9  C   UNL     1       1.920   1.321   1.391  0.00  0.00    +0.042 C 
ENDROOT
BRANCH   8  10
ATOM     10  O   UNL     1      -0.102   1.069   0.068  0.00  0.00    -0.388 OA
ATOM     11  H   UNL     1      -0.078   0.104   0.121  0.00  0.00    +0.210 HD
ENDBRANCH   8  10
TORSDOF 1
