REMARK  Name = ZINC35560081
REMARK  7 active torsions:
REMARK  status: ('A' for Active; 'I' for Inactive)
REMARK    1  A    between atoms: C_1  and  C_2
REMARK    2  A    between atoms: C_2  and  N_3
REMARK    3  A    between atoms: N_3  and  C_4
REMARK    4  A    between atoms: C_4  and  C_6
REMARK    5  A    between atoms: C_4  and  C_16
REMARK    6  A    between atoms: C_11  and  O_12
REMARK    7  A    between atoms: O_12  and  C_13
REMARK                            x       y       z     vdW  Elec       q    Type
REMARK                         _______ _______ _______ _____ _____    ______ ____
ROOT
ATOM      1  C   UNL     1       0.710  -1.947  -1.215  0.00  0.00    -0.005 C 
ENDROOT
BRANCH   1   2
ATOM      2  C   UNL     1       1.404  -2.489  -2.438  0.00  0.00    -0.035 A 
ATOM      3  C   UNL     1       1.651  -1.671  -3.525  0.00  0.00    +0.026 A 
ATOM      4  C   UNL     1       2.278  -2.191  -4.609  0.00  0.00    +0.056 A 
ATOM      5  S   UNL     1       2.539  -3.884  -4.109  0.00  0.00    -0.074 S 
ATOM      6  C   UNL     1       1.801  -3.784  -2.486  0.00  0.00    +0.058 A 
ATOM      7 BR   UNL     1       1.617  -5.136  -1.176  0.00  0.00    -0.042 Br
ATOM      8 BR   UNL     1       2.752  -1.342  -6.231  0.00  0.00    -0.043 Br
ENDBRANCH   1   2
BRANCH   1   9
ATOM      9  C   UNL     1      -0.755  -2.297  -1.272  0.00  0.00    -0.015 A 
ATOM     10  C   UNL     1      -1.270  -3.256  -0.421  0.00  0.00    +0.006 A 
ATOM     11  C   UNL     1      -2.614  -3.578  -0.473  0.00  0.00    +0.000 A 
ATOM     12  C   UNL     1      -3.445  -2.942  -1.376  0.00  0.00    +0.004 A 
ATOM     13  C   UNL     1      -2.935  -1.982  -2.229  0.00  0.00    +0.046 A 
ATOM     14  C   UNL     1      -1.588  -1.653  -2.175  0.00  0.00    +0.129 A 
BRANCH  14  15
ATOM     15  O   UNL     1      -1.085  -0.706  -3.009  0.00  0.00    -0.434 OA
BRANCH  15  16
ATOM     16  C   UNL     1      -2.001  -0.085  -3.913  0.00  0.00    +0.541 C 
ATOM     17  F   UNL     1      -2.566  -1.056  -4.746  0.00  0.00    -0.166 F 
ATOM     18  F   UNL     1      -3.013   0.553  -3.187  0.00  0.00    -0.166 F 
ENDBRANCH  15  16
ENDBRANCH  14  15
ENDBRANCH   1   9
BRANCH   1  19
ATOM     19  N   UNL     1       0.862  -0.486  -1.172  0.00  0.00    +0.386 N 
ATOM     20  H   UNL     1       0.390  -0.075  -1.963  0.00  0.00    -0.085 HD
ATOM     21  H   UNL     1       1.843  -0.249  -1.205  0.00  0.00    -0.085 HD
BRANCH  19  23
ATOM     22  C   UNL     1       0.434   1.552   0.116  0.00  0.00    -0.017 C 
ATOM     23  C   UNL     1       0.275   0.031   0.071  0.00  0.00    -0.085 C 
ENDBRANCH  19  23
ENDBRANCH   1  19
TORSDOF 6
