REMARK  Name = ZINC01251925
REMARK  9 active torsions:
REMARK  status: ('A' for Active; 'I' for Inactive)
REMARK    1  A    between atoms: C_1  and  C_2
REMARK    2  A    between atoms: C_5  and  C_8
REMARK    3  A    between atoms: C_11  and  S_20
REMARK    4  A    between atoms: N_12  and  C_13
REMARK    5  A    between atoms: C_16  and  C_19
REMARK    6  A    between atoms: S_20  and  C_21
REMARK    7  A    between atoms: C_21  and  C_22
REMARK    8  A    between atoms: N_24  and  N_25
REMARK    9  A    between atoms: C_26  and  C_27
REMARK                            x       y       z     vdW  Elec       q    Type
REMARK                         _______ _______ _______ _____ _____    ______ ____
ROOT
ATOM      1  C   UNL     1       2.047   0.585  -0.014  0.00  0.00    +0.169 A 
ATOM      2  N   UNL     1       1.214  -0.430  -0.012  0.00  0.00    -0.128 NA
ATOM      3  N   UNL     1       0.002  -0.004   0.002  0.00  0.00    -0.122 NA
ATOM      4  C   UNL     1      -0.016   1.310   0.009  0.00  0.00    +0.197 A 
ATOM      5  N   UNL     1       1.286   1.733  -0.001  0.00  0.00    -0.270 N 
ENDROOT
BRANCH   1  10
ATOM      6  C   UNL     1       7.794   0.293  -0.069  0.00  0.00    +0.044 C 
ATOM      7  C   UNL     1       6.289   0.370  -0.055  0.00  0.00    -0.050 A 
ATOM      8  C   UNL     1       5.540  -0.751  -0.364  0.00  0.00    +0.004 A 
ATOM      9  C   UNL     1       4.162  -0.689  -0.353  0.00  0.00    +0.012 A 
ATOM     10  C   UNL     1       3.523   0.510  -0.028  0.00  0.00    +0.020 A 
ATOM     11  C   UNL     1       4.285   1.639   0.278  0.00  0.00    +0.012 A 
ATOM     12  C   UNL     1       5.663   1.561   0.267  0.00  0.00    +0.004 A 
ENDBRANCH   1  10
BRANCH   5  13
ATOM     13  C   UNL     1       1.747   3.056   0.001  0.00  0.00    +0.051 A 
ATOM     14  C   UNL     1       2.450   3.550  -1.090  0.00  0.00    +0.026 A 
ATOM     15  C   UNL     1       2.899   4.856  -1.087  0.00  0.00    +0.005 A 
ATOM     16  C   UNL     1       2.658   5.669   0.005  0.00  0.00    -0.050 A 
ATOM     17  C   UNL     1       1.963   5.179   1.095  0.00  0.00    +0.005 A 
ATOM     18  C   UNL     1       1.507   3.875   1.097  0.00  0.00    +0.026 A 
ATOM     19  C   UNL     1       3.154   7.092   0.007  0.00  0.00    +0.044 C 
ENDBRANCH   5  13
BRANCH   4  20
ATOM     20  S   UNL     1      -1.448   2.336   0.022  0.00  0.00    -0.076 S 
BRANCH  20  21
ATOM     21  C   UNL     1      -2.742   1.071   0.022  0.00  0.00    +0.174 C 
BRANCH  21  22
ATOM     22  C   UNL     1      -4.094   1.735   0.033  0.00  0.00    +0.242 C 
ATOM     23  O   UNL     1      -4.176   2.945   0.039  0.00  0.00    -0.273 OA
ATOM     24  N   UNL     1      -5.214   0.984   0.035  0.00  0.00    -0.206 N 
ATOM     25  H   UNL     1      -5.149   0.016   0.029  0.00  0.00    +0.177 HD
BRANCH  24  26
ATOM     26  N   UNL     1      -6.471   1.601   0.044  0.00  0.00    -0.188 NA
ATOM     27  C   UNL     1      -7.549   0.878   0.046  0.00  0.00    +0.139 C 
BRANCH  27  28
ATOM     28  C   UNL     1      -8.873   1.528   0.056  0.00  0.00    +0.013 A 
ATOM     29  C   UNL     1     -10.044   0.760   0.053  0.00  0.00    +0.012 A 
ATOM     30  C   UNL     1     -11.260   1.418   0.068  0.00  0.00    +0.020 A 
ATOM     31  C   UNL     1     -11.282   2.802   0.075  0.00  0.00    +0.111 A 
ATOM     32  N   UNL     1     -10.163   3.501   0.073  0.00  0.00    -0.263 NA
ATOM     33  C   UNL     1      -8.980   2.921   0.064  0.00  0.00    +0.120 A 
ENDBRANCH  27  28
ENDBRANCH  24  26
ENDBRANCH  21  22
ENDBRANCH  20  21
ENDBRANCH   4  20
TORSDOF 7
