REMARK  Name = ZINC64343453
REMARK  4 active torsions:
REMARK  status: ('A' for Active; 'I' for Inactive)
REMARK    1  A    between atoms: C_4  and  C_7
REMARK    2  A    between atoms: C_8  and  N_15
REMARK    3  A    between atoms: C_16  and  C_18
REMARK    4  A    between atoms: C_18  and  C_19
REMARK                            x       y       z     vdW  Elec       q    Type
REMARK                         _______ _______ _______ _____ _____    ______ ____
ROOT
ATOM      1  N   UNL     1       3.069  -2.623   1.344  0.00  0.00    -0.269 N 
ATOM      2  C   UNL     1       3.436  -3.831   1.817  0.00  0.00    +0.222 C 
ATOM      3  O   UNL     1       4.573  -4.224   1.658  0.00  0.00    -0.275 OA
ATOM      4  H   UNL     1       2.182  -2.278   1.532  0.00  0.00    +0.156 HD
ENDROOT
BRANCH   1   6
ATOM      5  C   UNL     1       3.840  -1.566  -0.740  0.00  0.00    +0.112 A 
ATOM      6  C   UNL     1       3.965  -1.870   0.582  0.00  0.00    +0.138 A 
ATOM      7  N   UNL     1       5.147  -1.293   1.035  0.00  0.00    -0.281 N 
ATOM      8  C   UNL     1       5.859  -1.204   2.213  0.00  0.00    +0.102 A 
ATOM      9  C   UNL     1       7.007  -0.533   2.268  0.00  0.00    +0.067 A 
ATOM     10  S   UNL     1       7.177   0.049   0.588  0.00  0.00    -0.058 S 
ATOM     11  C   UNL     1       5.681  -0.660  -0.060  0.00  0.00    +0.179 A 
ATOM     12  N   UNL     1       4.918  -0.825  -1.100  0.00  0.00    -0.219 NA
BRANCH   5  16
ATOM     13  C   UNL     1       0.650  -2.746  -3.288  0.00  0.00    +0.000 A 
ATOM     14  C   UNL     1       1.254  -1.514  -3.466  0.00  0.00    +0.001 A 
ATOM     15  C   UNL     1       2.290  -1.125  -2.641  0.00  0.00    +0.010 A 
ATOM     16  C   UNL     1       2.728  -1.977  -1.628  0.00  0.00    +0.004 A 
ATOM     17  C   UNL     1       2.116  -3.218  -1.454  0.00  0.00    +0.010 A 
ATOM     18  C   UNL     1       1.081  -3.596  -2.285  0.00  0.00    +0.001 A 
ENDBRANCH   5  16
ENDBRANCH   1   6
BRANCH   2  19
ATOM     19  C   UNL     1       2.435  -4.692   2.543  0.00  0.00    +0.129 C 
BRANCH  19  20
ATOM     20  C   UNL     1       3.094  -5.980   2.966  0.00  0.00    -0.033 C 
ATOM     21  C   UNL     1       3.650  -6.252   4.169  0.00  0.00    -0.001 A 
ATOM     22  C   UNL     1       3.805  -5.460   5.395  0.00  0.00    +0.010 A 
ATOM     23  C   UNL     1       4.422  -6.017   6.462  0.00  0.00    +0.001 A 
ATOM     24  C   UNL     1       4.917  -7.328   6.426  0.00  0.00    +0.002 A 
ATOM     25  C   UNL     1       4.813  -8.117   5.335  0.00  0.00    +0.026 A 
ATOM     26  C   UNL     1       4.181  -7.634   4.156  0.00  0.00    +0.043 A 
ATOM     27  N   UNL     1       3.961  -8.194   2.992  0.00  0.00    -0.380 N 
ATOM     28  C   UNL     1       3.260  -7.232   2.135  0.00  0.00    +0.145 C 
ATOM     29  H   UNL     1       4.216  -9.095   2.740  0.00  0.00    +0.160 HD
ENDBRANCH  19  20
ENDBRANCH   2  19
TORSDOF 4
