REMARK  Name = ZINC05230796
REMARK  7 active torsions:
REMARK  status: ('A' for Active; 'I' for Inactive)
REMARK    1  A    between atoms: C_1  and  C_2
REMARK    2  A    between atoms: C_2  and  C_3
REMARK    3  A    between atoms: C_2  and  N_48
REMARK    4  A    between atoms: C_6  and  C_7
REMARK    5  A    between atoms: C_15  and  C_23
REMARK    6  A    between atoms: C_17  and  C_21
REMARK    7  A    between atoms: C_18  and  N_20
REMARK                            x       y       z     vdW  Elec       q    Type
REMARK                         _______ _______ _______ _____ _____    ______ ____
ROOT
ATOM      1  C   UNL     1       0.870   5.055   3.696  0.00  0.00    -0.038 C 
ATOM      2  C   UNL     1       0.669   5.789   2.386  0.00  0.00    -0.021 C 
ATOM      3  C   UNL     1       0.321   7.092   2.362  0.00  0.00    +0.020 C 
ATOM      4  C   UNL     1       0.867   5.026   1.139  0.00  0.00    +0.130 C 
ATOM      5  C   UNL     1       1.415   3.814   1.185  0.00  0.00    -0.031 C 
ATOM      6  C   UNL     1       1.821   3.183   2.497  0.00  0.00    -0.042 C 
ATOM      7  C   UNL     1       1.646   3.025  -0.082  0.00  0.00    +0.099 C 
ATOM      8  C   UNL     1       1.589   3.933  -1.278  0.00  0.00    +0.098 C 
ATOM      9  C   UNL     1       1.016   5.159  -1.191  0.00  0.00    +0.199 C 
ATOM     10  O   UNL     1       0.487   5.592  -0.033  0.00  0.00    -0.441 OA
ATOM     11  N   UNL     1       2.074   4.211   3.519  0.00  0.00    +0.387 N 
ATOM     12  H   UNL     1       2.854   4.803   3.211  0.00  0.00    -0.081 HD
ENDROOT
BRANCH   3  13
ATOM     13  C   UNL     1      -0.066   7.770   3.600  0.00  0.00    +0.012 A 
ATOM     14  C   UNL     1      -0.319   9.115   3.818  0.00  0.00    +0.015 A 
ATOM     15  C   UNL     1      -0.675   9.516   5.084  0.00  0.00    +0.008 A 
ATOM     16  C   UNL     1      -0.756   8.591   6.077  0.00  0.00    +0.046 A 
ATOM     17  S   UNL     1      -0.329   7.081   5.226  0.00  0.00    -0.097 S 
ENDBRANCH   3  13
BRANCH   7  18
ATOM     18  C   UNL     1       0.582   1.965  -0.210  0.00  0.00    +0.002 A 
ATOM     19  C   UNL     1       0.722   0.618  -0.267  0.00  0.00    +0.012 A 
ATOM     20  C   UNL     1      -0.408  -0.169  -0.386  0.00  0.00    +0.008 A 
ATOM     21  C   UNL     1      -1.623   0.430  -0.442  0.00  0.00    +0.045 A 
ATOM     22  S   UNL     1      -1.189   2.158  -0.325  0.00  0.00    -0.101 S 
ENDBRANCH   7  18
BRANCH  11  24
ATOM     23  C   UNL     1       1.242   2.792   5.364  0.00  0.00    -0.013 C 
ATOM     24  C   UNL     1       2.435   3.568   4.803  0.00  0.00    -0.074 C 
ATOM     25  C   UNL     1       3.604   2.609   4.572  0.00  0.00    -0.013 C 
ENDBRANCH  11  24
BRANCH   9  26
ATOM     26  N   UNL     1       0.975   5.968  -2.299  0.00  0.00    -0.328 N 
ATOM     27  H   UNL     1       1.354   5.662  -3.137  0.00  0.00    +0.145 HD
ATOM     28  H   UNL     1       0.567   6.846  -2.243  0.00  0.00    +0.145 HD
ENDBRANCH   9  26
BRANCH   8  29
ATOM     29  C   UNL     1       2.145   3.498  -2.524  0.00  0.00    +0.101 C 
ATOM     30  N   UNL     1       2.586   3.153  -3.512  0.00  0.00    -0.191 NA
ENDBRANCH   8  29
TORSDOF 5
