REMARK  Name = ZINC34686403
REMARK  12 active torsions:
REMARK  status: ('A' for Active; 'I' for Inactive)
REMARK    1  A    between atoms: C_1  and  C_2
REMARK    2  A    between atoms: C_2  and  C_3
REMARK    3  A    between atoms: C_3  and  C_5
REMARK    4  A    between atoms: C_3  and  O_15
REMARK    5  A    between atoms: N_7  and  C_8
REMARK    6  A    between atoms: C_8  and  C_9
REMARK    7  A    between atoms: C_9  and  N_10
REMARK    8  A    between atoms: O_15  and  C_16
REMARK    9  A    between atoms: C_22  and  C_32
REMARK   10  A    between atoms: C_27  and  C_29
REMARK   11  A    between atoms: C_29  and  C_30
REMARK   12  A    between atoms: C_29  and  C_31
REMARK                            x       y       z     vdW  Elec       q    Type
REMARK                         _______ _______ _______ _____ _____    ______ ____
ROOT
ATOM      1  C   UNL     1      -2.986   1.468  -0.905  0.00  0.00    +0.122 A 
ATOM      2  C   UNL     1      -2.943   2.534  -0.018  0.00  0.00    +0.046 A 
ATOM      3  C   UNL     1      -3.575   3.716  -0.337  0.00  0.00    +0.007 A 
ATOM      4  C   UNL     1      -4.254   3.854  -1.542  0.00  0.00    -0.040 A 
ATOM      5  C   UNL     1      -4.289   2.800  -2.427  0.00  0.00    -0.016 A 
ATOM      6  C   UNL     1      -3.656   1.608  -2.109  0.00  0.00    +0.051 A 
ATOM      7  C   UNL     1      -4.983   2.892  -3.763  0.00  0.00    +0.137 C 
ATOM      8  N   UNL     1      -5.802   4.108  -3.812  0.00  0.00    -0.290 N 
ATOM      9  C   UNL     1      -5.197   5.351  -3.306  0.00  0.00    +0.113 C 
ATOM     10  C   UNL     1      -4.933   5.171  -1.812  0.00  0.00    +0.054 C 
ATOM     11  C   UNL     1      -7.057   4.088  -4.302  0.00  0.00    +0.219 C 
ATOM     12  O   UNL     1      -7.509   3.065  -4.772  0.00  0.00    -0.275 OA
ENDROOT
BRANCH   7  13
ATOM     13  C   UNL     1      -5.866   1.685  -3.954  0.00  0.00    -0.020 A 
ATOM     14  C   UNL     1      -7.002   1.532  -3.180  0.00  0.00    +0.006 A 
ATOM     15  C   UNL     1      -7.813   0.426  -3.353  0.00  0.00    +0.003 A 
ATOM     16  C   UNL     1      -7.489  -0.528  -4.300  0.00  0.00    +0.038 A 
ATOM     17  C   UNL     1      -6.352  -0.375  -5.075  0.00  0.00    +0.124 A 
ATOM     18  C   UNL     1      -5.544   0.737  -4.905  0.00  0.00    +0.044 A 
ATOM     19  F   UNL     1      -6.035  -1.306  -6.001  0.00  0.00    -0.205 F 
ENDBRANCH   7  13
BRANCH  11  20
ATOM     20  C   UNL     1      -7.900   5.337  -4.265  0.00  0.00    +0.069 C 
ATOM     21  C   UNL     1      -9.175   5.116  -5.081  0.00  0.00    +0.017 C 
ATOM     22  C   UNL     1      -8.272   5.659  -2.816  0.00  0.00    +0.017 C 
ENDBRANCH  11  20
BRANCH   1  23
ATOM     23  O   UNL     1      -2.370   0.297  -0.597  0.00  0.00    -0.480 OA
BRANCH  23  24
ATOM     24  C   UNL     1      -1.803   0.186   0.710  0.00  0.00    +0.258 C 
BRANCH  24  25
ATOM     25  C   UNL     1      -2.037  -1.204   1.242  0.00  0.00    +0.254 C 
ATOM     26  O   UNL     1      -2.550  -2.046   0.536  0.00  0.00    -0.272 OA
ATOM     27  N   UNL     1      -1.677  -1.512   2.504  0.00  0.00    -0.314 N 
ATOM     28  H   UNL     1      -1.267  -0.839   3.070  0.00  0.00    +0.149 HD
BRANCH  27  29
ATOM     29  C   UNL     1      -1.905  -2.864   3.022  0.00  0.00    +0.086 C 
BRANCH  29  30
ATOM     30  C   UNL     1      -1.410  -2.946   4.467  0.00  0.00    -0.060 C 
BRANCH  30  31
ATOM     31  N   UNL     1      -1.638  -4.302   4.986  0.00  0.00    +0.381 N 
ATOM     32  C   UNL     1      -0.746  -5.270   4.299  0.00  0.00    -0.079 C 
ATOM     33  C   UNL     1      -0.683  -6.459   5.290  0.00  0.00    -0.020 C 
ATOM     34  C   UNL     1      -0.670  -5.760   6.669  0.00  0.00    -0.020 C 
ATOM     35  C   UNL     1      -1.276  -4.367   6.419  0.00  0.00    -0.079 C 
ATOM     36  H   UNL     1      -2.604  -4.565   4.859  0.00  0.00    -0.082 HD
ENDBRANCH  30  31
ENDBRANCH  29  30
ENDBRANCH  27  29
ENDBRANCH  24  25
BRANCH  24  38
ATOM     37  C   UNL     1      -0.063   1.910   0.217  0.00  0.00    +0.008 C 
ATOM     38  C   UNL     1      -0.299   0.458   0.639  0.00  0.00    +0.051 C 
ENDBRANCH  24  38
ENDBRANCH  23  24
ENDBRANCH   1  23
TORSDOF 9
