REMARK  Name = ZINC09048484
REMARK  10 active torsions:
REMARK  status: ('A' for Active; 'I' for Inactive)
REMARK    1  A    between atoms: C_1  and  C_2
REMARK    2  A    between atoms: C_2  and  C_34
REMARK    3  A    between atoms: N_5  and  C_9
REMARK    4  A    between atoms: C_9  and  C_10
REMARK    5  A    between atoms: N_12  and  C_13
REMARK    6  A    between atoms: C_13  and  C_14
REMARK    7  A    between atoms: C_14  and  C_16
REMARK    8  A    between atoms: C_14  and  C_24
REMARK    9  A    between atoms: C_19  and  O_22
REMARK   10  A    between atoms: O_22  and  C_23
REMARK                            x       y       z     vdW  Elec       q    Type
REMARK                         _______ _______ _______ _____ _____    ______ ____
ROOT
ATOM      1  C   UNL     1       4.277   4.612  -1.264  0.00  0.00    +0.117 C 
ENDROOT
BRANCH   1   4
ATOM      2  C   UNL     1       4.163   4.328  -3.681  0.00  0.00    +0.231 C 
ATOM      3  O   UNL     1       4.941   5.251  -3.797  0.00  0.00    -0.274 OA
ATOM      4  N   UNL     1       3.767   3.929  -2.456  0.00  0.00    -0.313 N 
ATOM      5  H   UNL     1       3.145   3.191  -2.363  0.00  0.00    +0.149 HD
BRANCH   2   6
ATOM      6  C   UNL     1       3.639   3.626  -4.907  0.00  0.00    +0.213 C 
BRANCH   6  11
ATOM      7  C   UNL     1       3.870   5.372  -9.262  0.00  0.00    +0.050 C 
ATOM      8  C   UNL     1       4.590   5.569  -7.927  0.00  0.00    +0.168 C 
ATOM      9  C   UNL     1       3.654   5.270  -6.772  0.00  0.00    +0.254 C 
ATOM     10  O   UNL     1       2.619   5.840  -6.503  0.00  0.00    -0.272 OA
ATOM     11  N   UNL     1       4.215   4.241  -6.106  0.00  0.00    -0.215 N 
ATOM     12  C   UNL     1       5.358   3.847  -6.678  0.00  0.00    +0.310 C 
ATOM     13  O   UNL     1       6.043   2.934  -6.260  0.00  0.00    -0.252 OA
ATOM     14  N   UNL     1       5.666   4.575  -7.766  0.00  0.00    -0.279 N 
ATOM     15  H   UNL     1       6.444   4.467  -8.335  0.00  0.00    +0.152 HD
BRANCH   8  16
ATOM     16  C   UNL     1       5.140   6.968  -7.821  0.00  0.00    +0.137 A 
ATOM     17  C   UNL     1       6.373   7.358  -8.190  0.00  0.00    +0.047 A 
ATOM     18  C   UNL     1       6.462   8.743  -7.920  0.00  0.00    +0.041 A 
ATOM     19  C   UNL     1       5.281   9.114  -7.394  0.00  0.00    +0.195 A 
ATOM     20  O   UNL     1       4.484   8.035  -7.337  0.00  0.00    -0.465 OA
ENDBRANCH   8  16
ENDBRANCH   6  11
ENDBRANCH   2   6
ENDBRANCH   1   4
BRANCH   1  21
ATOM     21  C   UNL     1       3.676   3.969  -0.012  0.00  0.00    +0.068 C 
BRANCH  21  22
ATOM     22  C   UNL     1       2.186   4.197   0.004  0.00  0.00    -0.013 A 
ATOM     23  C   UNL     1       1.560   5.385   0.016  0.00  0.00    +0.088 A 
ATOM     24  N   UNL     1       0.205   5.198   0.028  0.00  0.00    -0.360 N 
ATOM     25  H   UNL     1      -0.455   5.909   0.038  0.00  0.00    +0.165 HD
ATOM     26  C   UNL     1      -0.082   3.852   0.024  0.00  0.00    +0.047 A 
ATOM     27  C   UNL     1       1.147   3.166   0.008  0.00  0.00    +0.003 A 
ATOM     28  C   UNL     1       1.165   1.770   0.000  0.00  0.00    +0.010 A 
ATOM     29  C   UNL     1      -0.013   1.076   0.008  0.00  0.00    +0.001 A 
ATOM     30  C   UNL     1      -1.227   1.748   0.017  0.00  0.00    +0.002 A 
ATOM     31  C   UNL     1      -1.268   3.125   0.031  0.00  0.00    +0.026 A 
ENDBRANCH  21  22
BRANCH  21  32
ATOM     32  C   UNL     1       4.292   4.588   1.216  0.00  0.00    -0.038 A 
ATOM     33  C   UNL     1       4.169   5.947   1.440  0.00  0.00    +0.008 A 
ATOM     34  C   UNL     1       4.728   6.516   2.567  0.00  0.00    +0.046 A 
ATOM     35  C   UNL     1       5.424   5.725   3.470  0.00  0.00    +0.120 A 
ATOM     36  C   UNL     1       5.551   4.363   3.240  0.00  0.00    +0.046 A 
ATOM     37  C   UNL     1       4.984   3.797   2.114  0.00  0.00    +0.008 A 
BRANCH  35  38
ATOM     38  O   UNL     1       5.980   6.284   4.577  0.00  0.00    -0.495 OA
ATOM     39  C   UNL     1       5.809   7.692   4.748  0.00  0.00    +0.277 C 
ENDBRANCH  35  38
ENDBRANCH  21  32
ENDBRANCH   1  21
TORSDOF 8
