REMARK  Name = ZINC52566184
REMARK  7 active torsions:
REMARK  status: ('A' for Active; 'I' for Inactive)
REMARK    1  A    between atoms: C_7  and  C_10
REMARK    2  A    between atoms: C_10  and  C_11
REMARK    3  A    between atoms: C_11  and  C_13
REMARK    4  A    between atoms: C_11  and  N_31
REMARK    5  A    between atoms: C_13  and  O_14
REMARK    6  A    between atoms: O_14  and  C_15
REMARK    7  A    between atoms: C_17  and  C_21
REMARK                            x       y       z     vdW  Elec       q    Type
REMARK                         _______ _______ _______ _____ _____    ______ ____
ROOT
ATOM      1  O   UNL     1      -0.519  -5.425  -2.785  0.00  0.00    -0.492 OA
ENDROOT
BRANCH   1   2
ATOM      2  C   UNL     1      -1.252  -6.557  -2.953  0.00  0.00    +0.139 A 
ATOM      3  C   UNL     1      -1.412  -7.110  -4.217  0.00  0.00    +0.057 A 
ATOM      4  C   UNL     1      -2.174  -8.274  -4.339  0.00  0.00    +0.004 A 
ATOM      5  C   UNL     1      -2.741  -8.832  -3.194  0.00  0.00    +0.119 A 
ATOM      6  N   UNL     1      -2.564  -8.274  -2.015  0.00  0.00    -0.259 NA
ATOM      7  C   UNL     1      -1.846  -7.178  -1.863  0.00  0.00    +0.156 A 
BRANCH   4   8
ATOM      8  C   UNL     1      -2.377  -8.907  -5.665  0.00  0.00    -0.016 A 
ATOM      9  C   UNL     1      -1.802  -8.346  -6.805  0.00  0.00    +0.010 A 
ATOM     10  C   UNL     1      -1.990  -8.932  -8.037  0.00  0.00    +0.024 A 
ATOM     11  C   UNL     1      -2.757 -10.092  -8.154  0.00  0.00    +0.037 A 
ATOM     12  C   UNL     1      -3.327 -10.645  -7.013  0.00  0.00    -0.017 A 
ATOM     13  C   UNL     1      -3.139 -10.070  -5.779  0.00  0.00    +0.014 A 
ATOM     14  C   UNL     1      -4.082 -11.873  -7.468  0.00  0.00    +0.133 C 
ATOM     15  C   UNL     1      -3.854 -11.912  -8.964  0.00  0.00    +0.222 C 
ATOM     16  O   UNL     1      -4.285 -12.741  -9.737  0.00  0.00    -0.275 OA
ATOM     17  N   UNL     1      -3.085 -10.855  -9.274  0.00  0.00    -0.285 N 
ATOM     18  H   UNL     1      -2.790 -10.647 -10.175  0.00  0.00    +0.155 HD
ENDBRANCH   4   8
ENDBRANCH   1   2
BRANCH   1  19
ATOM     19  C   UNL     1      -0.398  -4.923  -1.452  0.00  0.00    +0.213 C 
BRANCH  19  20
ATOM     20  C   UNL     1       0.457  -3.653  -1.462  0.00  0.00    -0.033 C 
BRANCH  20  21
ATOM     21  N   UNL     1      -0.240  -2.600  -2.212  0.00  0.00    +0.382 N 
ATOM     22  H   UNL     1      -1.127  -2.405  -1.773  0.00  0.00    -0.089 HD
ATOM     23  H   UNL     1       0.323  -1.763  -2.218  0.00  0.00    -0.089 HD
ATOM     24  H   UNL     1      -0.394  -2.909  -3.160  0.00  0.00    -0.089 HD
ENDBRANCH  20  21
BRANCH  20  25
ATOM     25  C   UNL     1       0.691  -3.186  -0.024  0.00  0.00    +0.020 C 
BRANCH  25  32
ATOM     26  C   UNL     1      -0.016   1.348   0.009  0.00  0.00    +0.001 A 
ATOM     27  C   UNL     1       1.166   2.101   0.002  0.00  0.00    +0.002 A 
ATOM     28  C   UNL     1       2.391   1.535  -0.013  0.00  0.00    +0.026 A 
ATOM     29  C   UNL     1       2.529   0.120  -0.022  0.00  0.00    +0.043 A 
ATOM     30  N   UNL     1       3.587  -0.654  -0.037  0.00  0.00    -0.380 N 
ATOM     31  C   UNL     1       3.143  -2.053  -0.041  0.00  0.00    +0.144 C 
ATOM     32  C   UNL     1       1.631  -2.008  -0.025  0.00  0.00    -0.043 C 
ATOM     33  C   UNL     1       1.295  -0.698  -0.014  0.00  0.00    -0.001 A 
ATOM     34  C   UNL     1       0.002  -0.004   0.002  0.00  0.00    +0.010 A 
ATOM     35  H   UNL     1       4.509  -0.353  -0.045  0.00  0.00    +0.160 HD
ENDBRANCH  25  32
ENDBRANCH  20  25
ENDBRANCH  19  20
ENDBRANCH   1  19
TORSDOF 7
