REMARK  Name = ZINC13639555
REMARK  8 active torsions:
REMARK  status: ('A' for Active; 'I' for Inactive)
REMARK    1  A    between atoms: C_1  and  C_2
REMARK    2  A    between atoms: C_2  and  N_3
REMARK    3  A    between atoms: N_3  and  C_4
REMARK    4  A    between atoms: N_3  and  S_10
REMARK    5  A    between atoms: S_10  and  C_13
REMARK    6  A    between atoms: C_26  and  C_29
REMARK    7  A    between atoms: C_32  and  O_36
REMARK    8  A    between atoms: C_34  and  O_35
REMARK                            x       y       z     vdW  Elec       q    Type
REMARK                         _______ _______ _______ _____ _____    ______ ____
ROOT
ATOM      1  C   UNL     1      -4.250   4.901   2.082  0.00  0.00    +0.109 A 
ATOM      2  C   UNL     1      -4.424   3.820   2.928  0.00  0.00    +0.030 A 
ATOM      3  C   UNL     1      -3.453   2.841   2.994  0.00  0.00    +0.025 A 
ATOM      4  C   UNL     1      -2.308   2.943   2.215  0.00  0.00    +0.031 A 
ATOM      5  C   UNL     1      -2.130   4.006   1.361  0.00  0.00    -0.018 A 
ATOM      6  C   UNL     1      -3.113   5.003   1.308  0.00  0.00    +0.034 A 
ATOM      7  C   UNL     1      -0.916   4.176   0.505  0.00  0.00    +0.049 C 
ATOM      8  C   UNL     1      -1.212   3.860  -0.942  0.00  0.00    -0.023 C 
ATOM      9  C   UNL     1      -0.186   3.259  -1.494  0.00  0.00    -0.030 C 
ATOM     10  C   UNL     1       0.939   3.097  -0.489  0.00  0.00    +0.033 C 
ATOM     11  C   UNL     1       0.215   3.197   0.886  0.00  0.00    +0.029 C 
ATOM     12  C   UNL     1      -0.374   1.816   1.191  0.00  0.00    +0.108 C 
ATOM     13  N   UNL     1      -1.334   1.942   2.292  0.00  0.00    -0.336 N 
ATOM     14  H   UNL     1      -1.294   1.345   3.056  0.00  0.00    +0.147 HD
ENDROOT
BRANCH  12  15
ATOM     15  C   UNL     1      -1.074   1.284  -0.034  0.00  0.00    +0.015 A 
ATOM     16  C   UNL     1      -2.411   1.563  -0.240  0.00  0.00    +0.012 A 
ATOM     17  C   UNL     1      -3.054   1.081  -1.364  0.00  0.00    +0.046 A 
ATOM     18  C   UNL     1      -2.361   0.307  -2.283  0.00  0.00    +0.120 A 
ATOM     19  C   UNL     1      -1.020   0.021  -2.076  0.00  0.00    +0.091 A 
ATOM     20  C   UNL     1      -0.376   0.510  -0.950  0.00  0.00    +0.125 A 
BRANCH  20  21
ATOM     21  O   UNL     1       0.938   0.232  -0.743  0.00  0.00    -0.506 OA
ATOM     22  H   UNL     1       1.094  -0.578  -0.238  0.00  0.00    +0.292 HD
ENDBRANCH  20  21
BRANCH  18  23
ATOM     23  O   UNL     1      -2.995  -0.171  -3.386  0.00  0.00    -0.507 OA
ATOM     24  H   UNL     1      -3.403  -1.039  -3.260  0.00  0.00    +0.292 HD
ENDBRANCH  18  23
ENDBRANCH  12  15
BRANCH   1  25
ATOM     25  S   UNL     1      -5.486   6.153   1.994  0.00  0.00    +0.075 S 
ATOM     26  O   UNL     1      -5.341   6.779   0.727  0.00  0.00    -0.150 OA
ATOM     27  O   UNL     1      -6.704   5.552   2.412  0.00  0.00    -0.150 OA
BRANCH  25  28
ATOM     28  N   UNL     1      -5.108   7.295   3.133  0.00  0.00    -0.203 N 
BRANCH  28  29
ATOM     29  C   UNL     1      -5.702   7.246   4.396  0.00  0.00    +0.051 A 
ATOM     30  C   UNL     1      -4.914   7.096   5.530  0.00  0.00    +0.025 A 
ATOM     31  C   UNL     1      -5.504   7.052   6.778  0.00  0.00    +0.002 A 
ATOM     32  C   UNL     1      -6.878   7.146   6.898  0.00  0.00    +0.000 A 
ATOM     33  C   UNL     1      -7.666   7.290   5.771  0.00  0.00    +0.002 A 
ATOM     34  C   UNL     1      -7.082   7.340   4.521  0.00  0.00    +0.025 A 
ENDBRANCH  28  29
BRANCH  28  36
ATOM     35  C   UNL     1      -4.907   9.602   2.346  0.00  0.00    +0.026 C 
ATOM     36  C   UNL     1      -4.151   8.357   2.814  0.00  0.00    +0.128 C 
ENDBRANCH  28  36
ENDBRANCH  25  28
ENDBRANCH   1  25
TORSDOF 7
