REMARK  Name = ZINC39143740
REMARK  6 active torsions:
REMARK  status: ('A' for Active; 'I' for Inactive)
REMARK    1  A    between atoms: C_1  and  C_2
REMARK    2  A    between atoms: C_4  and  C_26
REMARK    3  A    between atoms: C_5  and  N_9
REMARK    4  A    between atoms: C_6  and  C_8
REMARK    5  A    between atoms: C_14  and  C_18
REMARK    6  A    between atoms: C_18  and  C_19
REMARK                            x       y       z     vdW  Elec       q    Type
REMARK                         _______ _______ _______ _____ _____    ______ ____
ROOT
ATOM      1  N   UNL     1      -0.373  -4.085   0.226  0.00  0.00    -0.286 N 
ATOM      2  C   UNL     1      -0.376  -4.636   1.474  0.00  0.00    +0.205 C 
ATOM      3  N   UNL     1      -0.101  -3.851   2.494  0.00  0.00    -0.146 NA
ATOM      4  C   UNL     1      -0.089  -4.340   3.744  0.00  0.00    +0.266 C 
ATOM      5  O   UNL     1       0.161  -3.636   4.701  0.00  0.00    -0.271 OA
ATOM      6  C   UNL     1      -0.405  -5.816   3.902  0.00  0.00    +0.218 C 
ATOM      7  N   UNL     1      -0.693  -6.563   2.666  0.00  0.00    -0.196 NA
ATOM      8  N   UNL     1      -0.668  -5.960   1.586  0.00  0.00    -0.254 N 
ATOM      9  H   UNL     1      -0.489  -4.650  -0.553  0.00  0.00    +0.155 HD
ATOM     10  H   UNL     1      -0.863  -6.457   0.776  0.00  0.00    +0.191 HD
ENDROOT
BRANCH   1  15
ATOM     11  C   UNL     1       0.318   1.508  -0.405  0.00  0.00    +0.044 C 
ATOM     12  C   UNL     1       0.134   0.022  -0.237  0.00  0.00    -0.050 A 
ATOM     13  C   UNL     1       1.147  -0.740   0.315  0.00  0.00    +0.008 A 
ATOM     14  C   UNL     1       0.982  -2.103   0.470  0.00  0.00    -0.029 A 
ATOM     15  C   UNL     1      -0.203  -2.707   0.071  0.00  0.00    +0.039 A 
ATOM     16  C   UNL     1      -1.219  -1.938  -0.483  0.00  0.00    -0.029 A 
ATOM     17  C   UNL     1      -1.049  -0.576  -0.631  0.00  0.00    +0.008 A 
ATOM     18  C   UNL     1      -2.507  -2.589  -0.917  0.00  0.00    +0.045 C 
ATOM     19  C   UNL     1       2.087  -2.933   1.071  0.00  0.00    +0.045 C 
ENDBRANCH   1  15
BRANCH   6  20
ATOM     20  C   UNL     1       0.785  -6.484   4.592  0.00  0.00    +0.074 C 
BRANCH  20  21
ATOM     21  C   UNL     1       0.456  -7.927   4.876  0.00  0.00    -0.027 A 
ATOM     22  C   UNL     1      -0.049  -8.291   6.111  0.00  0.00    +0.005 A 
ATOM     23  C   UNL     1      -0.350  -9.614   6.372  0.00  0.00    +0.000 A 
ATOM     24  C   UNL     1      -0.148 -10.575   5.398  0.00  0.00    +0.001 A 
ATOM     25  C   UNL     1       0.356 -10.213   4.164  0.00  0.00    +0.020 A 
ATOM     26  C   UNL     1       0.653  -8.887   3.900  0.00  0.00    +0.044 A 
ATOM     27 CL   UNL     1       1.281  -8.430   2.347  0.00  0.00    -0.083 Cl
ENDBRANCH  20  21
ENDBRANCH   6  20
TORSDOF 3
