REMARK  Name = ZINC22637325
REMARK  11 active torsions:
REMARK  status: ('A' for Active; 'I' for Inactive)
REMARK    1  A    between atoms: C_1  and  C_2
REMARK    2  A    between atoms: C_2  and  C_27
REMARK    3  A    between atoms: N_3  and  N_4
REMARK    4  A    between atoms: C_5  and  C_7
REMARK    5  A    between atoms: C_7  and  N_18
REMARK    6  A    between atoms: C_8  and  C_9
REMARK    7  A    between atoms: C_12  and  N_15
REMARK    8  A    between atoms: N_15  and  C_16
REMARK    9  A    between atoms: N_15  and  C_17
REMARK   10  A    between atoms: C_19  and  C_21
REMARK   11  A    between atoms: C_28  and  C_29
REMARK                            x       y       z     vdW  Elec       q    Type
REMARK                         _______ _______ _______ _____ _____    ______ ____
ROOT
ATOM      1  C   UNL     1      -1.463  -1.437   0.269  0.00  0.00    +0.098 C 
ATOM      2  C   UNL     1      -2.766  -1.794   0.376  0.00  0.00    +0.036 C 
ENDROOT
BRANCH   2   3
ATOM      3  C   UNL     1      -3.810  -0.761   0.414  0.00  0.00    -0.023 A 
ATOM      4  C   UNL     1      -3.508   0.525   0.878  0.00  0.00    +0.010 A 
ATOM      5  C   UNL     1      -4.488   1.491   0.907  0.00  0.00    +0.023 A 
ATOM      6  C   UNL     1      -5.780   1.188   0.486  0.00  0.00    +0.029 A 
ATOM      7  C   UNL     1      -6.085  -0.091   0.029  0.00  0.00    +0.023 A 
ATOM      8  C   UNL     1      -5.111  -1.062  -0.008  0.00  0.00    +0.010 A 
BRANCH   6   9
ATOM      9  N   UNL     1      -6.770   2.167   0.523  0.00  0.00    -0.336 N 
ATOM     10  C   UNL     1      -8.155   1.821   0.194  0.00  0.00    +0.129 C 
ATOM     11  C   UNL     1      -6.426   3.542   0.891  0.00  0.00    +0.129 C 
ENDBRANCH   6   9
ENDBRANCH   2   3
BRANCH   1  13
ATOM     12  N   UNL     1       0.881  -2.107   0.223  0.00  0.00    -0.202 N 
ATOM     13  C   UNL     1      -0.412  -2.455   0.373  0.00  0.00    +0.277 C 
ATOM     14  O   UNL     1      -0.709  -3.615   0.594  0.00  0.00    -0.267 OA
ATOM     15  H   UNL     1       1.155  -1.049   0.101  0.00  0.00    +0.178 HD
BRANCH  12  18
ATOM     16  C   UNL     1       3.518  -1.294   0.207  0.00  0.00    +0.067 C 
ATOM     17  C   UNL     1       3.133  -2.750   0.176  0.00  0.00    +0.056 C 
ATOM     18  N   UNL     1       1.877  -3.093   0.224  0.00  0.00    -0.185 NA
BRANCH  17  19
ATOM     19  C   UNL     1       4.137  -3.748   0.095  0.00  0.00    +0.025 C 
ATOM     20  C   UNL     1       3.792  -5.052   0.068  0.00  0.00    +0.010 C 
BRANCH  20  21
ATOM     21  C   UNL     1       4.834  -6.087  -0.016  0.00  0.00    -0.025 A 
ATOM     22  C   UNL     1       6.183  -5.723  -0.073  0.00  0.00    +0.008 A 
ATOM     23  C   UNL     1       7.155  -6.699  -0.145  0.00  0.00    +0.001 A 
ATOM     24  C   UNL     1       6.797  -8.036  -0.174  0.00  0.00    +0.000 A 
ATOM     25  C   UNL     1       5.463  -8.404  -0.123  0.00  0.00    +0.001 A 
ATOM     26  C   UNL     1       4.481  -7.440  -0.045  0.00  0.00    +0.008 A 
ENDBRANCH  20  21
ENDBRANCH  17  19
ENDBRANCH  12  18
ENDBRANCH   1  13
BRANCH   1  27
ATOM     27  N   UNL     1      -1.120  -0.097   0.059  0.00  0.00    -0.277 N 
ATOM     28  C   UNL     1      -0.334   0.545   0.946  0.00  0.00    +0.248 C 
ATOM     29  O   UNL     1      -0.005  -0.008   1.978  0.00  0.00    -0.270 OA
ATOM     30  H   UNL     1      -1.492   0.433  -0.831  0.00  0.00    +0.155 HD
BRANCH  28  31
ATOM     31  C   UNL     1       0.129   1.920   0.664  0.00  0.00    +0.037 A 
ATOM     32  C   UNL     1      -0.241   2.555  -0.523  0.00  0.00    +0.013 A 
ATOM     33  C   UNL     1       0.190   3.840  -0.777  0.00  0.00    +0.001 A 
ATOM     34  C   UNL     1       0.997   4.496   0.136  0.00  0.00    +0.000 A 
ATOM     35  C   UNL     1       1.372   3.870   1.311  0.00  0.00    +0.001 A 
ATOM     36  C   UNL     1       0.943   2.587   1.581  0.00  0.00    +0.013 A 
ENDBRANCH  28  31
ENDBRANCH   1  27
TORSDOF 8
