REMARK  Name = ZINC21218977
REMARK  14 active torsions:
REMARK  status: ('A' for Active; 'I' for Inactive)
REMARK    1  A    between atoms: C_1  and  O_2
REMARK    2  A    between atoms: O_2  and  C_3
REMARK    3  A    between atoms: C_5  and  C_13
REMARK    4  A    between atoms: C_7  and  O_11
REMARK    5  A    between atoms: C_8  and  O_9
REMARK    6  A    between atoms: O_9  and  C_10
REMARK    7  A    between atoms: O_11  and  C_12
REMARK    8  A    between atoms: C_18  and  C_24
REMARK    9  A    between atoms: C_26  and  O_34
REMARK   10  A    between atoms: C_27  and  O_32
REMARK   11  A    between atoms: C_28  and  O_30
REMARK   12  A    between atoms: O_30  and  C_31
REMARK   13  A    between atoms: O_32  and  C_33
REMARK   14  A    between atoms: O_34  and  C_35
REMARK                            x       y       z     vdW  Elec       q    Type
REMARK                         _______ _______ _______ _____ _____    ______ ____
ROOT
ATOM      1  C   UNL     1       0.212   6.048  -0.478  0.00  0.00    +0.032 C 
ATOM      2  C   UNL     1      -0.456   5.786  -1.831  0.00  0.00    +0.059 C 
ATOM      3  C   UNL     1       0.156   6.682  -2.879  0.00  0.00    +0.018 C 
ATOM      4  C   UNL     1       1.446   7.069  -2.790  0.00  0.00    +0.020 C 
ATOM      5  C   UNL     1       2.039   7.961  -3.855  0.00  0.00    +0.063 C 
ATOM      6  C   UNL     1       1.426   7.609  -5.212  0.00  0.00    +0.109 C 
ATOM      7  C   UNL     1      -0.073   7.538  -5.072  0.00  0.00    +0.218 C 
ATOM      8  O   UNL     1      -0.783   7.878  -5.994  0.00  0.00    -0.275 OA
ATOM      9  N   UNL     1      -0.624   7.097  -3.928  0.00  0.00    -0.289 N 
ATOM     10  C   UNL     1       2.260   6.663  -1.719  0.00  0.00    +0.162 C 
ATOM     11  O   UNL     1       3.420   7.020  -1.681  0.00  0.00    -0.292 OA
ATOM     12  C   UNL     1       1.716   5.792  -0.619  0.00  0.00    +0.088 C 
ATOM     13  H   UNL     1      -1.720   7.072  -3.842  0.00  0.00    +0.155 HD
ENDROOT
BRANCH   1  16
ATOM     14  C   UNL     1      -0.787   2.893   1.346  0.00  0.00    +0.165 A 
ATOM     15  C   UNL     1      -0.254   3.751   0.397  0.00  0.00    +0.053 A 
ATOM     16  C   UNL     1      -0.365   5.119   0.559  0.00  0.00    -0.036 A 
ATOM     17  C   UNL     1      -0.999   5.638   1.672  0.00  0.00    +0.053 A 
ATOM     18  C   UNL     1      -1.531   4.787   2.629  0.00  0.00    +0.165 A 
ATOM     19  C   UNL     1      -1.426   3.410   2.467  0.00  0.00    +0.204 A 
BRANCH  14  21
ATOM     20  C   UNL     1      -0.013   1.086   0.008  0.00  0.00    +0.277 C 
ATOM     21  O   UNL     1      -0.682   1.547   1.184  0.00  0.00    -0.491 OA
ENDBRANCH  14  21
BRANCH  19  22
ATOM     22  O   UNL     1      -1.946   2.571   3.404  0.00  0.00    -0.488 OA
ATOM     23  C   UNL     1      -1.086   2.183   4.477  0.00  0.00    +0.277 C 
ENDBRANCH  19  22
BRANCH  18  24
ATOM     24  O   UNL     1      -2.155   5.298   3.724  0.00  0.00    -0.491 OA
ATOM     25  C   UNL     1      -2.226   6.721   3.825  0.00  0.00    +0.277 C 
ENDBRANCH  18  24
ENDBRANCH   1  16
BRANCH   5  26
ATOM     26  C   UNL     1       1.742   9.401  -3.527  0.00  0.00    -0.032 A 
ATOM     27  C   UNL     1       0.432   9.830  -3.430  0.00  0.00    +0.054 A 
ATOM     28  C   UNL     1       0.154  11.153  -3.123  0.00  0.00    +0.165 A 
ATOM     29  C   UNL     1       1.195  12.052  -2.924  0.00  0.00    +0.204 A 
ATOM     30  C   UNL     1       2.512  11.618  -3.029  0.00  0.00    +0.165 A 
ATOM     31  C   UNL     1       2.781  10.292  -3.330  0.00  0.00    +0.054 A 
BRANCH  30  32
ATOM     32  O   UNL     1       3.534  12.494  -2.835  0.00  0.00    -0.491 OA
ATOM     33  C   UNL     1       4.862  11.978  -2.958  0.00  0.00    +0.277 C 
ENDBRANCH  30  32
BRANCH  29  34
ATOM     34  O   UNL     1       0.927  13.353  -2.628  0.00  0.00    -0.488 OA
ATOM     35  C   UNL     1       0.793  14.255  -3.729  0.00  0.00    +0.277 C 
ENDBRANCH  29  34
BRANCH  28  36
ATOM     36  O   UNL     1      -1.136  11.573  -3.022  0.00  0.00    -0.491 OA
ATOM     37  C   UNL     1      -2.155  10.595  -3.239  0.00  0.00    +0.277 C 
ENDBRANCH  28  36
ENDBRANCH   5  26
TORSDOF 8
