REMARK  Name = ZINC63742965
REMARK  10 active torsions:
REMARK  status: ('A' for Active; 'I' for Inactive)
REMARK    1  A    between atoms: C_1  and  C_2
REMARK    2  A    between atoms: C_2  and  O_3
REMARK    3  A    between atoms: O_3  and  C_4
REMARK    4  A    between atoms: C_4  and  C_6
REMARK    5  A    between atoms: C_11  and  N_13
REMARK    6  A    between atoms: C_14  and  C_16
REMARK    7  A    between atoms: C_16  and  S_17
REMARK    8  A    between atoms: S_17  and  C_18
REMARK    9  A    between atoms: C_24  and  O_28
REMARK   10  A    between atoms: O_28  and  C_29
REMARK                            x       y       z     vdW  Elec       q    Type
REMARK                         _______ _______ _______ _____ _____    ______ ____
ROOT
ATOM      1  C   UNL     1       0.414  -6.130   5.384  0.00  0.00    +0.168 C 
ENDROOT
BRANCH   1   3
ATOM      2  N   UNL     1       1.377  -4.523   3.770  0.00  0.00    -0.301 N 
ATOM      3  C   UNL     1       0.503  -5.520   4.009  0.00  0.00    +0.224 C 
ATOM      4  O   UNL     1      -0.212  -5.927   3.118  0.00  0.00    -0.275 OA
ATOM      5  H   UNL     1       1.949  -4.198   4.483  0.00  0.00    +0.150 HD
BRANCH   2  10
ATOM      6  C   UNL     1       1.516  -2.381   2.500  0.00  0.00    +0.151 C 
ATOM      7  C   UNL     1       2.932  -1.899   2.504  0.00  0.00    -0.003 C 
ATOM      8  C   UNL     1       3.898  -2.701   2.102  0.00  0.00    +0.039 C 
ATOM      9  S   UNL     1       3.107  -4.239   1.664  0.00  0.00    -0.110 S 
ATOM     10  C   UNL     1       1.464  -3.930   2.433  0.00  0.00    +0.153 C 
BRANCH   6  11
ATOM     11  C   UNL     1       0.801  -1.808   1.304  0.00  0.00    +0.317 C 
ATOM     12  O   UNL     1       0.324  -2.546   0.475  0.00  0.00    -0.250 OA
BRANCH  11  13
ATOM     13  O   UNL     1       0.693  -0.477   1.160  0.00  0.00    -0.464 OA
BRANCH  13  15
ATOM     14  C   UNL     1      -0.019   1.526   0.010  0.00  0.00    +0.048 C 
ATOM     15  C   UNL     1       0.002  -0.004   0.002  0.00  0.00    +0.229 C 
ENDBRANCH  13  15
ENDBRANCH  11  13
ENDBRANCH   6  11
ENDBRANCH   2  10
ENDBRANCH   1   3
BRANCH   1  16
ATOM     16  S   UNL     1      -0.844  -7.437   5.385  0.00  0.00    -0.106 S 
BRANCH  16  17
ATOM     17  C   UNL     1      -0.828  -8.061   7.089  0.00  0.00    +0.236 C 
ATOM     18  N   UNL     1      -1.109  -6.968   8.028  0.00  0.00    -0.355 N 
ATOM     19  C   UNL     1      -0.076  -6.848   8.812  0.00  0.00    +0.061 A 
ATOM     20  C   UNL     1       0.216  -5.939   9.930  0.00  0.00    +0.031 A 
ATOM     21  C   UNL     1       1.391  -6.037  10.581  0.00  0.00    +0.048 A 
ATOM     22  C   UNL     1       2.396  -7.024  10.211  0.00  0.00    +0.122 A 
ATOM     23  C   UNL     1       2.201  -7.897   9.193  0.00  0.00    +0.073 A 
ATOM     24  C   UNL     1       0.949  -7.858   8.433  0.00  0.00    +0.064 A 
ATOM     25  N   UNL     1       0.509  -8.566   7.427  0.00  0.00    -0.355 N 
ATOM     26  H   UNL     1      -1.917  -6.433   8.059  0.00  0.00    +0.162 HD
ATOM     27  H   UNL     1       0.977  -9.291   6.986  0.00  0.00    +0.162 HD
BRANCH  22  28
ATOM     28  O   UNL     1       3.560  -7.071  10.905  0.00  0.00    -0.495 OA
ATOM     29  C   UNL     1       3.720  -6.131  11.970  0.00  0.00    +0.277 C 
ENDBRANCH  22  28
ENDBRANCH  16  17
ENDBRANCH   1  16
TORSDOF 8
