REMARK  Name = ZINC03655630
REMARK  9 active torsions:
REMARK  status: ('A' for Active; 'I' for Inactive)
REMARK    1  A    between atoms: C_1  and  C_2
REMARK    2  A    between atoms: C_2  and  C_3
REMARK    3  A    between atoms: C_2  and  C_4
REMARK    4  A    between atoms: C_7  and  O_10
REMARK    5  A    between atoms: O_10  and  C_11
REMARK    6  A    between atoms: C_11  and  C_12
REMARK    7  A    between atoms: N_14  and  C_15
REMARK    8  A    between atoms: C_23  and  C_24
REMARK    9  A    between atoms: C_24  and  C_26
REMARK                            x       y       z     vdW  Elec       q    Type
REMARK                         _______ _______ _______ _____ _____    ______ ____
ROOT
ATOM      1  C   UNL     1      -4.445   6.154   7.613  0.00  0.00    +0.091 A 
ATOM      2  C   UNL     1      -5.223   5.196   8.407  0.00  0.00    +0.042 A 
ATOM      3  C   UNL     1      -5.452   3.822   8.315  0.00  0.00    +0.013 A 
ATOM      4  C   UNL     1      -6.242   3.203   9.243  0.00  0.00    +0.001 A 
ATOM      5  C   UNL     1      -6.812   3.931  10.278  0.00  0.00    +0.004 A 
ATOM      6  C   UNL     1      -6.593   5.287  10.388  0.00  0.00    +0.047 A 
ATOM      7  C   UNL     1      -5.793   5.938   9.456  0.00  0.00    +0.138 A 
ATOM      8  O   UNL     1      -5.411   7.223   9.313  0.00  0.00    -0.450 OA
ATOM      9  C   UNL     1      -4.614   7.377   8.232  0.00  0.00    +0.197 A 
ENDROOT
BRANCH   1  12
ATOM     10  C   UNL     1      -3.188   4.656   6.274  0.00  0.00    +0.255 C 
ATOM     11  O   UNL     1      -3.323   3.800   7.122  0.00  0.00    -0.272 OA
ATOM     12  N   UNL     1      -3.699   5.888   6.473  0.00  0.00    -0.279 N 
ATOM     13  H   UNL     1      -3.545   6.588   5.819  0.00  0.00    +0.155 HD
BRANCH  10  14
ATOM     14  C   UNL     1      -2.449   4.344   4.999  0.00  0.00    +0.324 C 
BRANCH  14  15
ATOM     15  O   UNL     1      -2.007   2.985   5.024  0.00  0.00    -0.483 OA
BRANCH  15  19
ATOM     16  C   UNL     1       0.080   1.631   1.734  0.00  0.00    -0.045 A 
ATOM     17  C   UNL     1      -0.371   2.938   1.775  0.00  0.00    +0.007 A 
ATOM     18  C   UNL     1      -1.075   3.392   2.874  0.00  0.00    +0.046 A 
ATOM     19  C   UNL     1      -1.320   2.539   3.941  0.00  0.00    +0.121 A 
ATOM     20  C   UNL     1      -0.861   1.231   3.899  0.00  0.00    +0.046 A 
ATOM     21  C   UNL     1      -0.162   0.780   2.796  0.00  0.00    +0.007 A 
BRANCH  16  23
ATOM     22  C   UNL     1       2.108   1.977   0.349  0.00  0.00    +0.012 C 
ATOM     23  C   UNL     1       0.842   1.137   0.532  0.00  0.00    +0.013 C 
ATOM     24  C   UNL     1      -0.036   1.260  -0.715  0.00  0.00    +0.012 C 
ENDBRANCH  16  23
ENDBRANCH  15  19
ENDBRANCH  14  15
ENDBRANCH  10  14
ENDBRANCH   1  12
BRANCH   9  25
ATOM     25  C   UNL     1      -4.042   8.600   7.803  0.00  0.00    +0.230 C 
ATOM     26  O   UNL     1      -3.414   8.645   6.760  0.00  0.00    -0.283 OA
BRANCH  25  27
ATOM     27  C   UNL     1      -4.208   9.821   8.620  0.00  0.00    +0.026 A 
ATOM     28  C   UNL     1      -5.040   9.807   9.741  0.00  0.00    +0.013 A 
ATOM     29  C   UNL     1      -5.187  10.948  10.502  0.00  0.00    +0.016 A 
ATOM     30  C   UNL     1      -4.520  12.109  10.149  0.00  0.00    +0.018 A 
ATOM     31  C   UNL     1      -3.698  12.131   9.035  0.00  0.00    +0.016 A 
ATOM     32  C   UNL     1      -3.539  10.995   8.269  0.00  0.00    +0.013 A 
ATOM     33 BR   UNL     1      -4.732  13.671  11.194  0.00  0.00    -0.050 Br
ENDBRANCH  25  27
ENDBRANCH   9  25
TORSDOF 7
