REMARK  Name = ZINC34906820
REMARK  7 active torsions:
REMARK  status: ('A' for Active; 'I' for Inactive)
REMARK    1  A    between atoms: C_1  and  C_2
REMARK    2  A    between atoms: C_2  and  C_3
REMARK    3  A    between atoms: N_5  and  C_6
REMARK    4  A    between atoms: C_6  and  C_7
REMARK    5  A    between atoms: C_7  and  C_8
REMARK    6  A    between atoms: C_8  and  N_9
REMARK    7  A    between atoms: N_18  and  C_19
REMARK                            x       y       z     vdW  Elec       q    Type
REMARK                         _______ _______ _______ _____ _____    ______ ____
ROOT
ATOM      1  N   UNL     1       2.289  -5.773  -3.940  0.00  0.00    -0.316 N 
ATOM      2  C   UNL     1       2.885  -6.449  -4.984  0.00  0.00    +0.174 A 
ATOM      3  N   UNL     1       3.467  -5.883  -6.012  0.00  0.00    -0.327 N 
ATOM      4  C   UNL     1       3.948  -6.840  -6.848  0.00  0.00    +0.065 A 
ATOM      5  C   UNL     1       4.637  -6.796  -8.063  0.00  0.00    +0.028 A 
ATOM      6  C   UNL     1       4.998  -7.969  -8.687  0.00  0.00    +0.002 A 
ATOM      7  C   UNL     1       4.683  -9.194  -8.120  0.00  0.00    +0.002 A 
ATOM      8  C   UNL     1       4.002  -9.255  -6.921  0.00  0.00    +0.028 A 
ATOM      9  C   UNL     1       3.630  -8.084  -6.278  0.00  0.00    +0.068 A 
ATOM     10  N   UNL     1       2.963  -7.807  -5.096  0.00  0.00    -0.310 N 
ATOM     11  H   UNL     1       1.883  -6.267  -3.211  0.00  0.00    +0.149 HD
ATOM     12  H   UNL     1       3.542  -4.926  -6.155  0.00  0.00    +0.169 HD
ENDROOT
BRANCH  10  13
ATOM     13  C   UNL     1       2.437  -8.789  -4.145  0.00  0.00    +0.090 C 
ATOM     14  C   UNL     1       0.923  -8.608  -4.010  0.00  0.00    +0.025 C 
ATOM     15  C   UNL     1       0.373  -9.633  -3.017  0.00  0.00    +0.002 C 
ATOM     16  C   UNL     1       1.036  -9.428  -1.653  0.00  0.00    +0.000 C 
ATOM     17  C   UNL     1       2.549  -9.610  -1.788  0.00  0.00    +0.002 C 
ATOM     18  C   UNL     1       3.099  -8.584  -2.781  0.00  0.00    +0.025 C 
ENDBRANCH  10  13
BRANCH   1  19
ATOM     19  C   UNL     1       2.269  -4.308  -3.932  0.00  0.00    +0.106 C 
BRANCH  19  20
ATOM     20  C   UNL     1       1.553  -3.814  -2.673  0.00  0.00    +0.037 C 
BRANCH  20  21
ATOM     21  C   UNL     1       1.532  -2.285  -2.665  0.00  0.00    +0.105 C 
BRANCH  21  24
ATOM     22  C   UNL     1       0.707  -0.490  -1.238  0.00  0.00    +0.213 C 
ATOM     23  O   UNL     1       1.150   0.308  -2.036  0.00  0.00    -0.276 OA
ATOM     24  N   UNL     1       0.847  -1.812  -1.460  0.00  0.00    -0.315 N 
ATOM     25  H   UNL     1       0.493  -2.451  -0.821  0.00  0.00    +0.149 HD
BRANCH  22  27
ATOM     26  C   UNL     1      -0.019   1.526   0.010  0.00  0.00    +0.013 C 
ATOM     27  C   UNL     1       0.002  -0.004   0.002  0.00  0.00    +0.092 C 
ENDBRANCH  22  27
ENDBRANCH  21  24
ENDBRANCH  20  21
ENDBRANCH  19  20
ENDBRANCH   1  19
TORSDOF 6
