REMARK  Name = ZINC59170937
REMARK  6 active torsions:
REMARK  status: ('A' for Active; 'I' for Inactive)
REMARK    1  A    between atoms: C_1  and  C_2
REMARK    2  A    between atoms: C_2  and  O_3
REMARK    3  A    between atoms: O_3  and  C_4
REMARK    4  A    between atoms: N_12  and  C_13
REMARK    5  A    between atoms: C_21  and  C_23
REMARK    6  A    between atoms: C_23  and  N_25
REMARK                            x       y       z     vdW  Elec       q    Type
REMARK                         _______ _______ _______ _____ _____    ______ ____
ROOT
ATOM      1  C   UNL     1      -0.397  -1.450   2.263  0.00  0.00    +0.163 A 
ATOM      2  C   UNL     1      -1.098  -2.146   1.293  0.00  0.00    +0.049 A 
ATOM      3  C   UNL     1      -0.858  -3.495   1.081  0.00  0.00    +0.004 A 
ATOM      4  C   UNL     1       0.080  -4.164   1.834  0.00  0.00    +0.012 A 
ATOM      5  C   UNL     1       0.796  -3.476   2.821  0.00  0.00    +0.022 A 
ATOM      6  C   UNL     1       0.561  -2.106   3.030  0.00  0.00    +0.179 A 
ATOM      7  O   UNL     1       1.265  -1.436   3.976  0.00  0.00    -0.435 OA
ATOM      8  C   UNL     1       1.725  -2.158   5.029  0.00  0.00    +0.209 A 
ATOM      9  N   UNL     1       1.681  -1.678   6.252  0.00  0.00    -0.324 N 
ATOM     10  C   UNL     1       2.277  -3.502   4.757  0.00  0.00    +0.064 A 
ATOM     11  C   UNL     1       1.795  -4.167   3.641  0.00  0.00    +0.027 A 
ATOM     12  H   UNL     1       1.933  -2.238   7.002  0.00  0.00    +0.169 HD
ENDROOT
BRANCH   9  13
ATOM     13  C   UNL     1       1.281  -0.388   6.466  0.00  0.00    +0.060 A 
ATOM     14  C   UNL     1       1.839   0.653   5.720  0.00  0.00    +0.028 A 
ATOM     15  C   UNL     1       1.431   1.952   5.941  0.00  0.00    +0.022 A 
ATOM     16  C   UNL     1       0.469   2.226   6.899  0.00  0.00    +0.042 A 
ATOM     17  C   UNL     1      -0.089   1.200   7.642  0.00  0.00    +0.042 A 
ATOM     18  C   UNL     1       0.306  -0.105   7.428  0.00  0.00    +0.066 A 
ATOM     19 CL   UNL     1      -0.400  -1.392   8.355  0.00  0.00    -0.081 Cl
ATOM     20 CL   UNL     1      -0.039   3.864   7.170  0.00  0.00    -0.083 Cl
ENDBRANCH   9  13
BRANCH  10  21
ATOM     21  C   UNL     1       3.284  -4.110   5.640  0.00  0.00    +0.082 C 
ATOM     22  S   UNL     1       3.966  -3.198   6.918  0.00  0.00    -0.035 S 
BRANCH  21  23
ATOM     23  N   UNL     1       3.669  -5.387   5.443  0.00  0.00    -0.352 N 
ATOM     24  H   UNL     1       3.283  -5.904   4.719  0.00  0.00    +0.143 HD
ATOM     25  H   UNL     1       4.333  -5.788   6.025  0.00  0.00    +0.143 HD
ENDBRANCH  21  23
ENDBRANCH  10  21
BRANCH   1  26
ATOM     26  O   UNL     1      -0.640  -0.127   2.461  0.00  0.00    -0.489 OA
BRANCH  26  28
ATOM     27  C   UNL     1      -1.769   1.960   2.003  0.00  0.00    +0.048 C 
ATOM     28  C   UNL     1      -1.637   0.481   1.637  0.00  0.00    +0.226 C 
ENDBRANCH  26  28
ENDBRANCH   1  26
TORSDOF 5
