REMARK  Name = ZINC39846415
REMARK  8 active torsions:
REMARK  status: ('A' for Active; 'I' for Inactive)
REMARK    1  A    between atoms: C_1  and  C_2
REMARK    2  A    between atoms: C_5  and  C_19
REMARK    3  A    between atoms: C_6  and  C_7
REMARK    4  A    between atoms: C_6  and  C_8
REMARK    5  A    between atoms: C_12  and  C_17
REMARK    6  A    between atoms: C_13  and  C_15
REMARK    7  A    between atoms: N_21  and  N_22
REMARK    8  A    between atoms: C_23  and  C_25
REMARK                            x       y       z     vdW  Elec       q    Type
REMARK                         _______ _______ _______ _____ _____    ______ ____
ROOT
ATOM      1  C   UNL     1      -0.019   1.526   0.010  0.00  0.00    +0.018 C 
ATOM      2  C   UNL     1       0.002  -0.004   0.002  0.00  0.00    +0.018 C 
ATOM      3  C   UNL     1       0.743  -0.677  -1.197  0.00  0.00    +0.015 C 
ATOM      4  C   UNL     1       1.001  -2.124  -0.714  0.00  0.00    +0.024 C 
ATOM      5  C   UNL     1       0.388  -2.161   0.722  0.00  0.00    +0.098 C 
ATOM      6  C   UNL     1       0.727  -0.704   1.210  0.00  0.00    -0.005 C 
ATOM      7  C   UNL     1       0.084  -0.357   2.554  0.00  0.00    +0.013 C 
ATOM      8  C   UNL     1       2.235  -0.447   1.212  0.00  0.00    +0.013 C 
ATOM      9  C   UNL     1      -1.119  -2.021   0.492  0.00  0.00    +0.080 A 
ATOM     10  C   UNL     1      -1.360  -0.700   0.069  0.00  0.00    +0.072 A 
ATOM     11  N   UNL     1      -2.575  -0.286  -0.202  0.00  0.00    -0.236 NA
ATOM     12  C   UNL     1      -3.605  -1.117  -0.053  0.00  0.00    +0.176 A 
ATOM     13  C   UNL     1      -3.381  -2.433   0.393  0.00  0.00    +0.176 A 
ATOM     14  N   UNL     1      -2.114  -2.864   0.632  0.00  0.00    -0.236 NA
ENDROOT
BRANCH   5  15
ATOM     15  C   UNL     1       0.839  -3.291   1.610  0.00  0.00    +0.242 C 
ATOM     16  O   UNL     1       1.415  -3.052   2.651  0.00  0.00    -0.273 OA
ATOM     17  N   UNL     1       0.603  -4.568   1.249  0.00  0.00    -0.233 N 
ATOM     18  H   UNL     1       0.142  -4.759   0.417  0.00  0.00    +0.173 HD
BRANCH  17  19
ATOM     19  N   UNL     1       1.023  -5.619   2.075  0.00  0.00    -0.230 N 
ATOM     20  C   UNL     1       0.786  -6.895   1.714  0.00  0.00    +0.262 C 
ATOM     21  O   UNL     1       0.209  -7.135   0.671  0.00  0.00    -0.269 OA
ATOM     22  H   UNL     1       1.483  -5.427   2.907  0.00  0.00    +0.173 HD
BRANCH  20  23
ATOM     23  C   UNL     1       1.229  -8.003   2.584  0.00  0.00    +0.057 A 
ATOM     24  C   UNL     1       1.887  -7.731   3.786  0.00  0.00    +0.016 A 
ATOM     25  C   UNL     1       2.297  -8.769   4.594  0.00  0.00    +0.021 A 
ATOM     26  C   UNL     1       2.058 -10.082   4.218  0.00  0.00    +0.042 A 
ATOM     27  C   UNL     1       1.407 -10.359   3.029  0.00  0.00    +0.040 A 
ATOM     28  C   UNL     1       0.985  -9.328   2.212  0.00  0.00    +0.054 A 
ATOM     29 CL   UNL     1       0.162  -9.677   0.725  0.00  0.00    -0.083 Cl
ATOM     30 CL   UNL     1       2.579 -11.383   5.243  0.00  0.00    -0.083 Cl
ENDBRANCH  20  23
ENDBRANCH  17  19
ENDBRANCH   5  15
BRANCH  13  31
ATOM     31  C   UNL     1      -4.482  -3.333   0.556  0.00  0.00    +0.122 C 
ATOM     32  N   UNL     1      -5.356  -4.048   0.686  0.00  0.00    -0.189 NA
ENDBRANCH  13  31
BRANCH  12  33
ATOM     33  C   UNL     1      -4.935  -0.674  -0.346  0.00  0.00    +0.122 C 
ATOM     34  N   UNL     1      -5.989  -0.323  -0.578  0.00  0.00    -0.189 NA
ENDBRANCH  12  33
TORSDOF 5
