REMARK  Name = ZINC22617054
REMARK  10 active torsions:
REMARK  status: ('A' for Active; 'I' for Inactive)
REMARK    1  A    between atoms: C_1  and  C_2
REMARK    2  A    between atoms: C_2  and  C_3
REMARK    3  A    between atoms: C_3  and  C_4
REMARK    4  A    between atoms: C_7  and  N_10
REMARK    5  A    between atoms: C_11  and  C_13
REMARK    6  A    between atoms: C_13  and  C_15
REMARK    7  A    between atoms: C_13  and  N_18
REMARK    8  A    between atoms: C_15  and  C_16
REMARK    9  A    between atoms: C_15  and  C_17
REMARK   10  A    between atoms: C_19  and  C_21
REMARK                            x       y       z     vdW  Elec       q    Type
REMARK                         _______ _______ _______ _____ _____    ______ ____
ROOT
ATOM      1  C   UNL     1      -0.735   1.579   1.270  0.00  0.00    +0.162 C 
ENDROOT
BRANCH   1   3
ATOM      2  N   UNL     1       0.143  -0.244   2.692  0.00  0.00    -0.284 N 
ATOM      3  C   UNL     1       0.002   1.080   2.487  0.00  0.00    +0.238 C 
ATOM      4  O   UNL     1       0.466   1.870   3.281  0.00  0.00    -0.273 OA
ATOM      5  H   UNL     1      -0.343  -0.962   2.015  0.00  0.00    +0.155 HD
BRANCH   2   9
ATOM      6  C   UNL     1       2.422  -1.623   5.896  0.00  0.00    -0.047 A 
ATOM      7  C   UNL     1       1.674  -0.467   6.028  0.00  0.00    +0.005 A 
ATOM      8  C   UNL     1       0.918  -0.007   4.968  0.00  0.00    +0.023 A 
ATOM      9  C   UNL     1       0.909  -0.707   3.768  0.00  0.00    +0.033 A 
ATOM     10  C   UNL     1       1.656  -1.871   3.641  0.00  0.00    +0.023 A 
ATOM     11  C   UNL     1       2.414  -2.322   4.704  0.00  0.00    +0.005 A 
BRANCH   6  12
ATOM     12  C   UNL     1       3.246  -2.121   7.055  0.00  0.00    +0.035 C 
BRANCH  12  14
ATOM     13  C   UNL     1       3.241  -3.574   9.088  0.00  0.00    +0.004 C 
ATOM     14  C   UNL     1       2.403  -3.068   7.911  0.00  0.00    +0.001 C 
ENDBRANCH  12  14
ENDBRANCH   6  12
ENDBRANCH   2   9
ENDBRANCH   1   3
BRANCH   1  15
ATOM     15  N   UNL     1      -0.751   3.044   1.276  0.00  0.00    -0.300 N 
ATOM     16  C   UNL     1      -1.726   3.709   0.625  0.00  0.00    +0.250 C 
ATOM     17  O   UNL     1      -2.591   3.094   0.033  0.00  0.00    -0.270 OA
ATOM     18  H   UNL     1       0.032   3.601   1.812  0.00  0.00    +0.150 HD
BRANCH  16  19
ATOM     19  C   UNL     1      -1.743   5.185   0.631  0.00  0.00    +0.107 A 
ATOM     20  C   UNL     1      -1.069   5.900  -0.365  0.00  0.00    +0.138 A 
ATOM     21  C   UNL     1      -1.094   7.282  -0.354  0.00  0.00    +0.039 A 
ATOM     22  C   UNL     1      -1.774   7.958   0.642  0.00  0.00    +0.006 A 
ATOM     23  C   UNL     1      -2.438   7.258   1.633  0.00  0.00    +0.039 A 
ATOM     24  C   UNL     1      -2.428   5.876   1.636  0.00  0.00    +0.138 A 
ATOM     25  F   UNL     1      -3.077   5.195   2.605  0.00  0.00    -0.205 F 
ATOM     26  F   UNL     1      -0.399   5.242  -1.336  0.00  0.00    -0.205 F 
ENDBRANCH  16  19
ENDBRANCH   1  15
BRANCH   1  27
ATOM     27  C   UNL     1      -0.028   1.082   0.007  0.00  0.00    +0.012 C 
ATOM     28  C   UNL     1       1.408   1.609  -0.014  0.00  0.00    +0.009 C 
ATOM     29  C   UNL     1      -0.775   1.589  -1.228  0.00  0.00    +0.009 C 
ENDBRANCH   1  27
TORSDOF 7
