REMARK  Name = ZINC39524738
REMARK  5 active torsions:
REMARK  status: ('A' for Active; 'I' for Inactive)
REMARK    1  A    between atoms: C_4  and  O_7
REMARK    2  A    between atoms: O_7  and  S_8
REMARK    3  A    between atoms: S_8  and  C_11
REMARK    4  A    between atoms: C_22  and  C_25
REMARK    5  A    between atoms: C_30  and  O_31
REMARK                            x       y       z     vdW  Elec       q    Type
REMARK                         _______ _______ _______ _____ _____    ______ ____
ROOT
ATOM      1  C   UNL     1       3.008  -2.422   1.830  0.00  0.00    +0.255 C 
ATOM      2  C   UNL     1       1.538  -2.094   1.562  0.00  0.00    +0.047 C 
ATOM      3  C   UNL     1       0.670  -3.288   1.972  0.00  0.00    +0.005 C 
ATOM      4  C   UNL     1       0.917  -3.603   3.450  0.00  0.00    +0.024 C 
ATOM      5  C   UNL     1       2.405  -3.888   3.665  0.00  0.00    +0.040 C 
ATOM      6  N   UNL     1       3.192  -2.717   3.257  0.00  0.00    -0.186 NA
ATOM      7 CL   UNL     1       4.847  -2.931   3.630  0.00  0.00    -0.019 Cl
ATOM      8  C   UNL     1       2.819  -5.099   2.826  0.00  0.00    +0.024 C 
ATOM      9  C   UNL     1       4.305  -5.387   3.044  0.00  0.00    +0.002 C 
ATOM     10  C   UNL     1       4.556  -5.682   4.524  0.00  0.00    +0.008 C 
ATOM     11  C   UNL     1       4.144  -4.470   5.362  0.00  0.00    +0.024 C 
ATOM     12  C   UNL     1       2.657  -4.182   5.145  0.00  0.00    +0.032 C 
ENDROOT
BRANCH  11  13
ATOM     13  C   UNL     1       4.392  -4.760   6.820  0.00  0.00    -0.003 A 
ATOM     14  C   UNL     1       3.758  -5.825   7.431  0.00  0.00    +0.007 A 
ATOM     15  C   UNL     1       3.984  -6.091   8.768  0.00  0.00    +0.001 A 
ATOM     16  C   UNL     1       4.846  -5.293   9.498  0.00  0.00    +0.004 A 
ATOM     17  C   UNL     1       5.482  -4.228   8.892  0.00  0.00    +0.046 A 
ATOM     18  C   UNL     1       5.261  -3.962   7.548  0.00  0.00    +0.120 A 
BRANCH  18  19
ATOM     19  O   UNL     1       5.890  -2.917   6.949  0.00  0.00    -0.506 OA
ATOM     20  H   UNL     1       5.401  -2.084   6.994  0.00  0.00    +0.292 HD
ENDBRANCH  18  19
ENDBRANCH  11  13
BRANCH   1  21
ATOM     21  S   UNL     1       4.038  -1.003   1.368  0.00  0.00    +0.138 S 
ATOM     22  O   UNL     1       5.407  -1.384   1.328  0.00  0.00    -0.135 OA
ATOM     23  O   UNL     1       3.629   0.153   2.085  0.00  0.00    -0.135 OA
BRANCH  21  24
ATOM     24  O   UNL     1       3.675  -0.711  -0.081  0.00  0.00    -0.345 OA
BRANCH  24  28
ATOM     25  C   UNL     1       5.321  -3.350  -2.791  0.00  0.00    +0.000 A 
ATOM     26  C   UNL     1       4.116  -3.648  -2.181  0.00  0.00    +0.004 A 
ATOM     27  C   UNL     1       3.563  -2.766  -1.273  0.00  0.00    +0.048 A 
ATOM     28  C   UNL     1       4.217  -1.580  -0.973  0.00  0.00    +0.156 A 
ATOM     29  C   UNL     1       5.426  -1.283  -1.586  0.00  0.00    +0.048 A 
ATOM     30  C   UNL     1       5.975  -2.168  -2.493  0.00  0.00    +0.004 A 
ENDBRANCH  24  28
ENDBRANCH  21  24
ENDBRANCH   1  21
TORSDOF 5
