REMARK  Name = ZINC59037538
REMARK  8 active torsions:
REMARK  status: ('A' for Active; 'I' for Inactive)
REMARK    1  A    between atoms: C_1  and  C_2
REMARK    2  A    between atoms: C_8  and  O_10
REMARK    3  A    between atoms: O_10  and  C_11
REMARK    4  A    between atoms: C_11  and  C_12
REMARK    5  A    between atoms: C_12  and  N_13
REMARK    6  A    between atoms: N_16  and  C_17
REMARK    7  A    between atoms: C_17  and  C_19
REMARK    8  A    between atoms: C_17  and  C_20
REMARK                            x       y       z     vdW  Elec       q    Type
REMARK                         _______ _______ _______ _____ _____    ______ ____
ROOT
ATOM      1  N   UNL     1      -0.817  -0.408   5.147  0.00  0.00    -0.297 N 
ATOM      2  C   UNL     1      -1.647  -0.198   6.188  0.00  0.00    +0.300 C 
ATOM      3  O   UNL     1      -1.618   0.862   6.784  0.00  0.00    -0.253 OA
ATOM      4  N   UNL     1      -2.507  -1.163   6.569  0.00  0.00    -0.293 N 
ATOM      5  H   UNL     1      -0.839  -1.254   4.672  0.00  0.00    +0.150 HD
ATOM      6  H   UNL     1      -2.530  -2.008   6.095  0.00  0.00    +0.151 HD
ENDROOT
BRANCH   4   7
ATOM      7  C   UNL     1      -3.409  -0.934   7.701  0.00  0.00    +0.102 C 
ATOM      8  C   UNL     1      -4.665  -0.210   7.214  0.00  0.00    +0.033 C 
BRANCH   7   9
ATOM      9  C   UNL     1      -3.796  -2.257   8.310  0.00  0.00    -0.026 A 
ATOM     10  C   UNL     1      -4.058  -3.343   7.495  0.00  0.00    +0.005 A 
ATOM     11  C   UNL     1      -4.413  -4.557   8.052  0.00  0.00    +0.002 A 
ATOM     12  C   UNL     1      -4.508  -4.686   9.425  0.00  0.00    +0.020 A 
ATOM     13  C   UNL     1      -4.246  -3.600  10.242  0.00  0.00    +0.041 A 
ATOM     14  C   UNL     1      -3.884  -2.387   9.683  0.00  0.00    +0.025 A 
ATOM     15 CL   UNL     1      -4.364  -3.761  11.966  0.00  0.00    -0.084 Cl
ENDBRANCH   7   9
ENDBRANCH   4   7
BRANCH   1  16
ATOM     16  C   UNL     1       0.119   0.640   4.733  0.00  0.00    +0.133 C 
BRANCH  16  17
ATOM     17  C   UNL     1       0.938   0.149   3.537  0.00  0.00    +0.179 C 
BRANCH  17  18
ATOM     18  O   UNL     1       0.073  -0.050   2.417  0.00  0.00    -0.375 OA
BRANCH  18  25
ATOM     19  C   UNL     1      -0.019   1.526   0.010  0.00  0.00    +0.010 C 
ATOM     20  C   UNL     1       0.002  -0.004   0.002  0.00  0.00    +0.015 C 
ATOM     21  C   UNL     1       0.718  -0.497  -1.257  0.00  0.00    +0.006 C 
ATOM     22  C   UNL     1       0.739  -2.027  -1.265  0.00  0.00    +0.000 C 
ATOM     23  C   UNL     1       1.479  -2.534  -0.026  0.00  0.00    +0.003 C 
ATOM     24  C   UNL     1       0.763  -2.041   1.233  0.00  0.00    +0.032 C 
ATOM     25  C   UNL     1       0.742  -0.511   1.242  0.00  0.00    +0.121 C 
ENDBRANCH  18  25
ENDBRANCH  17  18
ENDBRANCH  16  17
ENDBRANCH   1  16
TORSDOF 6
