REMARK  Name = ZINC14125968
REMARK  13 active torsions:
REMARK  status: ('A' for Active; 'I' for Inactive)
REMARK    1  A    between atoms: C_1  and  C_2
REMARK    2  A    between atoms: C_4  and  C_32
REMARK    3  A    between atoms: C_6  and  O_8
REMARK    4  A    between atoms: O_8  and  C_9
REMARK    5  A    between atoms: C_9  and  C_10
REMARK    6  A    between atoms: C_13  and  S_18
REMARK    7  A    between atoms: N_14  and  C_15
REMARK    8  A    between atoms: C_15  and  C_16
REMARK    9  A    between atoms: S_18  and  C_19
REMARK   10  A    between atoms: C_19  and  C_20
REMARK   11  A    between atoms: N_22  and  C_23
REMARK   12  A    between atoms: C_28  and  O_29
REMARK   13  A    between atoms: O_29  and  C_30
REMARK                            x       y       z     vdW  Elec       q    Type
REMARK                         _______ _______ _______ _____ _____    ______ ____
ROOT
ATOM      1  C   UNL     1       1.417   1.891   0.002  0.00  0.00    +0.172 A 
ATOM      2  N   UNL     1       2.130   2.168  -1.053  0.00  0.00    -0.130 NA
ATOM      3  N   UNL     1       3.287   2.604  -0.703  0.00  0.00    -0.122 NA
ATOM      4  C   UNL     1       3.376   2.628   0.607  0.00  0.00    +0.192 A 
ATOM      5  N   UNL     1       2.184   2.179   1.097  0.00  0.00    -0.299 N 
ENDROOT
BRANCH   1   6
ATOM      6  C   UNL     1       0.008   1.357   0.013  0.00  0.00    +0.305 C 
BRANCH   6   7
ATOM      7  O   UNL     1       0.039  -0.071   0.008  0.00  0.00    -0.484 OA
BRANCH   7  13
ATOM      8  C   UNL     1      -4.837   0.149   0.053  0.00  0.00    +0.044 C 
ATOM      9  C   UNL     1      -3.554  -0.642   0.039  0.00  0.00    -0.047 A 
ATOM     10  C   UNL     1      -3.595  -2.024   0.035  0.00  0.00    +0.007 A 
ATOM     11  C   UNL     1      -2.420  -2.753   0.021  0.00  0.00    -0.047 A 
ATOM     12  C   UNL     1      -1.202  -2.101   0.012  0.00  0.00    +0.049 A 
ATOM     13  C   UNL     1      -1.158  -0.715   0.017  0.00  0.00    +0.122 A 
ATOM     14  C   UNL     1      -2.338   0.014   0.036  0.00  0.00    +0.049 A 
ATOM     15  C   UNL     1      -2.468  -4.259   0.016  0.00  0.00    +0.044 C 
ENDBRANCH   7  13
ENDBRANCH   6   7
ENDBRANCH   1   6
BRANCH   5  16
ATOM     16  C   UNL     1       1.805   2.032   2.505  0.00  0.00    +0.152 C 
BRANCH  16  17
ATOM     17  C   UNL     1       2.179   0.653   2.985  0.00  0.00    -0.013 C 
ATOM     18  C   UNL     1       2.941   0.511   4.041  0.00  0.00    +0.005 C 
ENDBRANCH  16  17
ENDBRANCH   5  16
BRANCH   4  19
ATOM     19  S   UNL     1       4.769   3.149   1.553  0.00  0.00    -0.077 S 
BRANCH  19  20
ATOM     20  C   UNL     1       5.908   3.591   0.217  0.00  0.00    +0.173 C 
BRANCH  20  21
ATOM     21  C   UNL     1       7.206   4.079   0.806  0.00  0.00    +0.228 C 
ATOM     22  O   UNL     1       7.348   4.123   2.010  0.00  0.00    -0.275 OA
ATOM     23  N   UNL     1       8.211   4.465  -0.005  0.00  0.00    -0.282 N 
ATOM     24  H   UNL     1       8.122   4.369  -0.966  0.00  0.00    +0.155 HD
BRANCH  23  25
ATOM     25  C   UNL     1       9.383   5.006   0.540  0.00  0.00    +0.077 A 
ATOM     26  C   UNL     1       9.863   4.543   1.756  0.00  0.00    +0.047 A 
ATOM     27  C   UNL     1      11.020   5.079   2.292  0.00  0.00    +0.043 A 
ATOM     28  C   UNL     1      11.701   6.076   1.617  0.00  0.00    +0.024 A 
ATOM     29  C   UNL     1      11.228   6.543   0.405  0.00  0.00    +0.049 A 
ATOM     30  C   UNL     1      10.072   6.007  -0.141  0.00  0.00    +0.141 A 
ATOM     31 CL   UNL     1      11.619   4.497   3.814  0.00  0.00    -0.083 Cl
BRANCH  30  32
ATOM     32  O   UNL     1       9.609   6.461  -1.336  0.00  0.00    -0.493 OA
ATOM     33  C   UNL     1      10.367   7.489  -1.978  0.00  0.00    +0.277 C 
ENDBRANCH  30  32
ENDBRANCH  23  25
ENDBRANCH  20  21
ENDBRANCH  19  20
ENDBRANCH   4  19
TORSDOF 10
