REMARK  Name = ZINC50092855
REMARK  7 active torsions:
REMARK  status: ('A' for Active; 'I' for Inactive)
REMARK    1  A    between atoms: C_1  and  C_2
REMARK    2  A    between atoms: C_7  and  C_9
REMARK    3  A    between atoms: C_7  and  N_11
REMARK    4  A    between atoms: C_9  and  N_10
REMARK    5  A    between atoms: N_11  and  C_12
REMARK    6  A    between atoms: N_11  and  S_13
REMARK    7  A    between atoms: S_13  and  C_16
REMARK                            x       y       z     vdW  Elec       q    Type
REMARK                         _______ _______ _______ _____ _____    ______ ____
ROOT
ATOM      1  C   UNL     1      -0.251   1.232  -0.107  0.00  0.00    +0.007 C 
ATOM      2  C   UNL     1      -0.095  -0.286  -0.209  0.00  0.00    -0.012 C 
ATOM      3  C   UNL     1      -1.474  -0.931  -0.361  0.00  0.00    +0.003 C 
ATOM      4  C   UNL     1      -1.319  -2.450  -0.464  0.00  0.00    +0.002 C 
ATOM      5  C   UNL     1      -0.645  -2.980   0.803  0.00  0.00    +0.022 C 
ATOM      6  C   UNL     1       0.734  -2.335   0.955  0.00  0.00    +0.028 C 
ATOM      7  C   UNL     1       0.579  -0.817   1.058  0.00  0.00    +0.025 C 
ENDROOT
BRANCH   6   8
ATOM      8  N   UNL     1       1.558  -2.664  -0.210  0.00  0.00    -0.175 NA
ATOM      9  C   UNL     1       1.037  -3.558  -1.248  0.00  0.00    +0.132 C 
BRANCH   8  10
ATOM     10  S   UNL     1       3.080  -2.026  -0.356  0.00  0.00    +0.061 S 
ATOM     11  O   UNL     1       3.299  -1.811  -1.743  0.00  0.00    -0.153 OA
ATOM     12  O   UNL     1       3.174  -0.980   0.602  0.00  0.00    -0.153 OA
BRANCH  10  13
ATOM     13  C   UNL     1       4.218  -3.273   0.147  0.00  0.00    +0.108 A 
ATOM     14  C   UNL     1       4.624  -3.347   1.466  0.00  0.00    +0.029 A 
ATOM     15  C   UNL     1       5.517  -4.325   1.862  0.00  0.00    +0.005 A 
ATOM     16  C   UNL     1       6.006  -5.230   0.938  0.00  0.00    +0.038 A 
ATOM     17  C   UNL     1       5.601  -5.156  -0.383  0.00  0.00    +0.125 A 
ATOM     18  C   UNL     1       4.701  -4.180  -0.777  0.00  0.00    +0.066 A 
ATOM     19  F   UNL     1       6.079  -6.040  -1.287  0.00  0.00    -0.205 F 
ENDBRANCH  10  13
ENDBRANCH   8  10
ENDBRANCH   6   8
BRANCH   6  20
ATOM     20  C   UNL     1       1.408  -2.866   2.222  0.00  0.00    -0.062 C 
BRANCH  20  21
ATOM     21  N   UNL     1       1.557  -4.324   2.124  0.00  0.00    +0.379 N 
ATOM     22  H   UNL     1       1.949  -4.681   2.983  0.00  0.00    -0.090 HD
ATOM     23  H   UNL     1       0.654  -4.744   1.966  0.00  0.00    -0.090 HD
ATOM     24  H   UNL     1       2.171  -4.548   1.355  0.00  0.00    -0.090 HD
ENDBRANCH  20  21
ENDBRANCH   6  20
TORSDOF 5
