REMARK  Name = ZINC66140148
REMARK  10 active torsions:
REMARK  status: ('A' for Active; 'I' for Inactive)
REMARK    1  A    between atoms: C_1  and  C_2
REMARK    2  A    between atoms: C_2  and  C_3
REMARK    3  A    between atoms: C_2  and  C_4
REMARK    4  A    between atoms: C_4  and  O_5
REMARK    5  A    between atoms: O_5  and  C_6
REMARK    6  A    between atoms: C_11  and  C_12
REMARK    7  A    between atoms: C_14  and  C_18
REMARK    8  A    between atoms: C_18  and  O_19
REMARK    9  A    between atoms: O_19  and  C_20
REMARK   10  A    between atoms: C_25  and  N_26
REMARK                            x       y       z     vdW  Elec       q    Type
REMARK                         _______ _______ _______ _____ _____    ______ ____
ROOT
ATOM      1  C   UNL     1      -1.435  -4.773  -0.358  0.00  0.00    +0.070 A 
ATOM      2  C   UNL     1      -1.182  -5.979   0.234  0.00  0.00    +0.056 A 
ATOM      3  C   UNL     1       0.104  -6.375  -0.136  0.00  0.00    +0.101 A 
ATOM      4  N   UNL     1       0.615  -5.457  -0.916  0.00  0.00    -0.175 NA
ATOM      5  N   UNL     1      -0.330  -4.436  -1.081  0.00  0.00    -0.276 N 
ATOM      6  H   UNL     1      -0.217  -3.633  -1.613  0.00  0.00    +0.189 HD
ENDROOT
BRANCH   1  12
ATOM      7  C   UNL     1      -2.619  -2.590  -0.120  0.00  0.00    +0.130 A 
ATOM      8  C   UNL     1      -3.791  -1.857  -0.015  0.00  0.00    +0.046 A 
ATOM      9  C   UNL     1      -5.013  -2.502  -0.022  0.00  0.00    +0.004 A 
ATOM     10  C   UNL     1      -5.076  -3.880  -0.135  0.00  0.00    +0.001 A 
ATOM     11  C   UNL     1      -3.918  -4.622  -0.241  0.00  0.00    +0.013 A 
ATOM     12  C   UNL     1      -2.679  -3.983  -0.239  0.00  0.00    +0.041 A 
BRANCH   7  13
ATOM     13  O   UNL     1      -1.417  -1.957  -0.112  0.00  0.00    -0.491 OA
BRANCH  13  14
ATOM     14  C   UNL     1      -1.433  -0.534   0.013  0.00  0.00    +0.232 C 
BRANCH  14  16
ATOM     15  C   UNL     1      -0.019   1.526   0.010  0.00  0.00    +0.010 C 
ATOM     16  C   UNL     1       0.002  -0.004   0.002  0.00  0.00    +0.020 C 
ATOM     17  C   UNL     1       0.742  -0.511   1.242  0.00  0.00    +0.010 C 
ENDBRANCH  14  16
ENDBRANCH  13  14
ENDBRANCH   7  13
ENDBRANCH   1  12
BRANCH   3  18
ATOM     18  C   UNL     1       0.789  -7.647   0.291  0.00  0.00    +0.286 C 
BRANCH  18  19
ATOM     19  O   UNL     1      -0.083  -8.395   1.141  0.00  0.00    -0.484 OA
BRANCH  19  20
ATOM     20  C   UNL     1       0.387  -9.579   1.619  0.00  0.00    +0.142 A 
ATOM     21  C   UNL     1       1.659 -10.008   1.281  0.00  0.00    +0.047 A 
ATOM     22  C   UNL     1       2.135 -11.213   1.766  0.00  0.00    +0.004 A 
ATOM     23  C   UNL     1       1.343 -11.992   2.590  0.00  0.00    +0.002 A 
ATOM     24  C   UNL     1       0.072 -11.570   2.932  0.00  0.00    +0.026 A 
ATOM     25  C   UNL     1      -0.410 -10.361   2.453  0.00  0.00    +0.067 A 
BRANCH  25  26
ATOM     26  N   UNL     1      -1.695  -9.930   2.802  0.00  0.00    -0.355 N 
ATOM     27  H   UNL     1      -2.032  -9.085   2.463  0.00  0.00    +0.142 HD
ATOM     28  H   UNL     1      -2.248 -10.475   3.383  0.00  0.00    +0.142 HD
ENDBRANCH  25  26
ENDBRANCH  19  20
ENDBRANCH  18  19
ENDBRANCH   3  18
TORSDOF 8
