REMARK  Name = ZINC67338647
REMARK  5 active torsions:
REMARK  status: ('A' for Active; 'I' for Inactive)
REMARK    1  A    between atoms: C_16  and  C_18
REMARK    2  A    between atoms: C_18  and  C_19
REMARK    3  A    between atoms: C_19  and  C_20
REMARK    4  A    between atoms: C_20  and  C_21
REMARK    5  A    between atoms: C_21  and  N_22
REMARK                            x       y       z     vdW  Elec       q    Type
REMARK                         _______ _______ _______ _____ _____    ______ ____
ROOT
ATOM      1  C   UNL     1      -0.017   1.371   0.010  0.00  0.00    +0.078 A 
ATOM      2  C   UNL     1       1.186   2.115   0.002  0.00  0.00    +0.084 A 
ATOM      3  C   UNL     1       2.385   1.369  -0.014  0.00  0.00    +0.044 A 
ATOM      4  C   UNL     1       2.405  -0.004  -0.022  0.00  0.00    +0.067 A 
ATOM      5  C   UNL     1       1.211  -0.705  -0.014  0.00  0.00    +0.174 A 
ATOM      6  C   UNL     1       0.002  -0.004   0.002  0.00  0.00    +0.175 A 
ATOM      7  O   UNL     1      -1.020  -0.914   0.007  0.00  0.00    -0.395 OA
ATOM      8  C   UNL     1      -0.433  -2.157  -0.420  0.00  0.00    +0.589 C 
ATOM      9  O   UNL     1       0.945  -2.043  -0.020  0.00  0.00    -0.395 OA
ATOM     10  F   UNL     1      -1.045  -3.237   0.226  0.00  0.00    -0.125 F 
ATOM     11  F   UNL     1      -0.532  -2.295  -1.809  0.00  0.00    -0.125 F 
ATOM     12  S   UNL     1       3.624   2.642  -0.018  0.00  0.00    -0.052 S 
ATOM     13  C   UNL     1       2.510   4.040   0.001  0.00  0.00    +0.165 A 
ATOM     14  N   UNL     1       1.334   3.459   0.009  0.00  0.00    -0.224 NA
ATOM     15  N   UNL     1       2.813   5.393   0.007  0.00  0.00    -0.265 N 
ATOM     16  C   UNL     1       1.820   6.304   0.022  0.00  0.00    +0.219 C 
ATOM     17  O   UNL     1       0.663   5.942   0.030  0.00  0.00    -0.275 OA
ATOM     18  H   UNL     1       3.738   5.683   0.001  0.00  0.00    +0.157 HD
ENDROOT
BRANCH  16  19
ATOM     19  C   UNL     1       2.149   7.775   0.029  0.00  0.00    +0.096 C 
BRANCH  19  20
ATOM     20  C   UNL     1       0.852   8.587   0.046  0.00  0.00    +0.011 C 
BRANCH  20  21
ATOM     21  C   UNL     1       1.186  10.081   0.053  0.00  0.00    +0.019 C 
BRANCH  21  22
ATOM     22  C   UNL     1      -0.111  10.893   0.070  0.00  0.00    +0.106 C 
BRANCH  22  23
ATOM     23  N   UNL     1       0.208  12.322   0.077  0.00  0.00    -0.300 N 
ATOM     24  C   UNL     1      -0.784  13.234   0.092  0.00  0.00    +0.297 C 
ATOM     25  O   UNL     1      -1.944  12.870   0.100  0.00  0.00    -0.253 OA
ATOM     26  N   UNL     1      -0.490  14.550   0.098  0.00  0.00    -0.313 N 
ATOM     27  H   UNL     1       1.134  12.613   0.070  0.00  0.00    +0.150 HD
ATOM     28  H   UNL     1       0.435  14.840   0.091  0.00  0.00    +0.146 HD
ATOM     29  H   UNL     1      -1.204  15.206   0.109  0.00  0.00    +0.146 HD
ENDBRANCH  22  23
ENDBRANCH  21  22
ENDBRANCH  20  21
ENDBRANCH  19  20
ENDBRANCH  16  19
TORSDOF 5
