REMARK  Name = ZINC43284520
REMARK  6 active torsions:
REMARK  status: ('A' for Active; 'I' for Inactive)
REMARK    1  A    between atoms: C_1  and  C_2
REMARK    2  A    between atoms: C_2  and  C_3
REMARK    3  A    between atoms: C_3  and  C_5
REMARK    4  A    between atoms: C_3  and  N_20
REMARK    5  A    between atoms: C_5  and  C_7
REMARK    6  A    between atoms: C_5  and  N_13
REMARK                            x       y       z     vdW  Elec       q    Type
REMARK                         _______ _______ _______ _____ _____    ______ ____
ROOT
ATOM      1  C   UNL     1       0.750  -2.022  -1.128  0.00  0.00    +0.080 C 
ENDROOT
BRANCH   1   2
ATOM      2  N   UNL     1       1.423  -2.393   0.124  0.00  0.00    -0.287 NA
ATOM      3  C   UNL     1       1.640  -3.847   0.195  0.00  0.00    +0.104 C 
ATOM      4  C   UNL     1       2.603  -4.145   1.346  0.00  0.00    +0.119 C 
ATOM      5  N   UNL     1       2.151  -3.475   2.562  0.00  0.00    -0.313 N 
ATOM      6  C   UNL     1       1.280  -2.461   2.553  0.00  0.00    +0.227 C 
ATOM      7  O   UNL     1       0.981  -1.941   3.607  0.00  0.00    -0.274 OA
ATOM      8  C   UNL     1       0.655  -1.938   1.290  0.00  0.00    +0.181 C 
ATOM      9  H   UNL     1       2.498  -3.780   3.415  0.00  0.00    +0.149 HD
ENDBRANCH   1   2
BRANCH   1  10
ATOM     10  C   UNL     1       1.590  -2.460  -2.299  0.00  0.00    +0.006 A 
ATOM     11  C   UNL     1       1.196  -3.001  -3.478  0.00  0.00    +0.028 A 
ATOM     12  C   UNL     1       2.154  -3.330  -4.419  0.00  0.00    +0.025 A 
ATOM     13  C   UNL     1       3.460  -3.102  -4.134  0.00  0.00    +0.060 A 
ATOM     14  S   UNL     1       3.363  -2.394  -2.498  0.00  0.00    -0.099 S 
ATOM     15 BR   UNL     1       1.650  -4.088  -6.077  0.00  0.00    -0.050 Br
ENDBRANCH   1  10
BRANCH   1  16
ATOM     16  C   UNL     1       0.562  -0.504  -1.175  0.00  0.00    -0.053 C 
BRANCH  16  17
ATOM     17  N   UNL     1       1.876   0.151  -1.222  0.00  0.00    +0.381 N 
ATOM     18  H   UNL     1       1.751   1.152  -1.253  0.00  0.00    -0.090 HD
ATOM     19  H   UNL     1       2.405  -0.097  -0.400  0.00  0.00    -0.090 HD
ATOM     20  H   UNL     1       2.373  -0.152  -2.047  0.00  0.00    -0.090 HD
ENDBRANCH  16  17
BRANCH  16  22
ATOM     21  C   UNL     1      -0.551   1.370  -2.396  0.00  0.00    +0.002 C 
ATOM     22  C   UNL     1      -0.241  -0.128  -2.421  0.00  0.00    -0.018 C 
ENDBRANCH  16  22
ENDBRANCH   1  16
TORSDOF 5
