REMARK  Name = ZINC12369460
REMARK  14 active torsions:
REMARK  status: ('A' for Active; 'I' for Inactive)
REMARK    1  A    between atoms: C_1  and  C_2
REMARK    2  A    between atoms: C_2  and  C_3
REMARK    3  A    between atoms: C_2  and  C_4
REMARK    4  A    between atoms: C_2  and  C_5
REMARK    5  A    between atoms: C_7  and  C_16
REMARK    6  A    between atoms: C_9  and  C_12
REMARK    7  A    between atoms: C_10  and  O_11
REMARK    8  A    between atoms: C_12  and  C_13
REMARK    9  A    between atoms: C_12  and  C_14
REMARK   10  A    between atoms: C_12  and  C_15
REMARK   11  A    between atoms: C_19  and  C_21
REMARK   12  A    between atoms: C_21  and  O_22
REMARK   13  A    between atoms: O_22  and  C_23
REMARK   14  A    between atoms: C_26  and  C_29
REMARK                            x       y       z     vdW  Elec       q    Type
REMARK                         _______ _______ _______ _____ _____    ______ ____
ROOT
ATOM      1  C   UNL     1       3.022  -0.993   3.325  0.00  0.00    +0.079 A 
ATOM      2  C   UNL     1       3.699  -1.457   4.421  0.00  0.00    +0.075 A 
ATOM      3  S   UNL     1       5.019  -2.365   3.631  0.00  0.00    -0.077 S 
ATOM      4  C   UNL     1       4.560  -2.053   1.986  0.00  0.00    +0.116 A 
ATOM      5  N   UNL     1       3.483  -1.319   2.128  0.00  0.00    -0.241 NA
ENDROOT
BRANCH   1   8
ATOM      6  C   UNL     1       0.000   1.080   2.488  0.00  0.00    +0.000 A 
ATOM      7  C   UNL     1       1.131   0.303   2.345  0.00  0.00    +0.017 A 
ATOM      8  C   UNL     1       1.805  -0.158   3.475  0.00  0.00    +0.002 A 
ATOM      9  C   UNL     1       1.333   0.168   4.745  0.00  0.00    +0.017 A 
ATOM     10  C   UNL     1       0.202   0.945   4.881  0.00  0.00    +0.000 A 
ATOM     11  C   UNL     1      -0.464   1.407   3.754  0.00  0.00    +0.124 A 
BRANCH   6  13
ATOM     12  C   UNL     1      -0.013   1.086   0.008  0.00  0.00    +0.015 C 
ATOM     13  C   UNL     1      -0.729   1.579   1.267  0.00  0.00    -0.009 C 
ATOM     14  C   UNL     1      -0.750   3.109   1.275  0.00  0.00    +0.015 C 
ATOM     15  C   UNL     1      -2.164   1.050   1.278  0.00  0.00    +0.015 C 
ENDBRANCH   6  13
BRANCH  10  16
ATOM     16  C   UNL     1      -0.309   1.298   6.255  0.00  0.00    -0.009 C 
ATOM     17  C   UNL     1       0.603   0.674   7.313  0.00  0.00    +0.015 C 
ATOM     18  C   UNL     1      -0.316   2.819   6.421  0.00  0.00    +0.015 C 
ATOM     19  C   UNL     1      -1.731   0.760   6.424  0.00  0.00    +0.015 C 
ENDBRANCH  10  16
BRANCH  11  20
ATOM     20  O   UNL     1      -1.575   2.178   3.891  0.00  0.00    -0.506 OA
ATOM     21  H   UNL     1      -2.400   1.674   3.934  0.00  0.00    +0.292 HD
ENDBRANCH  11  20
ENDBRANCH   1   8
BRANCH   4  22
ATOM     22  C   UNL     1       5.228  -2.513   0.717  0.00  0.00    +0.291 C 
BRANCH  22  23
ATOM     23  O   UNL     1       6.202  -1.548   0.314  0.00  0.00    -0.485 OA
BRANCH  23  24
ATOM     24  C   UNL     1       6.900  -1.813  -0.822  0.00  0.00    +0.121 A 
ATOM     25  C   UNL     1       6.657  -2.980  -1.531  0.00  0.00    +0.046 A 
ATOM     26  C   UNL     1       7.363  -3.244  -2.688  0.00  0.00    +0.009 A 
ATOM     27  C   UNL     1       8.321  -2.352  -3.134  0.00  0.00    -0.024 A 
ATOM     28  C   UNL     1       8.569  -1.190  -2.426  0.00  0.00    +0.009 A 
ATOM     29  C   UNL     1       7.861  -0.919  -1.271  0.00  0.00    +0.046 A 
BRANCH  27  30
ATOM     30  C   UNL     1       9.095  -2.645  -4.393  0.00  0.00    +0.133 C 
ATOM     31  S   UNL     1       7.957  -2.924  -5.811  0.00  0.00    -0.141 S 
ATOM     32  C   UNL     1       8.764  -4.317  -6.700  0.00  0.00    +0.081 C 
ATOM     33  C   UNL     1       9.239  -5.287  -5.590  0.00  0.00    +0.081 C 
ATOM     34  S   UNL     1       9.964  -4.256  -4.265  0.00  0.00    -0.141 S 
ENDBRANCH  27  30
ENDBRANCH  23  24
ENDBRANCH  22  23
ENDBRANCH   4  22
TORSDOF 8
