REMARK  Name = ZINC63667284
REMARK  8 active torsions:
REMARK  status: ('A' for Active; 'I' for Inactive)
REMARK    1  A    between atoms: C_1  and  C_2
REMARK    2  A    between atoms: C_2  and  C_4
REMARK    3  A    between atoms: C_2  and  S_21
REMARK    4  A    between atoms: N_6  and  C_7
REMARK    5  A    between atoms: C_10  and  C_13
REMARK    6  A    between atoms: C_18  and  O_19
REMARK    7  A    between atoms: O_19  and  C_20
REMARK    8  A    between atoms: S_21  and  C_22
REMARK                            x       y       z     vdW  Elec       q    Type
REMARK                         _______ _______ _______ _____ _____    ______ ____
ROOT
ATOM      1  C   UNL     1       0.707  -0.490  -1.238  0.00  0.00    +0.261 C 
ATOM      2  O   UNL     1      -0.005  -0.815  -2.336  0.00  0.00    -0.270 OA
ATOM      3  N   UNL     1       2.004  -0.597  -1.249  0.00  0.00    -0.185 NA
ENDROOT
BRANCH   3   4
ATOM      4  C   UNL     1       2.643  -1.037  -2.372  0.00  0.00    +0.210 C 
ATOM      5  N   UNL     1       2.116  -1.384  -3.510  0.00  0.00    -0.159 NA
ATOM      6  N   UNL     1       2.861  -1.816  -4.585  0.00  0.00    -0.249 N 
ATOM      7  C   UNL     1       4.324  -1.863  -4.361  0.00  0.00    +0.187 C 
ATOM      8  S   UNL     1       4.396  -1.263  -2.623  0.00  0.00    -0.056 S 
ATOM      9  H   UNL     1       2.457  -2.072  -5.428  0.00  0.00    +0.170 HD
BRANCH   7  10
ATOM     10  C   UNL     1       5.051  -0.926  -5.291  0.00  0.00    +0.026 A 
ATOM     11  C   UNL     1       4.352   0.055  -5.969  0.00  0.00    +0.010 A 
ATOM     12  C   UNL     1       5.018   0.914  -6.823  0.00  0.00    +0.001 A 
ATOM     13  C   UNL     1       6.384   0.796  -7.000  0.00  0.00    +0.004 A 
ATOM     14  C   UNL     1       7.087  -0.182  -6.323  0.00  0.00    +0.046 A 
ATOM     15  C   UNL     1       6.422  -1.042  -5.462  0.00  0.00    +0.126 A 
BRANCH  15  16
ATOM     16  O   UNL     1       7.112  -2.002  -4.791  0.00  0.00    -0.495 OA
ATOM     17  C   UNL     1       8.522  -2.064  -5.016  0.00  0.00    +0.277 C 
ENDBRANCH  15  16
ENDBRANCH   7  10
ENDBRANCH   3   4
BRANCH   1  19
ATOM     18  C   UNL     1      -0.019   1.526   0.010  0.00  0.00    +0.029 C 
ATOM     19  C   UNL     1       0.002  -0.004   0.002  0.00  0.00    +0.137 C 
BRANCH  19  20
ATOM     20  S   UNL     1      -1.700  -0.632   0.015  0.00  0.00    -0.102 S 
BRANCH  20  21
ATOM     21  C   UNL     1      -2.354  -0.095   1.619  0.00  0.00    +0.236 C 
ATOM     22  N   UNL     1      -1.508  -0.607   2.705  0.00  0.00    -0.355 N 
ATOM     23  C   UNL     1      -1.035   0.420   3.349  0.00  0.00    +0.061 A 
ATOM     24  C   UNL     1      -0.145   0.547   4.512  0.00  0.00    +0.027 A 
ATOM     25  C   UNL     1       0.181   1.772   4.969  0.00  0.00    +0.002 A 
ATOM     26  C   UNL     1      -0.299   2.955   4.378  0.00  0.00    +0.002 A 
ATOM     27  C   UNL     1      -1.121   2.951   3.309  0.00  0.00    +0.027 A 
ATOM     28  C   UNL     1      -1.542   1.672   2.724  0.00  0.00    +0.061 A 
ATOM     29  N   UNL     1      -2.310   1.370   1.716  0.00  0.00    -0.355 N 
ATOM     30  H   UNL     1      -1.335  -1.540   2.906  0.00  0.00    +0.162 HD
ATOM     31  H   UNL     1      -2.769   1.997   1.136  0.00  0.00    +0.162 HD
ENDBRANCH  20  21
ENDBRANCH  19  20
ENDBRANCH   1  19
TORSDOF 6
