REMARK  Name = ZINC05745617
REMARK  4 active torsions:
REMARK  status: ('A' for Active; 'I' for Inactive)
REMARK    1  A    between atoms: C_1  and  C_2
REMARK    2  A    between atoms: C_5  and  C_8
REMARK    3  A    between atoms: C_20  and  C_22
REMARK    4  A    between atoms: C_25  and  C_28
REMARK                            x       y       z     vdW  Elec       q    Type
REMARK                         _______ _______ _______ _____ _____    ______ ____
ROOT
ATOM      1  C   UNL     1      -2.503   1.007   0.019  0.00  0.00    +0.124 C 
ATOM      2  N   UNL     1      -2.673  -0.283   0.013  0.00  0.00    -0.179 NA
ATOM      3  N   UNL     1      -3.917  -0.880   0.018  0.00  0.00    -0.252 N 
ATOM      4  C   UNL     1      -5.054   0.053   0.027  0.00  0.00    +0.100 C 
ATOM      5  S   UNL     1      -4.167   1.659   0.038  0.00  0.00    -0.077 S 
ATOM      6  C   UNL     1      -5.883  -0.090   1.291  0.00  0.00    +0.041 C 
ATOM      7  C   UNL     1      -6.994   0.967   1.298  0.00  0.00    +0.041 C 
ATOM      8  C   UNL     1      -7.835   0.822   0.042  0.00  0.00    +0.100 C 
ATOM      9  C   UNL     1      -7.006   0.975  -1.221  0.00  0.00    +0.041 C 
ATOM     10  C   UNL     1      -5.892  -0.079  -1.232  0.00  0.00    +0.041 C 
ATOM     11  N   UNL     1      -8.596  -0.436   0.042  0.00  0.00    -0.252 N 
ATOM     12  N   UNL     1      -9.968  -0.289   0.047  0.00  0.00    -0.179 NA
ATOM     13  C   UNL     1     -10.559   0.871   0.053  0.00  0.00    +0.124 C 
ATOM     14  S   UNL     1      -9.207   2.040   0.052  0.00  0.00    -0.077 S 
ATOM     15  H   UNL     1      -4.033  -1.843   0.015  0.00  0.00    +0.170 HD
ATOM     16  H   UNL     1      -8.165  -1.306   0.038  0.00  0.00    +0.170 HD
ENDROOT
BRANCH   1  21
ATOM     17  C   UNL     1       2.452   3.933  -0.001  0.00  0.00    +0.044 C 
ATOM     18  C   UNL     1       1.155   3.167   0.008  0.00  0.00    -0.050 A 
ATOM     19  C   UNL     1       1.172   1.783   0.000  0.00  0.00    +0.004 A 
ATOM     20  C   UNL     1      -0.013   1.076   0.008  0.00  0.00    +0.011 A 
ATOM     21  C   UNL     1      -1.230   1.759   0.017  0.00  0.00    +0.008 A 
ATOM     22  C   UNL     1      -1.240   3.154   0.031  0.00  0.00    +0.011 A 
ATOM     23  C   UNL     1      -0.048   3.850   0.023  0.00  0.00    +0.004 A 
ENDBRANCH   1  21
BRANCH  13  24
ATOM     24  C   UNL     1     -12.009   1.155   0.059  0.00  0.00    +0.008 A 
ATOM     25  C   UNL     1     -12.465   2.474   0.072  0.00  0.00    +0.011 A 
ATOM     26  C   UNL     1     -13.820   2.732   0.072  0.00  0.00    +0.004 A 
ATOM     27  C   UNL     1     -14.727   1.687   0.072  0.00  0.00    -0.050 A 
ATOM     28  C   UNL     1     -14.282   0.377   0.065  0.00  0.00    +0.004 A 
ATOM     29  C   UNL     1     -12.929   0.105   0.059  0.00  0.00    +0.011 A 
ATOM     30  C   UNL     1     -16.206   1.977   0.079  0.00  0.00    +0.044 C 
ENDBRANCH  13  24
TORSDOF 2
