REMARK  Name = ZINC36243270
REMARK  9 active torsions:
REMARK  status: ('A' for Active; 'I' for Inactive)
REMARK    1  A    between atoms: C_1  and  N_2
REMARK    2  A    between atoms: N_2  and  C_3
REMARK    3  A    between atoms: N_2  and  C_4
REMARK    4  A    between atoms: C_4  and  C_5
REMARK    5  A    between atoms: C_5  and  C_6
REMARK    6  A    between atoms: C_6  and  O_7
REMARK    7  A    between atoms: O_7  and  C_8
REMARK    8  A    between atoms: C_15  and  C_17
REMARK    9  A    between atoms: C_20  and  N_23
REMARK                            x       y       z     vdW  Elec       q    Type
REMARK                         _______ _______ _______ _____ _____    ______ ____
ROOT
ATOM      1  C   UNL     1       0.462  -0.626   6.056  0.00  0.00    +0.161 A 
ATOM      2  C   UNL     1       1.639  -1.314   6.106  0.00  0.00    +0.051 A 
ATOM      3  C   UNL     1       2.167  -1.697   7.350  0.00  0.00    +0.022 A 
ATOM      4  C   UNL     1       1.517  -1.389   8.491  0.00  0.00    +0.093 A 
ATOM      5  N   UNL     1       0.336  -0.700   8.458  0.00  0.00    -0.305 N 
ATOM      6  C   UNL     1      -0.204  -0.305   7.262  0.00  0.00    +0.159 A 
ATOM      7  N   UNL     1      -1.333   0.343   7.508  0.00  0.00    -0.337 N 
ATOM      8  C   UNL     1      -1.535   0.385   8.834  0.00  0.00    +0.065 A 
ATOM      9  C   UNL     1      -0.507  -0.270   9.444  0.00  0.00    +0.119 A 
ATOM     10  H   UNL     1      -1.919   0.727   6.838  0.00  0.00    +0.167 HD
ENDROOT
BRANCH   8  11
ATOM     11  C   UNL     1      -2.687   1.023   9.518  0.00  0.00    -0.000 A 
ATOM     12  C   UNL     1      -3.684   1.646   8.771  0.00  0.00    +0.012 A 
ATOM     13  C   UNL     1      -4.754   2.238   9.408  0.00  0.00    +0.023 A 
ATOM     14  C   UNL     1      -4.839   2.213  10.795  0.00  0.00    +0.025 A 
ATOM     15  C   UNL     1      -3.845   1.591  11.543  0.00  0.00    +0.023 A 
ATOM     16  C   UNL     1      -2.776   0.994  10.909  0.00  0.00    +0.012 A 
BRANCH  14  17
ATOM     17  N   UNL     1      -5.923   2.813  11.439  0.00  0.00    -0.358 N 
ATOM     18  H   UNL     1      -6.616   3.247  10.918  0.00  0.00    +0.142 HD
ATOM     19  H   UNL     1      -5.982   2.796  12.407  0.00  0.00    +0.142 HD
ENDBRANCH  14  17
ENDBRANCH   8  11
BRANCH   1  20
ATOM     20  O   UNL     1      -0.063  -0.249   4.860  0.00  0.00    -0.488 OA
BRANCH  20  21
ATOM     21  C   UNL     1       0.669  -0.610   3.687  0.00  0.00    +0.227 C 
BRANCH  21  22
ATOM     22  C   UNL     1      -0.071  -0.103   2.448  0.00  0.00    +0.022 C 
BRANCH  22  23
ATOM     23  C   UNL     1       0.713  -0.491   1.192  0.00  0.00    -0.076 C 
BRANCH  23  25
ATOM     24  C   UNL     1      -0.018   1.465   0.010  0.00  0.00    -0.097 C 
ATOM     25  N   UNL     1       0.002  -0.004   0.002  0.00  0.00    +0.376 N 
ATOM     26  C   UNL     1       0.690  -0.478  -1.207  0.00  0.00    -0.097 C 
ATOM     27  H   UNL     1      -0.945  -0.353   0.009  0.00  0.00    -0.083 HD
ENDBRANCH  23  25
ENDBRANCH  22  23
ENDBRANCH  21  22
ENDBRANCH  20  21
ENDBRANCH   1  20
TORSDOF 7
