REMARK  Name = ZINC17138370
REMARK  8 active torsions:
REMARK  status: ('A' for Active; 'I' for Inactive)
REMARK    1  A    between atoms: C_1  and  C_2
REMARK    2  A    between atoms: C_2  and  C_5
REMARK    3  A    between atoms: N_3  and  O_4
REMARK    4  A    between atoms: C_10  and  C_32
REMARK    5  A    between atoms: C_21  and  C_31
REMARK    6  A    between atoms: C_24  and  O_27
REMARK    7  A    between atoms: O_27  and  C_28
REMARK    8  A    between atoms: C_28  and  C_30
REMARK                            x       y       z     vdW  Elec       q    Type
REMARK                         _______ _______ _______ _____ _____    ______ ____
ROOT
ATOM      1  C   UNL     1      -3.741   4.611   5.830  0.00  0.00    -0.021 C 
ATOM      2  C   UNL     1      -4.803   3.875   5.458  0.00  0.00    -0.021 C 
ATOM      3  C   UNL     1      -4.451   3.053   4.218  0.00  0.00    +0.032 C 
ATOM      4  C   UNL     1      -2.923   2.947   4.361  0.00  0.00    +0.006 C 
ATOM      5  C   UNL     1      -2.635   4.391   4.830  0.00  0.00    -0.002 C 
ATOM      6  C   UNL     1      -1.218   4.467   5.346  0.00  0.00    +0.012 C 
ATOM      7  C   UNL     1      -0.415   3.284   4.749  0.00  0.00    +0.005 C 
ATOM      8  C   UNL     1      -0.735   3.167   3.269  0.00  0.00    -0.001 C 
ATOM      9  C   UNL     1      -2.154   2.624   3.089  0.00  0.00    -0.003 C 
ATOM     10  C   UNL     1      -2.157   1.095   2.971  0.00  0.00    +0.004 C 
ATOM     11  C   UNL     1      -1.184   0.619   1.902  0.00  0.00    +0.004 C 
ATOM     12  C   UNL     1       0.233   1.038   2.314  0.00  0.00    -0.001 C 
ATOM     13  C   UNL     1       0.300   2.543   2.377  0.00  0.00    -0.026 C 
ATOM     14  C   UNL     1       0.228   3.171   0.986  0.00  0.00    +0.011 C 
ATOM     15  C   UNL     1       1.209   2.546   0.008  0.00  0.00    +0.045 C 
ATOM     16  C   UNL     1       1.026   1.030  -0.054  0.00  0.00    +0.177 C 
ATOM     17  C   UNL     1       1.226   0.432   1.335  0.00  0.00    +0.048 C 
ATOM     18  C   UNL     1       1.683   2.905   2.908  0.00  0.00    +0.012 C 
ATOM     19  C   UNL     1      -2.842   5.404   3.699  0.00  0.00    +0.016 C 
ENDROOT
BRANCH   1  21
ATOM     20  C   UNL     1      -4.178   6.903   6.918  0.00  0.00    +0.069 C 
ATOM     21  C   UNL     1      -3.675   5.485   7.005  0.00  0.00    +0.080 C 
ATOM     22  N   UNL     1      -3.185   5.038   8.118  0.00  0.00    -0.092 NA
BRANCH  22  23
ATOM     23  O   UNL     1      -2.821   3.675   8.234  0.00  0.00    -0.409 OA
ATOM     24  H   UNL     1      -2.404   3.296   9.179  0.00  0.00    +0.328 HD
ENDBRANCH  22  23
ENDBRANCH   1  21
BRANCH  16  25
ATOM     25  O   UNL     1       1.998   0.460  -0.970  0.00  0.00    -0.462 OA
BRANCH  25  26
ATOM     26  C   UNL     1       1.635   0.356  -2.258  0.00  0.00    +0.304 C 
ATOM     27  O   UNL     1       0.540   0.729  -2.608  0.00  0.00    -0.251 OA
ATOM     28  C   UNL     1       2.591  -0.227  -3.267  0.00  0.00    +0.136 C 
ENDBRANCH  25  26
ENDBRANCH  16  25
TORSDOF 4
