REMARK  Name = ZINC48022152
REMARK  4 active torsions:
REMARK  status: ('A' for Active; 'I' for Inactive)
REMARK    1  A    between atoms: C_4  and  O_10
REMARK    2  A    between atoms: C_5  and  N_7
REMARK    3  A    between atoms: O_10  and  C_11
REMARK    4  A    between atoms: C_11  and  C_12
REMARK                            x       y       z     vdW  Elec       q    Type
REMARK                         _______ _______ _______ _____ _____    ______ ____
ROOT
ATOM      1  C   UNL     1      -0.017   1.378   0.010  0.00  0.00    +0.002 A 
ATOM      2  C   UNL     1       1.170   2.088   0.002  0.00  0.00    +0.004 A 
ATOM      3  C   UNL     1       2.377   1.417  -0.013  0.00  0.00    +0.048 A 
ATOM      4  C   UNL     1       2.399   0.030  -0.021  0.00  0.00    +0.151 A 
ATOM      5  C   UNL     1       1.207  -0.680  -0.013  0.00  0.00    +0.168 A 
ATOM      6  C   UNL     1       0.002  -0.004   0.002  0.00  0.00    +0.036 A 
ENDROOT
BRANCH   5   7
ATOM      7  N   UNL     1       1.226  -2.160  -0.022  0.00  0.00    +0.060 N 
ATOM      8  O   UNL     1       0.188  -2.778  -0.015  0.00  0.00    -0.126 OA
ATOM      9  O   UNL     1       2.281  -2.750  -0.036  0.00  0.00    -0.126 OA
ENDBRANCH   5   7
BRANCH   4  10
ATOM     10  O   UNL     1       3.586  -0.632  -0.037  0.00  0.00    -0.485 OA
BRANCH  10  11
ATOM     11  C   UNL     1       4.772   0.164  -0.045  0.00  0.00    +0.271 C 
BRANCH  11  12
ATOM     12  C   UNL     1       5.981  -0.737  -0.062  0.00  0.00    +0.028 A 
ATOM     13  C   UNL     1       6.657  -1.237  -1.125  0.00  0.00    +0.016 A 
ATOM     14  C   UNL     1       7.751  -2.052  -0.900  0.00  0.00    +0.023 A 
ATOM     15  C   UNL     1       8.113  -2.328   0.377  0.00  0.00    +0.055 A 
ATOM     16  S   UNL     1       6.897  -1.415   1.312  0.00  0.00    -0.083 S 
ATOM     17 BR   UNL     1       9.542  -3.396   1.005  0.00  0.00    -0.043 Br
ENDBRANCH  11  12
ENDBRANCH  10  11
ENDBRANCH   4  10
TORSDOF 4
