REMARK  Name = ZINC02949121
REMARK  8 active torsions:
REMARK  status: ('A' for Active; 'I' for Inactive)
REMARK    1  A    between atoms: CG_4  and  CB_7
REMARK    2  A    between atoms: CB_7  and  CA_8
REMARK    3  A    between atoms: CA_8  and  C_10
REMARK    4  A    between atoms: CA_8  and  N_13
REMARK    5  A    between atoms: C_14  and  CA_16
REMARK    6  A    between atoms: CA_16  and  N_25
REMARK    7  A    between atoms: C_17  and  C_18
REMARK    8  A    between atoms: C_26  and  C_28
REMARK                            x       y       z     vdW  Elec       q    Type
REMARK                         _______ _______ _______ _____ _____    ______ ____
ROOT
ATOM      1  CA  UNL     1       1.932  -2.602   3.959  0.00  0.00    +0.097 C 
ATOM      2  C   UNL     1       1.516  -3.733   3.345  0.00  0.00    +0.036 C 
ENDROOT
BRANCH   2   3
ATOM      3  C   UNL     1       0.695  -4.708   4.078  0.00  0.00    -0.023 A 
ATOM      4  C   UNL     1       0.021  -4.326   5.242  0.00  0.00    +0.009 A 
ATOM      5  C   UNL     1      -0.747  -5.245   5.924  0.00  0.00    +0.020 A 
ATOM      6  C   UNL     1      -0.852  -6.546   5.459  0.00  0.00    +0.041 A 
ATOM      7  C   UNL     1      -0.187  -6.932   4.306  0.00  0.00    +0.020 A 
ATOM      8  C   UNL     1       0.580  -6.022   3.611  0.00  0.00    +0.009 A 
ATOM      9 CL   UNL     1      -1.821  -7.697   6.324  0.00  0.00    -0.084 Cl
ENDBRANCH   2   3
BRANCH   1  11
ATOM     10  N   UNL     1       2.836  -1.725   1.867  0.00  0.00    -0.297 N 
ATOM     11  C   UNL     1       2.620  -1.556   3.187  0.00  0.00    +0.259 C 
ATOM     12  O   UNL     1       2.994  -0.539   3.739  0.00  0.00    -0.269 OA
ATOM     13  H   UNL     1       2.538  -2.537   1.427  0.00  0.00    +0.150 HD
BRANCH  10  14
ATOM     14  CA  UNL     1       3.521  -0.684   1.098  0.00  0.00    +0.191 C 
BRANCH  14  15
ATOM     15  C   UNL     1       5.012  -0.869   1.219  0.00  0.00    +0.376 C 
ATOM     16  O   UNL     1       5.753   0.098   1.158  0.00  0.00    -0.244 OA
ATOM     17  OXT UNL     1       5.477  -1.985   1.377  0.00  0.00    -0.244 OA
ENDBRANCH  14  15
BRANCH  14  18
ATOM     18  CB  UNL     1       3.113  -0.784  -0.373  0.00  0.00    +0.069 C 
BRANCH  18  22
ATOM     19  CZ  UNL     1      -1.052   0.084  -0.758  0.00  0.00    +0.000 A 
ATOM     20  CE1 UNL     1      -0.123   1.104  -0.845  0.00  0.00    +0.000 A 
ATOM     21  CD1 UNL     1       1.225   0.823  -0.720  0.00  0.00    +0.004 A 
ATOM     22  CG  UNL     1       1.643  -0.478  -0.508  0.00  0.00    -0.045 A 
ATOM     23  CD2 UNL     1       0.714  -1.497  -0.420  0.00  0.00    +0.004 A 
ATOM     24  CE2 UNL     1      -0.634  -1.216  -0.546  0.00  0.00    +0.000 A 
ENDBRANCH  18  22
ENDBRANCH  14  18
ENDBRANCH  10  14
ENDBRANCH   1  11
BRANCH   1  25
ATOM     25  N   UNL     1       1.708  -2.426   5.328  0.00  0.00    -0.277 N 
ATOM     26  C   UNL     1       1.019  -1.354   5.766  0.00  0.00    +0.248 C 
ATOM     27  O   UNL     1       0.687  -0.484   4.984  0.00  0.00    -0.270 OA
ATOM     28  H   UNL     1       2.049  -3.076   5.962  0.00  0.00    +0.155 HD
BRANCH  26  29
ATOM     29  C   UNL     1       0.667  -1.236   7.196  0.00  0.00    +0.037 A 
ATOM     30  C   UNL     1       1.145  -2.171   8.116  0.00  0.00    +0.013 A 
ATOM     31  C   UNL     1       0.813  -2.055   9.450  0.00  0.00    +0.001 A 
ATOM     32  C   UNL     1       0.007  -1.015   9.877  0.00  0.00    +0.000 A 
ATOM     33  C   UNL     1      -0.471  -0.085   8.971  0.00  0.00    +0.001 A 
ATOM     34  C   UNL     1      -0.141  -0.186   7.635  0.00  0.00    +0.013 A 
ENDBRANCH  26  29
ENDBRANCH   1  25
TORSDOF 8
