REMARK  Name = ZINC05638760
REMARK  11 active torsions:
REMARK  status: ('A' for Active; 'I' for Inactive)
REMARK    1  A    between atoms: C_1  and  C_2
REMARK    2  A    between atoms: C_2  and  C_5
REMARK    3  A    between atoms: N_3  and  O_4
REMARK    4  A    between atoms: C_5  and  O_34
REMARK    5  A    between atoms: C_6  and  O_33
REMARK    6  A    between atoms: C_11  and  C_32
REMARK    7  A    between atoms: C_21  and  C_31
REMARK    8  A    between atoms: C_24  and  O_27
REMARK    9  A    between atoms: O_27  and  C_28
REMARK   10  A    between atoms: C_28  and  C_30
REMARK   11  A    between atoms: O_34  and  C_35
REMARK                            x       y       z     vdW  Elec       q    Type
REMARK                         _______ _______ _______ _____ _____    ______ ____
ROOT
ATOM      1  C   UNL     1       0.423  -0.994  -1.353  0.00  0.00    +0.141 C 
ATOM      2  C   UNL     1       1.696  -1.153  -2.208  0.00  0.00    +0.153 C 
ATOM      3  C   UNL     1       2.066  -2.652  -2.168  0.00  0.00    +0.039 C 
ATOM      4  C   UNL     1       0.714  -3.361  -1.853  0.00  0.00    +0.004 C 
ATOM      5  C   UNL     1       0.090  -2.397  -0.831  0.00  0.00    +0.008 C 
ATOM      6  C   UNL     1      -1.395  -2.616  -0.650  0.00  0.00    +0.010 C 
ATOM      7  C   UNL     1      -2.119  -2.551  -1.993  0.00  0.00    +0.005 C 
ATOM      8  C   UNL     1      -1.563  -3.650  -2.909  0.00  0.00    +0.003 C 
ATOM      9  C   UNL     1      -0.074  -3.393  -3.167  0.00  0.00    +0.000 C 
ATOM     10  C   UNL     1       0.489  -4.539  -4.021  0.00  0.00    +0.031 C 
ATOM     11  C   UNL     1      -0.351  -4.726  -5.248  0.00  0.00    -0.027 C 
ATOM     12  C   UNL     1      -1.579  -4.328  -5.343  0.00  0.00    -0.064 C 
ATOM     13  C   UNL     1      -2.333  -3.607  -4.224  0.00  0.00    -0.008 C 
ATOM     14  C   UNL     1      -2.638  -2.168  -4.634  0.00  0.00    +0.015 C 
ATOM     15  C   UNL     1      -2.758  -2.071  -6.154  0.00  0.00    +0.046 C 
ATOM     16  C   UNL     1      -3.373  -3.341  -6.740  0.00  0.00    +0.180 C 
ATOM     17  C   UNL     1      -2.341  -4.541  -6.641  0.00  0.00    +0.075 C 
ATOM     18  C   UNL     1      -3.669  -4.325  -4.020  0.00  0.00    +0.016 C 
ATOM     19  C   UNL     1       0.773  -2.599   0.523  0.00  0.00    +0.015 C 
ENDROOT
BRANCH   1  21
ATOM     20  C   UNL     1      -0.432   0.301   0.746  0.00  0.00    +0.067 C 
ATOM     21  C   UNL     1       0.684  -0.059  -0.200  0.00  0.00    +0.089 C 
ATOM     22  N   UNL     1       1.854   0.429  -0.025  0.00  0.00    -0.094 NA
BRANCH  22  23
ATOM     23  O   UNL     1       2.099   1.307   1.059  0.00  0.00    -0.409 OA
ATOM     24  H   UNL     1       3.011   1.624   1.109  0.00  0.00    +0.328 HD
ENDBRANCH  22  23
ENDBRANCH   1  21
BRANCH   2  25
ATOM     25  O   UNL     1       1.438  -0.747  -3.553  0.00  0.00    -0.389 OA
ATOM     26  H   UNL     1       2.202  -0.824  -4.141  0.00  0.00    +0.210 HD
ENDBRANCH   2  25
BRANCH   1  27
ATOM     27  O   UNL     1      -0.652  -0.498  -2.154  0.00  0.00    -0.368 OA
ATOM     28  C   UNL     1      -0.470   0.846  -2.604  0.00  0.00    +0.195 C 
ENDBRANCH   1  27
BRANCH  16  29
ATOM     29  O   UNL     1      -4.556  -3.677  -6.011  0.00  0.00    -0.461 OA
BRANCH  29  30
ATOM     30  C   UNL     1      -5.525  -4.316  -6.685  0.00  0.00    +0.304 C 
ATOM     31  O   UNL     1      -5.375  -4.581  -7.854  0.00  0.00    -0.251 OA
ATOM     32  C   UNL     1      -6.801  -4.702  -5.983  0.00  0.00    +0.136 C 
ENDBRANCH  29  30
ENDBRANCH  16  29
TORSDOF 6
