REMARK  Name = ZINC08764811
REMARK  6 active torsions:
REMARK  status: ('A' for Active; 'I' for Inactive)
REMARK    1  A    between atoms: C_1  and  C_2
REMARK    2  A    between atoms: C_9  and  C_32
REMARK    3  A    between atoms: C_10  and  C_17
REMARK    4  A    between atoms: C_15  and  C_16
REMARK    5  A    between atoms: C_17  and  C_18
REMARK    6  A    between atoms: N_20  and  C_21
REMARK                            x       y       z     vdW  Elec       q    Type
REMARK                         _______ _______ _______ _____ _____    ______ ____
ROOT
ATOM      1  C   UNL     1       4.167  12.628  -5.320  0.00  0.00    +0.047 C 
ATOM      2  C   UNL     1       4.207  12.880  -3.835  0.00  0.00    -0.005 A 
ATOM      3  C   UNL     1       3.988  14.043  -3.210  0.00  0.00    +0.199 A 
ATOM      4  O   UNL     1       4.110  13.888  -1.880  0.00  0.00    -0.462 OA
ATOM      5  C   UNL     1       4.415  12.612  -1.568  0.00  0.00    +0.141 A 
ATOM      6  C   UNL     1       4.496  11.897  -2.781  0.00  0.00    +0.024 A 
ATOM      7  C   UNL     1       4.799  10.543  -2.780  0.00  0.00    +0.023 A 
ATOM      8  C   UNL     1       5.023   9.893  -1.566  0.00  0.00    +0.022 A 
ATOM      9  C   UNL     1       5.351   8.465  -1.529  0.00  0.00    -0.029 A 
ATOM     10  C   UNL     1       5.555   7.885  -0.319  0.00  0.00    +0.049 A 
ATOM     11  C   UNL     1       5.458   8.660   0.856  0.00  0.00    +0.341 A 
ATOM     12  O   UNL     1       5.649   8.128   1.935  0.00  0.00    -0.245 OA
ATOM     13  O   UNL     1       5.162   9.968   0.817  0.00  0.00    -0.422 OA
ATOM     14  C   UNL     1       4.942  10.609  -0.353  0.00  0.00    +0.146 A 
ATOM     15  C   UNL     1       4.639  11.959  -0.365  0.00  0.00    +0.035 A 
ATOM     16  C   UNL     1       4.553  12.722   0.932  0.00  0.00    +0.051 C 
ATOM     17  C   UNL     1       5.454   7.661  -2.799  0.00  0.00    +0.045 C 
ENDROOT
BRANCH  10  18
ATOM     18  C   UNL     1       5.891   6.418  -0.231  0.00  0.00    +0.138 C 
BRANCH  18  19
ATOM     19  C   UNL     1       4.619   5.619  -0.110  0.00  0.00    +0.222 C 
ATOM     20  O   UNL     1       3.546   6.184  -0.097  0.00  0.00    -0.275 OA
ATOM     21  N   UNL     1       4.675   4.275  -0.017  0.00  0.00    -0.285 N 
ATOM     22  H   UNL     1       5.533   3.828   0.040  0.00  0.00    +0.155 HD
BRANCH  21  23
ATOM     23  C   UNL     1       3.492   3.525  -0.003  0.00  0.00    +0.034 A 
ATOM     24  C   UNL     1       3.455   2.274  -0.616  0.00  0.00    +0.027 A 
ATOM     25  C   UNL     1       2.299   1.524  -0.611  0.00  0.00    +0.049 A 
ATOM     26  C   UNL     1       1.156   2.012   0.010  0.00  0.00    +0.139 A 
ATOM     27  C   UNL     1       1.188   3.273   0.630  0.00  0.00    +0.019 A 
ATOM     28  C   UNL     1       2.365   4.028   0.620  0.00  0.00    +0.035 A 
ATOM     29  C   UNL     1      -0.026   3.777   1.280  0.00  0.00    +0.018 A 
ATOM     30  C   UNL     1      -1.137   2.998   1.256  0.00  0.00    +0.092 A 
ATOM     31  C   UNL     1      -1.098   1.741   0.614  0.00  0.00    +0.337 A 
ATOM     32  O   UNL     1      -2.102   1.051   0.599  0.00  0.00    -0.245 OA
ATOM     33  O   UNL     1       0.017   1.286   0.021  0.00  0.00    -0.422 OA
ENDBRANCH  21  23
ENDBRANCH  18  19
ENDBRANCH  10  18
TORSDOF 3
