REMARK  Name = ZINC07099258
REMARK  8 active torsions:
REMARK  status: ('A' for Active; 'I' for Inactive)
REMARK    1  A    between atoms: C_1  and  C_2
REMARK    2  A    between atoms: C_3  and  C_27
REMARK    3  A    between atoms: C_5  and  S_8
REMARK    4  A    between atoms: S_8  and  C_9
REMARK    5  A    between atoms: C_9  and  C_11
REMARK    6  A    between atoms: C_9  and  C_12
REMARK    7  A    between atoms: N_14  and  C_15
REMARK    8  A    between atoms: C_27  and  C_28
REMARK                            x       y       z     vdW  Elec       q    Type
REMARK                         _______ _______ _______ _____ _____    ______ ____
ROOT
ATOM      1  C   UNL     1       0.065  -4.918   0.432  0.00  0.00    +0.137 C 
ATOM      2  C   UNL     1       1.363  -4.872  -0.377  0.00  0.00    +0.029 C 
ENDROOT
BRANCH   1   3
ATOM      3  C   UNL     1      -0.030  -6.237   1.155  0.00  0.00    +0.230 C 
ATOM      4  O   UNL     1       0.264  -6.308   2.329  0.00  0.00    -0.274 OA
ATOM      5  N   UNL     1      -0.441  -7.339   0.496  0.00  0.00    -0.285 N 
ATOM      6  H   UNL     1      -0.740  -7.270  -0.425  0.00  0.00    +0.155 HD
BRANCH   5   7
ATOM      7  C   UNL     1      -0.437  -8.583   1.140  0.00  0.00    +0.035 A 
ATOM      8  C   UNL     1      -0.130  -9.734   0.423  0.00  0.00    +0.025 A 
ATOM      9  C   UNL     1      -0.124 -10.963   1.052  0.00  0.00    +0.029 A 
ATOM     10  C   UNL     1      -0.425 -11.050   2.402  0.00  0.00    +0.067 A 
ATOM     11  C   UNL     1      -0.734  -9.896   3.125  0.00  0.00    +0.069 A 
ATOM     12  C   UNL     1      -0.733  -8.663   2.492  0.00  0.00    +0.051 A 
ATOM     13  N   UNL     1      -0.987 -10.296   4.435  0.00  0.00    -0.306 N 
ATOM     14  H   UNL     1      -1.228  -9.712   5.171  0.00  0.00    +0.170 HD
ATOM     15  C   UNL     1      -0.839 -11.633   4.507  0.00  0.00    +0.325 A 
ATOM     16  O   UNL     1      -0.989 -12.301   5.513  0.00  0.00    -0.247 OA
ATOM     17  N   UNL     1      -0.500 -12.117   3.297  0.00  0.00    -0.306 N 
ATOM     18  H   UNL     1      -0.337 -13.050   3.085  0.00  0.00    +0.170 HD
ENDBRANCH   5   7
ENDBRANCH   1   3
BRANCH   1  19
ATOM     19  S   UNL     1       0.057  -3.565   1.641  0.00  0.00    -0.075 S 
BRANCH  19  24
ATOM     20  C   UNL     1      -0.043   1.505   0.025  0.00  0.00    +0.065 C 
ATOM     21  C   UNL     1      -0.019  -0.002   0.014  0.00  0.00    +0.037 A 
ATOM     22  C   UNL     1      -0.019  -0.794  -1.072  0.00  0.00    +0.067 A 
ATOM     23  N   UNL     1       0.006  -2.073  -0.663  0.00  0.00    -0.226 NA
ATOM     24  C   UNL     1       0.022  -2.109   0.649  0.00  0.00    +0.167 A 
ATOM     25  N   UNL     1       0.013  -0.829   1.114  0.00  0.00    -0.337 N 
ATOM     26  H   UNL     1       0.024  -0.553   2.044  0.00  0.00    +0.168 HD
BRANCH  22  27
ATOM     27  C   UNL     1      -0.044  -0.326  -2.505  0.00  0.00    +0.092 C 
BRANCH  27  28
ATOM     28  C   UNL     1       1.368  -0.146  -2.999  0.00  0.00    -0.042 A 
ATOM     29  C   UNL     1       2.003   1.072  -2.849  0.00  0.00    +0.004 A 
ATOM     30  C   UNL     1       3.299   1.237  -3.303  0.00  0.00    +0.000 A 
ATOM     31  C   UNL     1       3.959   0.183  -3.906  0.00  0.00    +0.000 A 
ATOM     32  C   UNL     1       3.324  -1.036  -4.055  0.00  0.00    +0.000 A 
ATOM     33  C   UNL     1       2.030  -1.202  -3.598  0.00  0.00    +0.004 A 
ENDBRANCH  27  28
ENDBRANCH  22  27
ENDBRANCH  19  24
ENDBRANCH   1  19
TORSDOF 6
