REMARK  Name = ZINC40914533
REMARK  9 active torsions:
REMARK  status: ('A' for Active; 'I' for Inactive)
REMARK    1  A    between atoms: C_1  and  C_2
REMARK    2  A    between atoms: C_2  and  C_3
REMARK    3  A    between atoms: C_6  and  O_25
REMARK    4  A    between atoms: N_11  and  C_17
REMARK    5  A    between atoms: C_13  and  N_14
REMARK    6  A    between atoms: C_17  and  C_18
REMARK    7  A    between atoms: O_25  and  C_26
REMARK    8  A    between atoms: C_26  and  C_27
REMARK    9  A    between atoms: C_26  and  C_28
REMARK                            x       y       z     vdW  Elec       q    Type
REMARK                         _______ _______ _______ _____ _____    ______ ____
ROOT
ATOM      1  C   UNL     1      -5.359  -0.712   0.171  0.00  0.00    +0.050 C 
ATOM      2  C   UNL     1      -5.729  -2.196   0.175  0.00  0.00    +0.061 C 
ATOM      3  C   UNL     1      -6.139  -2.620   1.592  0.00  0.00    +0.208 C 
ATOM      4  N   UNL     1      -5.048  -2.250   2.503  0.00  0.00    -0.290 N 
ATOM      5  C   UNL     1      -4.713  -2.871   3.784  0.00  0.00    +0.128 C 
ATOM      6  C   UNL     1      -3.476  -2.103   4.285  0.00  0.00    +0.125 C 
ATOM      7  N   UNL     1      -3.208  -1.097   3.249  0.00  0.00    -0.311 N 
ATOM      8  C   UNL     1      -4.151  -1.215   2.245  0.00  0.00    +0.118 C 
ATOM      9  C   UNL     1      -4.240  -0.454   1.148  0.00  0.00    +0.142 C 
ENDROOT
BRANCH   9  10
ATOM     10  N   UNL     1      -3.257   0.626   0.901  0.00  0.00    +0.056 N 
ATOM     11  O   UNL     1      -2.283   0.412   0.218  0.00  0.00    -0.126 OA
ATOM     12  O   UNL     1      -3.429   1.721   1.383  0.00  0.00    -0.126 OA
ENDBRANCH   9  10
BRANCH   1  14
ATOM     13  C   UNL     1      -6.096  -0.392  -2.195  0.00  0.00    +0.004 C 
ATOM     14  C   UNL     1      -4.908  -0.307  -1.234  0.00  0.00    +0.007 C 
ENDBRANCH   1  14
BRANCH   7  15
ATOM     15  C   UNL     1      -2.115  -0.123   3.276  0.00  0.00    +0.143 C 
BRANCH  15  16
ATOM     16  C   UNL     1      -0.794  -0.849   3.275  0.00  0.00    -0.012 A 
ATOM     17  C   UNL     1      -0.544  -1.852   4.201  0.00  0.00    +0.009 A 
ATOM     18  C   UNL     1       0.683  -2.493   4.163  0.00  0.00    +0.040 A 
ATOM     19  C   UNL     1       1.613  -2.114   3.211  0.00  0.00    +0.129 A 
ATOM     20  N   UNL     1       1.340  -1.155   2.346  0.00  0.00    -0.243 NA
ATOM     21  C   UNL     1       0.180  -0.528   2.350  0.00  0.00    +0.117 A 
ATOM     22 CL   UNL     1       3.156  -2.908   3.153  0.00  0.00    -0.062 Cl
ENDBRANCH  15  16
ENDBRANCH   7  15
BRANCH   3  23
ATOM     23  O   UNL     1      -7.339  -1.944   1.972  0.00  0.00    -0.356 OA
BRANCH  23  24
ATOM     24  C   UNL     1      -8.533  -2.675   1.688  0.00  0.00    +0.114 C 
ATOM     25  C   UNL     1      -8.930  -3.499   2.914  0.00  0.00    +0.037 C 
ATOM     26  C   UNL     1      -9.659  -1.698   1.344  0.00  0.00    +0.037 C 
ENDBRANCH  23  24
ENDBRANCH   3  23
TORSDOF 6
