REMARK  Name = ZINC01060644
REMARK  4 active torsions:
REMARK  status: ('A' for Active; 'I' for Inactive)
REMARK    1  A    between atoms: C_4  and  C_7
REMARK    2  A    between atoms: C_10  and  C_34
REMARK    3  A    between atoms: C_15  and  C_17
REMARK    4  A    between atoms: C_25  and  C_27
REMARK                            x       y       z     vdW  Elec       q    Type
REMARK                         _______ _______ _______ _____ _____    ______ ____
ROOT
ATOM      1  C   UNL     1       5.528  -2.054   0.676  0.00  0.00    +0.104 C 
ATOM      2  C   UNL     1       5.893  -2.826   1.949  0.00  0.00    +0.063 C 
ATOM      3  C   UNL     1       4.653  -3.537   2.502  0.00  0.00    +0.215 C 
ATOM      4  N   UNL     1       4.012  -4.285   1.417  0.00  0.00    -0.237 N 
ATOM      5  C   UNL     1       4.227  -4.033   0.092  0.00  0.00    +0.137 A 
ATOM      6  C   UNL     1       3.488  -4.902  -0.627  0.00  0.00    +0.112 A 
ATOM      7  C   UNL     1       2.787  -5.722   0.286  0.00  0.00    +0.167 A 
ATOM      8  N   UNL     1       3.108  -5.343   1.511  0.00  0.00    -0.163 NA
ATOM      9 CL   UNL     1       3.412  -4.995  -2.358  0.00  0.00    -0.078 Cl
ATOM     10  N   UNL     1       5.088  -3.018  -0.352  0.00  0.00    -0.321 N 
ATOM     11  H   UNL     1       5.379  -2.952  -1.275  0.00  0.00    +0.148 HD
ENDROOT
BRANCH   7  12
ATOM     12  C   UNL     1       1.855  -6.812  -0.068  0.00  0.00    +0.268 C 
ATOM     13  O   UNL     1       1.722  -7.145  -1.229  0.00  0.00    -0.268 OA
ATOM     14  N   UNL     1       1.154  -7.439   0.897  0.00  0.00    -0.293 N 
ATOM     15  C   UNL     1       1.175  -6.942   2.280  0.00  0.00    +0.127 C 
ATOM     16  C   UNL     1      -0.268  -6.695   2.735  0.00  0.00    +0.127 C 
ATOM     17  N   UNL     1      -1.069  -7.887   2.423  0.00  0.00    -0.292 N 
ATOM     18  C   UNL     1      -1.091  -8.383   1.040  0.00  0.00    +0.127 C 
ATOM     19  C   UNL     1       0.348  -8.627   0.585  0.00  0.00    +0.127 C 
ATOM     20  C   UNL     1      -1.771  -8.513   3.388  0.00  0.00    +0.282 C 
ATOM     21  O   UNL     1      -2.321  -9.573   3.151  0.00  0.00    -0.267 OA
BRANCH  20  22
ATOM     22  C   UNL     1      -1.873  -7.918   4.725  0.00  0.00    +0.189 A 
ATOM     23  C   UNL     1      -2.431  -8.505   5.824  0.00  0.00    +0.054 A 
ATOM     24  C   UNL     1      -2.312  -7.584   6.877  0.00  0.00    +0.042 A 
ATOM     25  C   UNL     1      -1.695  -6.489   6.380  0.00  0.00    +0.196 A 
ATOM     26  O   UNL     1      -1.428  -6.696   5.084  0.00  0.00    -0.458 OA
ENDBRANCH  20  22
ENDBRANCH   7  12
BRANCH   1  30
ATOM     27  C   UNL     1       2.364   0.690   1.517  0.00  0.00    +0.000 A 
ATOM     28  C   UNL     1       3.669   1.139   1.452  0.00  0.00    +0.000 A 
ATOM     29  C   UNL     1       4.693   0.251   1.180  0.00  0.00    +0.005 A 
ATOM     30  C   UNL     1       4.412  -1.086   0.974  0.00  0.00    -0.027 A 
ATOM     31  C   UNL     1       3.106  -1.536   1.040  0.00  0.00    +0.005 A 
ATOM     32  C   UNL     1       2.082  -0.648   1.310  0.00  0.00    +0.000 A 
ENDBRANCH   1  30
BRANCH   3  33
ATOM     33  C   UNL     1       5.068  -4.500   3.616  0.00  0.00    +0.412 C 
ATOM     34  F   UNL     1       5.691  -3.783   4.644  0.00  0.00    -0.168 F 
ATOM     35  F   UNL     1       3.935  -5.148   4.120  0.00  0.00    -0.168 F 
ATOM     36  F   UNL     1       5.959  -5.449   3.104  0.00  0.00    -0.168 F 
ENDBRANCH   3  33
TORSDOF 4
