REMARK  Name = ZINC04016782
REMARK  9 active torsions:
REMARK  status: ('A' for Active; 'I' for Inactive)
REMARK    1  A    between atoms: C_4  and  C_7
REMARK    2  A    between atoms: C_8  and  C_9
REMARK    3  A    between atoms: C_10  and  C_11
REMARK    4  A    between atoms: C_10  and  N_30
REMARK    5  A    between atoms: N_13  and  N_14
REMARK    6  A    between atoms: C_15  and  C_16
REMARK    7  A    between atoms: N_20  and  C_21
REMARK    8  A    between atoms: C_24  and  N_27
REMARK    9  A    between atoms: C_31  and  C_33
REMARK                            x       y       z     vdW  Elec       q    Type
REMARK                         _______ _______ _______ _____ _____    ______ ____
ROOT
ATOM      1  C   UNL     1      -2.202  -2.849  -0.171  0.00  0.00    +0.028 C 
ATOM      2  C   UNL     1      -1.054  -2.071  -0.056  0.00  0.00    +0.098 C 
ENDROOT
BRANCH   2   3
ATOM      3  C   UNL     1       0.265  -2.708  -0.052  0.00  0.00    +0.277 C 
ATOM      4  O   UNL     1       1.267  -2.034   0.103  0.00  0.00    -0.267 OA
ATOM      5  N   UNL     1       0.370  -4.041  -0.222  0.00  0.00    -0.202 N 
ATOM      6  H   UNL     1      -0.429  -4.588  -0.277  0.00  0.00    +0.178 HD
BRANCH   5   7
ATOM      7  N   UNL     1       1.534  -4.591  -0.311  0.00  0.00    -0.186 NA
ATOM      8  C   UNL     1       1.638  -5.907  -0.479  0.00  0.00    +0.156 C 
BRANCH   8   9
ATOM      9  C   UNL     1       2.891  -6.498  -0.575  0.00  0.00    +0.066 A 
ATOM     10  C   UNL     1       4.144  -5.832  -0.519  0.00  0.00    +0.029 A 
ATOM     11  C   UNL     1       5.113  -6.787  -0.651  0.00  0.00    +0.020 A 
ATOM     12  C   UNL     1       4.489  -8.022  -0.795  0.00  0.00    +0.092 A 
ATOM     13  N   UNL     1       3.152  -7.849  -0.750  0.00  0.00    -0.315 N 
BRANCH  13  14
ATOM     14  C   UNL     1       2.191  -8.861  -0.859  0.00  0.00    +0.047 A 
ATOM     15  C   UNL     1       1.172  -8.958   0.079  0.00  0.00    +0.028 A 
ATOM     16  C   UNL     1       0.223  -9.955  -0.034  0.00  0.00    +0.035 A 
ATOM     17  C   UNL     1       0.293 -10.863  -1.075  0.00  0.00    +0.126 A 
ATOM     18  C   UNL     1       1.310 -10.772  -2.008  0.00  0.00    +0.035 A 
ATOM     19  C   UNL     1       2.259  -9.774  -1.903  0.00  0.00    +0.028 A 
BRANCH  17  20
ATOM     20  N   UNL     1      -0.722 -11.933  -1.190  0.00  0.00    +0.056 N 
ATOM     21  O   UNL     1      -0.657 -12.799  -2.181  0.00  0.00    -0.126 OA
ATOM     22  O   UNL     1      -1.691 -12.021  -0.303  0.00  0.00    -0.126 OA
ENDBRANCH  17  20
ENDBRANCH  13  14
ENDBRANCH   8   9
ENDBRANCH   5   7
ENDBRANCH   2   3
BRANCH   2  23
ATOM     23  N   UNL     1      -1.158  -0.697   0.055  0.00  0.00    -0.277 N 
ATOM     24  C   UNL     1      -0.632  -0.066   1.123  0.00  0.00    +0.248 C 
ATOM     25  O   UNL     1      -0.143  -0.710   2.031  0.00  0.00    -0.270 OA
ATOM     26  H   UNL     1      -1.610  -0.188  -0.635  0.00  0.00    +0.155 HD
BRANCH  24  27
ATOM     27  C   UNL     1      -0.649   1.410   1.192  0.00  0.00    +0.037 A 
ATOM     28  C   UNL     1      -1.205   2.154   0.149  0.00  0.00    +0.013 A 
ATOM     29  C   UNL     1      -1.223   3.531   0.221  0.00  0.00    +0.001 A 
ATOM     30  C   UNL     1      -0.682   4.177   1.319  0.00  0.00    +0.000 A 
ATOM     31  C   UNL     1      -0.125   3.446   2.354  0.00  0.00    +0.001 A 
ATOM     32  C   UNL     1      -0.105   2.068   2.297  0.00  0.00    +0.013 A 
ENDBRANCH  24  27
ENDBRANCH   2  23
BRANCH   1  34
ATOM     33  C   UNL     1      -4.598  -3.013  -0.287  0.00  0.00    +0.008 C 
ATOM     34  C   UNL     1      -3.459  -2.242  -0.174  0.00  0.00    +0.003 C 
BRANCH  33  38
ATOM     35  C   UNL     1      -8.411  -1.171  -0.295  0.00  0.00    +0.000 A 
ATOM     36  C   UNL     1      -8.312  -2.548  -0.408  0.00  0.00    +0.001 A 
ATOM     37  C   UNL     1      -7.077  -3.157  -0.406  0.00  0.00    +0.008 A 
ATOM     38  C   UNL     1      -5.915  -2.376  -0.291  0.00  0.00    -0.025 A 
ATOM     39  C   UNL     1      -6.026  -0.982  -0.172  0.00  0.00    +0.008 A 
ATOM     40  C   UNL     1      -7.271  -0.392  -0.181  0.00  0.00    +0.001 A 
ENDBRANCH  33  38
ENDBRANCH   1  34
TORSDOF 9
