REMARK  Name = ZINC01507244
REMARK  10 active torsions:
REMARK  status: ('A' for Active; 'I' for Inactive)
REMARK    1  A    between atoms: C_1  and  C_2
REMARK    2  A    between atoms: C_2  and  C_3
REMARK    3  A    between atoms: C_2  and  C_4
REMARK    4  A    between atoms: C_4  and  N_44
REMARK    5  A    between atoms: C_5  and  C_6
REMARK    6  A    between atoms: C_5  and  N_44
REMARK    7  A    between atoms: C_6  and  C_7
REMARK    8  A    between atoms: C_6  and  C_8
REMARK    9  A    between atoms: C_9  and  N_10
REMARK   10  A    between atoms: C_9  and  N_44
REMARK                            x       y       z     vdW  Elec       q    Type
REMARK                         _______ _______ _______ _____ _____    ______ ____
ROOT
ATOM      1  C   UNL     1      -0.818   7.973   0.213  0.00  0.00    +0.054 C 
ENDROOT
BRANCH   1   2
ATOM      2  N   UNL     1       0.613   7.678   0.098  0.00  0.00    -0.291 N 
ATOM      3  C   UNL     1       1.182   6.419  -0.091  0.00  0.00    +0.088 A 
ATOM      4  C   UNL     1       0.652   5.144  -0.222  0.00  0.00    +0.031 A 
ATOM      5  C   UNL     1       1.495   4.066  -0.408  0.00  0.00    +0.017 A 
ATOM      6  C   UNL     1       2.866   4.253  -0.455  0.00  0.00    +0.021 A 
ATOM      7  C   UNL     1       3.401   5.521  -0.325  0.00  0.00    +0.063 A 
ATOM      8  C   UNL     1       2.563   6.609  -0.143  0.00  0.00    +0.158 A 
ATOM      9  O   UNL     1       2.792   7.937   0.011  0.00  0.00    -0.407 OA
ATOM     10  C   UNL     1       1.619   8.573   0.155  0.00  0.00    +0.420 A 
ATOM     11  O   UNL     1       1.485   9.771   0.314  0.00  0.00    -0.223 OA
ATOM     12 BR   UNL     1       4.011   2.769  -0.704  0.00  0.00    -0.050 Br
ENDBRANCH   1   2
BRANCH   1  13
ATOM     13  N   UNL     1      -1.368   8.221  -1.136  0.00  0.00    +0.392 N 
ATOM     14  H   UNL     1      -1.275   7.365  -1.696  0.00  0.00    -0.079 HD
BRANCH  13  15
ATOM     15  C   UNL     1      -2.799   8.579  -1.040  0.00  0.00    -0.073 C 
BRANCH  15  17
ATOM     16  C   UNL     1      -3.334   6.625   0.421  0.00  0.00    +0.005 C 
ATOM     17  C   UNL     1      -3.618   7.292  -0.926  0.00  0.00    -0.034 C 
ATOM     18  C   UNL     1      -5.108   7.625  -1.026  0.00  0.00    +0.005 C 
ENDBRANCH  15  17
ENDBRANCH  13  15
BRANCH  13  19
ATOM     19  C   UNL     1      -0.617   9.310  -1.796  0.00  0.00    -0.073 C 
BRANCH  19  20
ATOM     20  C   UNL     1      -0.983   9.329  -3.281  0.00  0.00    -0.034 C 
ATOM     21  C   UNL     1      -0.293  10.515  -3.960  0.00  0.00    +0.005 C 
ATOM     22  C   UNL     1      -0.521   8.027  -3.937  0.00  0.00    +0.005 C 
ENDBRANCH  19  20
ENDBRANCH  13  19
ENDBRANCH   1  13
TORSDOF 6
