REMARK  Name = ZINC34774613
REMARK  10 active torsions:
REMARK  status: ('A' for Active; 'I' for Inactive)
REMARK    1  A    between atoms: C_1  and  C_2
REMARK    2  A    between atoms: C_2  and  C_3
REMARK    3  A    between atoms: C_3  and  C_4
REMARK    4  A    between atoms: C_4  and  N_5
REMARK    5  A    between atoms: C_13  and  C_30
REMARK    6  A    between atoms: C_18  and  S_20
REMARK    7  A    between atoms: S_20  and  C_21
REMARK    8  A    between atoms: C_21  and  C_22
REMARK    9  A    between atoms: C_25  and  C_29
REMARK   10  A    between atoms: C_27  and  C_28
REMARK                            x       y       z     vdW  Elec       q    Type
REMARK                         _______ _______ _______ _____ _____    ______ ____
ROOT
ATOM      1  N   UNL     1      -4.841  -1.789   1.103  0.00  0.00    +0.382 N 
ATOM      2  C   UNL     1      -5.974  -2.610   1.547  0.00  0.00    -0.060 C 
ATOM      3  C   UNL     1      -5.758  -4.061   1.102  0.00  0.00    +0.088 C 
ATOM      4  N   UNL     1      -5.531  -4.074  -0.351  0.00  0.00    -0.318 N 
ATOM      5  C   UNL     1      -4.522  -3.157  -0.904  0.00  0.00    +0.088 C 
ATOM      6  C   UNL     1      -4.796  -1.750  -0.364  0.00  0.00    -0.060 C 
ATOM      7  C   UNL     1      -6.248  -4.923  -1.175  0.00  0.00    +0.134 A 
ATOM      8  C   UNL     1      -5.956  -6.314  -1.199  0.00  0.00    +0.055 A 
ATOM      9  C   UNL     1      -4.954  -7.066  -0.450  0.00  0.00    +0.002 A 
ATOM     10  C   UNL     1      -4.864  -8.403  -0.644  0.00  0.00    +0.056 A 
ATOM     11  S   UNL     1      -6.129  -8.734  -1.855  0.00  0.00    -0.076 S 
ATOM     12  C   UNL     1      -6.747  -7.086  -2.074  0.00  0.00    +0.115 A 
ATOM     13  N   UNL     1      -7.692  -6.538  -2.814  0.00  0.00    -0.214 NA
ATOM     14  C   UNL     1      -7.920  -5.233  -2.750  0.00  0.00    +0.191 A 
ATOM     15  N   UNL     1      -7.214  -4.450  -1.943  0.00  0.00    -0.206 NA
ATOM     16  H   UNL     1      -3.982  -2.187   1.454  0.00  0.00    -0.082 HD
ENDROOT
BRANCH   9  17
ATOM     17  C   UNL     1      -4.053  -6.380   0.506  0.00  0.00    -0.017 A 
ATOM     18  C   UNL     1      -3.198  -5.372   0.061  0.00  0.00    +0.008 A 
ATOM     19  C   UNL     1      -2.362  -4.736   0.956  0.00  0.00    +0.001 A 
ATOM     20  C   UNL     1      -2.370  -5.097   2.292  0.00  0.00    +0.000 A 
ATOM     21  C   UNL     1      -3.216  -6.096   2.739  0.00  0.00    +0.001 A 
ATOM     22  C   UNL     1      -4.061  -6.735   1.855  0.00  0.00    +0.008 A 
ENDBRANCH   9  17
BRANCH   1  23
ATOM     23  C   UNL     1      -4.994  -0.424   1.623  0.00  0.00    -0.079 C 
BRANCH  23  24
ATOM     24  C   UNL     1      -4.915  -0.448   3.151  0.00  0.00    -0.019 C 
BRANCH  24  26
ATOM     25  C   UNL     1      -4.996   0.949   5.221  0.00  0.00    +0.004 C 
ATOM     26  C   UNL     1      -5.075   0.974   3.693  0.00  0.00    -0.005 C 
ENDBRANCH  24  26
ENDBRANCH  23  24
ENDBRANCH   1  23
BRANCH  14  27
ATOM     27  S   UNL     1      -9.188  -4.527  -3.750  0.00  0.00    -0.081 S 
BRANCH  27  28
ATOM     28  C   UNL     1      -9.869  -5.942  -4.659  0.00  0.00    +0.112 C 
BRANCH  28  29
ATOM     29  C   UNL     1     -10.978  -5.471  -5.564  0.00  0.00    -0.034 A 
ATOM     30  C   UNL     1     -12.279  -5.431  -5.100  0.00  0.00    +0.005 A 
ATOM     31  C   UNL     1     -13.296  -4.999  -5.930  0.00  0.00    +0.003 A 
ATOM     32  C   UNL     1     -13.012  -4.606  -7.224  0.00  0.00    -0.050 A 
ATOM     33  C   UNL     1     -11.711  -4.645  -7.688  0.00  0.00    +0.007 A 
ATOM     34  C   UNL     1     -10.693  -5.073  -6.857  0.00  0.00    -0.046 A 
ATOM     35  C   UNL     1      -9.273  -5.110  -7.361  0.00  0.00    +0.044 C 
ATOM     36  C   UNL     1     -14.121  -4.136  -8.130  0.00  0.00    +0.044 C 
ENDBRANCH  28  29
ENDBRANCH  27  28
ENDBRANCH  14  27
TORSDOF 7
