REMARK  Name = ZINC03345400
REMARK  10 active torsions:
REMARK  status: ('A' for Active; 'I' for Inactive)
REMARK    1  A    between atoms: C_1  and  C_2
REMARK    2  A    between atoms: C_2  and  C_3
REMARK    3  A    between atoms: C_3  and  N_49
REMARK    4  A    between atoms: C_4  and  C_5
REMARK    5  A    between atoms: C_4  and  N_49
REMARK    6  A    between atoms: N_7  and  C_8
REMARK    7  A    between atoms: C_17  and  C_18
REMARK    8  A    between atoms: C_17  and  N_49
REMARK    9  A    between atoms: N_20  and  C_21
REMARK   10  A    between atoms: C_23  and  N_28
REMARK                            x       y       z     vdW  Elec       q    Type
REMARK                         _______ _______ _______ _____ _____    ______ ____
ROOT
ATOM      1  N   UNL     1       3.608   5.968  -0.455  0.00  0.00    +0.391 N 
ATOM      2  H   UNL     1       4.048   5.598  -1.306  0.00  0.00    -0.080 HD
ENDROOT
BRANCH   1   3
ATOM      3  C   UNL     1       4.304   5.415   0.725  0.00  0.00    -0.078 C 
BRANCH   3   5
ATOM      4  C   UNL     1       5.244   3.323   1.717  0.00  0.00    +0.002 C 
ATOM      5  C   UNL     1       4.604   3.937   0.470  0.00  0.00    -0.022 C 
ENDBRANCH   3   5
ENDBRANCH   1   3
BRANCH   1   6
ATOM      6  C   UNL     1       2.186   5.566  -0.437  0.00  0.00    +0.020 C 
BRANCH   6   7
ATOM      7  C   UNL     1       1.631   5.694  -1.832  0.00  0.00    +0.201 C 
ATOM      8  O   UNL     1       2.366   5.976  -2.754  0.00  0.00    -0.278 OA
ATOM      9  N   UNL     1       0.316   5.495  -2.055  0.00  0.00    -0.285 N 
ATOM     10  H   UNL     1      -0.282   5.324  -1.311  0.00  0.00    +0.155 HD
BRANCH   9  11
ATOM     11  C   UNL     1      -0.186   5.535  -3.363  0.00  0.00    +0.072 A 
ATOM     12  C   UNL     1       0.413   6.350  -4.314  0.00  0.00    +0.029 A 
ATOM     13  C   UNL     1      -0.083   6.389  -5.602  0.00  0.00    +0.043 A 
ATOM     14  C   UNL     1      -1.178   5.617  -5.949  0.00  0.00    +0.161 A 
ATOM     15  C   UNL     1      -1.781   4.801  -5.003  0.00  0.00    +0.195 A 
ATOM     16  C   UNL     1      -1.286   4.759  -3.710  0.00  0.00    +0.182 A 
ATOM     17  F   UNL     1      -1.875   3.970  -2.785  0.00  0.00    -0.200 F 
ATOM     18  F   UNL     1      -2.850   4.049  -5.342  0.00  0.00    -0.199 F 
ATOM     19  F   UNL     1      -1.661   5.658  -7.210  0.00  0.00    -0.202 F 
ENDBRANCH   9  11
ENDBRANCH   6   7
ENDBRANCH   1   6
BRANCH   1  20
ATOM     20  C   UNL     1       3.716   7.442  -0.461  0.00  0.00    +0.020 C 
BRANCH  20  21
ATOM     21  C   UNL     1       5.155   7.823  -0.701  0.00  0.00    +0.201 C 
ATOM     22  O   UNL     1       5.996   6.960  -0.835  0.00  0.00    -0.278 OA
ATOM     23  N   UNL     1       5.505   9.122  -0.768  0.00  0.00    -0.286 N 
ATOM     24  H   UNL     1       4.847   9.812  -0.592  0.00  0.00    +0.155 HD
BRANCH  23  25
ATOM     25  C   UNL     1       6.821   9.476  -1.091  0.00  0.00    +0.054 A 
ATOM     26  C   UNL     1       7.613   8.610  -1.832  0.00  0.00    +0.057 A 
ATOM     27  C   UNL     1       8.908   8.964  -2.153  0.00  0.00    +0.128 A 
ATOM     28  C   UNL     1       9.421  10.176  -1.728  0.00  0.00    +0.034 A 
ATOM     29  C   UNL     1       8.638  11.040  -0.985  0.00  0.00    +0.024 A 
ATOM     30  C   UNL     1       7.339  10.694  -0.665  0.00  0.00    +0.062 A 
ATOM     31 CL   UNL     1       6.355  11.778   0.268  0.00  0.00    -0.082 Cl
BRANCH  27  32
ATOM     32  N   UNL     1       9.751   8.043  -2.948  0.00  0.00    +0.056 N 
ATOM     33  O   UNL     1      10.896   8.353  -3.228  0.00  0.00    -0.126 OA
ATOM     34  O   UNL     1       9.300   6.976  -3.323  0.00  0.00    -0.126 OA
ENDBRANCH  27  32
ENDBRANCH  23  25
ENDBRANCH  20  21
ENDBRANCH   1  20
TORSDOF 9
