REMARK  Name = ZINC18008643
REMARK  5 active torsions:
REMARK  status: ('A' for Active; 'I' for Inactive)
REMARK    1  A    between atoms: C_1  and  C_2
REMARK    2  A    between atoms: C_7  and  C_8
REMARK    3  A    between atoms: N_16  and  C_19
REMARK    4  A    between atoms: C_24  and  C_25
REMARK    5  A    between atoms: N_30  and  C_31
REMARK                            x       y       z     vdW  Elec       q    Type
REMARK                         _______ _______ _______ _____ _____    ______ ____
ROOT
ATOM      1  C   UNL     1       0.035   0.028   2.493  0.00  0.00    +0.157 C 
ATOM      2  C   UNL     1      -1.397   0.463   2.881  0.00  0.00    +0.145 C 
ATOM      3  C   UNL     1      -1.859  -0.647   3.864  0.00  0.00    +0.249 C 
ATOM      4  C   UNL     1      -3.011  -1.300   3.132  0.00  0.00    +0.259 C 
ATOM      5  O   UNL     1      -3.685  -2.212   3.560  0.00  0.00    -0.272 OA
ATOM      6  N   UNL     1      -3.171  -0.713   1.941  0.00  0.00    -0.207 N 
ATOM      7  C   UNL     1      -2.309   0.302   1.687  0.00  0.00    +0.235 C 
ATOM      8  O   UNL     1      -2.267   0.971   0.677  0.00  0.00    -0.274 OA
ATOM      9  O   UNL     1      -0.758  -1.571   3.948  0.00  0.00    -0.257 OA
ATOM     10  N   UNL     1       0.430  -0.852   3.620  0.00  0.00    -0.244 N 
ENDROOT
BRANCH   1  17
ATOM     11  C   UNL     1       0.505   1.409  -0.000  0.00  0.00    +0.044 C 
ATOM     12  C   UNL     1       0.253  -0.076   0.002  0.00  0.00    -0.045 A 
ATOM     13  C   UNL     1       0.253  -0.780  -1.188  0.00  0.00    +0.004 A 
ATOM     14  C   UNL     1       0.021  -2.142  -1.186  0.00  0.00    +0.000 A 
ATOM     15  C   UNL     1      -0.209  -2.802   0.007  0.00  0.00    +0.000 A 
ATOM     16  C   UNL     1      -0.207  -2.099   1.197  0.00  0.00    +0.006 A 
ATOM     17  C   UNL     1       0.028  -0.737   1.195  0.00  0.00    -0.019 A 
ENDBRANCH   1  17
BRANCH   6  18
ATOM     18  C   UNL     1      -4.157  -1.110   1.026  0.00  0.00    +0.056 A 
ATOM     19  C   UNL     1      -3.904  -2.145   0.136  0.00  0.00    +0.024 A 
ATOM     20  C   UNL     1      -4.877  -2.534  -0.763  0.00  0.00    +0.002 A 
ATOM     21  C   UNL     1      -6.102  -1.893  -0.779  0.00  0.00    +0.001 A 
ATOM     22  C   UNL     1      -6.357  -0.862   0.106  0.00  0.00    +0.014 A 
ATOM     23  C   UNL     1      -5.390  -0.472   1.012  0.00  0.00    +0.077 A 
BRANCH  23  24
ATOM     24  C   UNL     1      -5.671   0.648   1.980  0.00  0.00    +0.419 C 
ATOM     25  F   UNL     1      -7.003   1.055   1.849  0.00  0.00    -0.166 F 
ATOM     26  F   UNL     1      -5.446   0.202   3.287  0.00  0.00    -0.166 F 
ATOM     27  F   UNL     1      -4.824   1.727   1.704  0.00  0.00    -0.166 F 
ENDBRANCH  23  24
ENDBRANCH   6  18
BRANCH  10  28
ATOM     28  C   UNL     1       1.682  -0.946   4.233  0.00  0.00    +0.065 A 
ATOM     29  C   UNL     1       2.732  -0.149   3.796  0.00  0.00    +0.028 A 
ATOM     30  C   UNL     1       3.969  -0.244   4.405  0.00  0.00    +0.002 A 
ATOM     31  C   UNL     1       4.161  -1.131   5.448  0.00  0.00    +0.000 A 
ATOM     32  C   UNL     1       3.117  -1.925   5.886  0.00  0.00    +0.002 A 
ATOM     33  C   UNL     1       1.877  -1.831   5.285  0.00  0.00    +0.028 A 
ENDBRANCH  10  28
TORSDOF 4
