REMARK  Name = ZINC21124532
REMARK  8 active torsions:
REMARK  status: ('A' for Active; 'I' for Inactive)
REMARK    1  A    between atoms: C_1  and  C_2
REMARK    2  A    between atoms: C_2  and  C_4
REMARK    3  A    between atoms: C_2  and  O_17
REMARK    4  A    between atoms: N_6  and  C_7
REMARK    5  A    between atoms: C_11  and  N_13
REMARK    6  A    between atoms: O_17  and  C_18
REMARK    7  A    between atoms: C_18  and  C_20
REMARK    8  A    between atoms: C_21  and  C_22
REMARK                            x       y       z     vdW  Elec       q    Type
REMARK                         _______ _______ _______ _____ _____    ______ ____
ROOT
ATOM      1  C   UNL     1       7.731   0.743   1.383  0.00  0.00    +0.062 C 
ATOM      2  C   UNL     1       7.281   1.010  -0.054  0.00  0.00    +0.259 C 
ENDROOT
BRANCH   2   3
ATOM      3  C   UNL     1       8.349   1.788  -0.779  0.00  0.00    +0.258 C 
ATOM      4  O   UNL     1       8.123   2.918  -1.159  0.00  0.00    -0.271 OA
ATOM      5  N   UNL     1       9.555   1.230  -1.003  0.00  0.00    -0.282 N 
ATOM      6  H   UNL     1       9.786   0.236  -0.593  0.00  0.00    +0.155 HD
BRANCH   5   7
ATOM      7  C   UNL     1      10.514   1.915  -1.760  0.00  0.00    +0.036 A 
ATOM      8  C   UNL     1      11.377   1.212  -2.589  0.00  0.00    +0.026 A 
ATOM      9  C   UNL     1      12.318   1.890  -3.339  0.00  0.00    +0.042 A 
ATOM     10  C   UNL     1      12.409   3.269  -3.255  0.00  0.00    +0.154 A 
ATOM     11  C   UNL     1      11.553   3.972  -2.424  0.00  0.00    +0.163 A 
ATOM     12  C   UNL     1      10.606   3.298  -1.677  0.00  0.00    +0.059 A 
ATOM     13  F   UNL     1      13.334   3.930  -3.984  0.00  0.00    -0.203 F 
BRANCH  11  14
ATOM     14  N   UNL     1      11.651   5.446  -2.336  0.00  0.00    +0.059 N 
ATOM     15  O   UNL     1      10.898   6.064  -1.606  0.00  0.00    -0.126 OA
ATOM     16  O   UNL     1      12.486   6.040  -2.995  0.00  0.00    -0.126 OA
ENDBRANCH  11  14
ENDBRANCH   5   7
ENDBRANCH   2   3
BRANCH   2  17
ATOM     17  O   UNL     1       6.067   1.764  -0.042  0.00  0.00    -0.449 OA
BRANCH  17  18
ATOM     18  C   UNL     1       4.913   1.066  -0.028  0.00  0.00    +0.333 C 
ATOM     19  O   UNL     1       4.937  -0.150  -0.025  0.00  0.00    -0.246 OA
BRANCH  18  20
ATOM     20  C   UNL     1       3.632   1.772  -0.014  0.00  0.00    +0.092 C 
ATOM     21  C   UNL     1       2.477   1.074   0.000  0.00  0.00    +0.015 C 
BRANCH  21  22
ATOM     22  C   UNL     1       1.188   1.784   0.013  0.00  0.00    -0.024 A 
ATOM     23  C   UNL     1       1.156   3.183   0.012  0.00  0.00    +0.008 A 
ATOM     24  C   UNL     1      -0.055   3.841   0.025  0.00  0.00    +0.002 A 
ATOM     25  C   UNL     1      -1.238   3.123   0.040  0.00  0.00    +0.015 A 
ATOM     26  C   UNL     1      -1.215   1.738   0.036  0.00  0.00    +0.018 A 
ATOM     27  C   UNL     1      -0.010   1.065   0.029  0.00  0.00    +0.023 A 
ATOM     28 BR   UNL     1      -2.838   0.768   0.048  0.00  0.00    -0.050 Br
ENDBRANCH  21  22
ENDBRANCH  18  20
ENDBRANCH  17  18
ENDBRANCH   2  17
TORSDOF 7
