REMARK  Name = ZINC15952607
REMARK  5 active torsions:
REMARK  status: ('A' for Active; 'I' for Inactive)
REMARK    1  A    between atoms: C_1  and  C_2
REMARK    2  A    between atoms: C_5  and  O_36
REMARK    3  A    between atoms: C_18  and  C_35
REMARK    4  A    between atoms: C_23  and  C_25
REMARK    5  A    between atoms: C_27  and  C_31
REMARK                            x       y       z     vdW  Elec       q    Type
REMARK                         _______ _______ _______ _____ _____    ______ ____
ROOT
ATOM      1  C   UNL     1      -2.469  -3.635  -1.546  0.00  0.00    +0.012 C 
ATOM      2  C   UNL     1      -2.524  -2.689  -0.347  0.00  0.00    -0.026 C 
ATOM      3  C   UNL     1      -2.825  -3.515   0.908  0.00  0.00    +0.010 C 
ATOM      4  C   UNL     1      -4.157  -4.247   0.746  0.00  0.00    +0.032 C 
ATOM      5  C   UNL     1      -5.297  -3.276   0.455  0.00  0.00    +0.115 C 
ATOM      6  C   UNL     1      -4.982  -2.407  -0.767  0.00  0.00    +0.035 C 
ATOM      7  C   UNL     1      -3.663  -1.686  -0.532  0.00  0.00    -0.002 C 
ATOM      8  C   UNL     1      -3.311  -0.714  -1.647  0.00  0.00    +0.004 C 
ATOM      9  C   UNL     1      -2.222   0.225  -1.118  0.00  0.00    +0.004 C 
ATOM     10  C   UNL     1      -1.361  -0.448  -0.072  0.00  0.00    -0.004 C 
ATOM     11  C   UNL     1      -1.203  -1.956  -0.212  0.00  0.00    -0.001 C 
ATOM     12  C   UNL     1      -0.148  -2.381  -1.215  0.00  0.00    +0.005 C 
ATOM     13  C   UNL     1       1.213  -1.737  -0.867  0.00  0.00    +0.008 C 
ATOM     14  C   UNL     1       1.039  -0.238  -0.916  0.00  0.00    -0.021 C 
ATOM     15  C   UNL     1      -0.013   0.190   0.123  0.00  0.00    -0.001 C 
ATOM     16  C   UNL     1       0.077   1.719   0.051  0.00  0.00    +0.005 C 
ATOM     17  C   UNL     1       1.611   1.961  -0.040  0.00  0.00    +0.010 C 
ATOM     18  C   UNL     1       2.244   0.622  -0.504  0.00  0.00    +0.043 C 
ATOM     19  C   UNL     1       0.684   0.183  -2.345  0.00  0.00    +0.012 C 
ENDROOT
BRANCH  18  20
ATOM     20  C   UNL     1       3.027  -0.013   0.616  0.00  0.00    +0.040 A 
ATOM     21  C   UNL     1       2.757   0.091   1.938  0.00  0.00    +0.057 A 
ATOM     22  C   UNL     1       3.720  -0.647   2.633  0.00  0.00    +0.165 A 
ATOM     23  N   UNL     1       4.544  -1.169   1.761  0.00  0.00    -0.170 NA
ATOM     24  N   UNL     1       4.127  -0.783   0.480  0.00  0.00    -0.281 N 
ATOM     25  H   UNL     1       4.567  -1.034  -0.382  0.00  0.00    +0.189 HD
BRANCH  22  26
ATOM     26  C   UNL     1       3.799  -0.808   4.130  0.00  0.00    +0.436 C 
ATOM     27  F   UNL     1       4.960  -1.514   4.462  0.00  0.00    -0.164 F 
ATOM     28  F   UNL     1       3.832   0.453   4.734  0.00  0.00    -0.164 F 
ATOM     29  F   UNL     1       2.679  -1.514   4.582  0.00  0.00    -0.164 F 
ENDBRANCH  22  26
ENDBRANCH  18  20
BRANCH   5  30
ATOM     30  O   UNL     1      -6.495  -4.018   0.206  0.00  0.00    -0.392 OA
ATOM     31  H   UNL     1      -6.773  -4.575   0.946  0.00  0.00    +0.210 HD
ENDBRANCH   5  30
TORSDOF 3
