REMARK  Name = ZINC13635252
REMARK  5 active torsions:
REMARK  status: ('A' for Active; 'I' for Inactive)
REMARK    1  A    between atoms: C_1  and  C_2
REMARK    2  A    between atoms: C_4  and  C_20
REMARK    3  A    between atoms: C_5  and  C_19
REMARK    4  A    between atoms: N_6  and  C_7
REMARK    5  A    between atoms: C_10  and  C_13
REMARK                            x       y       z     vdW  Elec       q    Type
REMARK                         _______ _______ _______ _____ _____    ______ ____
ROOT
ATOM      1  C   UNL     1       1.487   4.873   0.013  0.00  0.00    +0.064 C 
ATOM      2  C   UNL     1       0.657   3.615   0.015  0.00  0.00    +0.022 A 
ATOM      3  C   UNL     1       1.143   2.362   0.004  0.00  0.00    +0.031 A 
ATOM      4  C   UNL     1      -0.018   1.462   0.010  0.00  0.00    -0.003 A 
ATOM      5  C   UNL     1      -1.132   2.278   0.019  0.00  0.00    +0.028 A 
ATOM      6  N   UNL     1      -0.708   3.567   0.027  0.00  0.00    -0.317 N 
ATOM      7  C   UNL     1      -2.567   1.817   0.023  0.00  0.00    +0.064 C 
ENDROOT
BRANCH   4   8
ATOM      8  C   UNL     1       0.002  -0.004   0.002  0.00  0.00    +0.030 C 
ATOM      9  C   UNL     1       1.188  -0.667  -0.012  0.00  0.00    +0.080 C 
ATOM     10  C   UNL     1       1.453  -2.116  -0.023  0.00  0.00    +0.258 C 
ATOM     11  O   UNL     1       0.549  -2.931  -0.018  0.00  0.00    -0.269 OA
ATOM     12  N   UNL     1       2.722  -2.489  -0.036  0.00  0.00    -0.243 N 
ATOM     13  C   UNL     1       3.721  -1.583  -0.040  0.00  0.00    +0.283 C 
ATOM     14  O   UNL     1       4.922  -1.781  -0.052  0.00  0.00    -0.262 OA
ATOM     15  S   UNL     1       2.855  -0.021  -0.032  0.00  0.00    -0.026 S 
ATOM     16  H   UNL     1       2.939  -3.434  -0.043  0.00  0.00    +0.159 HD
ENDBRANCH   4   8
BRANCH   6  17
ATOM     17  C   UNL     1      -1.549   4.687   0.041  0.00  0.00    +0.047 A 
ATOM     18  C   UNL     1      -2.367   4.927   1.138  0.00  0.00    +0.027 A 
ATOM     19  C   UNL     1      -3.191   6.032   1.156  0.00  0.00    +0.010 A 
ATOM     20  C   UNL     1      -3.212   6.903   0.067  0.00  0.00    -0.018 A 
ATOM     21  C   UNL     1      -2.395   6.656  -1.035  0.00  0.00    +0.010 A 
ATOM     22  C   UNL     1      -1.569   5.553  -1.046  0.00  0.00    +0.027 A 
BRANCH  20  23
ATOM     23  C   UNL     1      -4.103   8.089   0.082  0.00  0.00    -0.018 A 
ATOM     24  C   UNL     1      -4.120   8.964  -1.003  0.00  0.00    +0.008 A 
ATOM     25  C   UNL     1      -4.954  10.063  -0.986  0.00  0.00    +0.001 A 
ATOM     26  C   UNL     1      -5.763  10.304   0.109  0.00  0.00    +0.000 A 
ATOM     27  C   UNL     1      -5.746   9.443   1.191  0.00  0.00    +0.001 A 
ATOM     28  C   UNL     1      -4.920   8.337   1.183  0.00  0.00    +0.008 A 
ENDBRANCH  20  23
ENDBRANCH   6  17
TORSDOF 3
