REMARK  Name = ZINC46570502
REMARK  4 active torsions:
REMARK  status: ('A' for Active; 'I' for Inactive)
REMARK    1  A    between atoms: C_6  and  S_7
REMARK    2  A    between atoms: S_7  and  N_10
REMARK    3  A    between atoms: N_10  and  C_11
REMARK    4  A    between atoms: C_13  and  C_19
REMARK                            x       y       z     vdW  Elec       q    Type
REMARK                         _______ _______ _______ _____ _____    ______ ____
ROOT
ATOM      1  C   UNL     1      -1.109  -1.871  -2.436  0.00  0.00    +0.084 A 
ATOM      2  C   UNL     1      -0.440  -2.994  -1.978  0.00  0.00    +0.041 A 
ATOM      3  C   UNL     1       0.427  -3.681  -2.829  0.00  0.00    +0.056 A 
ATOM      4  C   UNL     1       0.616  -3.231  -4.138  0.00  0.00    +0.137 A 
ATOM      5  C   UNL     1      -0.055  -2.110  -4.587  0.00  0.00    +0.079 A 
ATOM      6  C   UNL     1      -0.919  -1.433  -3.744  0.00  0.00    +0.148 A 
ATOM      7  F   UNL     1      -1.577  -0.340  -4.190  0.00  0.00    -0.203 F 
ATOM      8  F   UNL     1       1.455  -3.893  -4.965  0.00  0.00    -0.205 F 
ENDROOT
BRANCH   3   9
ATOM      9  C   UNL     1       1.144  -4.880  -2.346  0.00  0.00    +0.167 A 
ATOM     10  N   UNL     1       2.433  -5.125  -2.462  0.00  0.00    -0.129 NA
ATOM     11  N   UNL     1       2.711  -6.259  -1.921  0.00  0.00    -0.134 NA
ATOM     12  C   UNL     1       1.629  -6.796  -1.432  0.00  0.00    +0.134 A 
ATOM     13  N   UNL     1       0.599  -5.945  -1.688  0.00  0.00    -0.311 N 
ATOM     14  C   UNL     1      -0.807  -6.149  -1.341  0.00  0.00    +0.125 C 
ATOM     15  C   UNL     1      -0.898  -7.034  -0.095  0.00  0.00    +0.022 C 
ATOM     16  C   UNL     1      -0.945  -8.504  -0.509  0.00  0.00    +0.002 C 
ATOM     17  C   UNL     1       0.326  -8.891  -1.257  0.00  0.00    +0.008 C 
ATOM     18  C   UNL     1       1.513  -8.109  -0.701  0.00  0.00    +0.076 C 
ENDBRANCH   3   9
BRANCH   1  19
ATOM     19  N   UNL     1      -1.979  -1.179  -1.586  0.00  0.00    -0.213 N 
ATOM     20  H   UNL     1      -2.787  -0.776  -1.942  0.00  0.00    +0.174 HD
BRANCH  19  21
ATOM     21  S   UNL     1      -1.631  -1.050   0.028  0.00  0.00    +0.072 S 
ATOM     22  O   UNL     1      -1.402  -2.370   0.501  0.00  0.00    -0.150 OA
ATOM     23  O   UNL     1      -2.622  -0.200   0.590  0.00  0.00    -0.150 OA
BRANCH  21  29
ATOM     24  C   UNL     1      -0.079   1.185   0.259  0.00  0.00    +0.029 A 
ATOM     25  C   UNL     1       1.126   1.849   0.362  0.00  0.00    +0.006 A 
ATOM     26  C   UNL     1       2.322   1.143   0.372  0.00  0.00    -0.044 A 
ATOM     27  C   UNL     1       2.304  -0.230   0.282  0.00  0.00    -0.042 A 
ATOM     28  C   UNL     1       1.090  -0.896   0.174  0.00  0.00    +0.032 A 
ATOM     29  C   UNL     1      -0.097  -0.193   0.163  0.00  0.00    +0.109 A 
ATOM     30  C   UNL     1       3.560  -1.061   0.302  0.00  0.00    +0.035 C 
ATOM     31  C   UNL     1       4.780  -0.197  -0.009  0.00  0.00    +0.005 C 
ATOM     32  C   UNL     1       4.754   1.028   0.912  0.00  0.00    +0.005 C 
ATOM     33  C   UNL     1       3.601   1.932   0.479  0.00  0.00    +0.035 C 
ENDBRANCH  21  29
ENDBRANCH  19  21
ENDBRANCH   1  19
TORSDOF 4
