REMARK  Name = ZINC64369773
REMARK  8 active torsions:
REMARK  status: ('A' for Active; 'I' for Inactive)
REMARK    1  A    between atoms: C_1  and  C_2
REMARK    2  A    between atoms: C_2  and  C_3
REMARK    3  A    between atoms: C_3  and  C_4
REMARK    4  A    between atoms: C_6  and  C_17
REMARK    5  A    between atoms: C_9  and  N_12
REMARK    6  A    between atoms: N_19  and  C_20
REMARK    7  A    between atoms: C_20  and  C_21
REMARK    8  A    between atoms: C_21  and  C_22
REMARK                            x       y       z     vdW  Elec       q    Type
REMARK                         _______ _______ _______ _____ _____    ______ ____
ROOT
ATOM      1  C   UNL     1      -3.847  -1.444   0.124  0.00  0.00    +0.228 C 
ATOM      2  O   UNL     1      -4.322  -0.893  -0.846  0.00  0.00    -0.275 OA
ATOM      3  N   UNL     1      -4.194  -1.043   1.363  0.00  0.00    -0.314 N 
ATOM      4  H   UNL     1      -3.814  -1.484   2.140  0.00  0.00    +0.149 HD
ENDROOT
BRANCH   1   6
ATOM      5  C   UNL     1      -1.414  -2.055  -0.055  0.00  0.00    +0.078 C 
ATOM      6  C   UNL     1      -2.869  -2.576  -0.055  0.00  0.00    +0.152 C 
ATOM      7  S   UNL     1      -2.869  -3.689   1.415  0.00  0.00    -0.106 S 
ATOM      8  C   UNL     1      -1.036  -3.834   1.597  0.00  0.00    +0.216 C 
ATOM      9  N   UNL     1      -0.635  -2.484   1.108  0.00  0.00    -0.284 NA
ATOM     10  H   UNL     1       0.354  -2.452   0.913  0.00  0.00    +0.125 HD
BRANCH   8  11
ATOM     11  N   UNL     1      -0.652  -4.032   2.997  0.00  0.00    -0.329 N 
ATOM     12  C   UNL     1      -0.403  -3.042   3.900  0.00  0.00    +0.088 A 
ATOM     13  C   UNL     1      -0.080  -3.615   5.077  0.00  0.00    +0.019 A 
ATOM     14  C   UNL     1      -0.132  -5.011   4.894  0.00  0.00    +0.019 A 
ATOM     15  C   UNL     1      -0.490  -5.238   3.614  0.00  0.00    +0.088 A 
ENDBRANCH   8  11
BRANCH   5  16
ATOM     16  C   UNL     1      -1.443  -0.526  -0.088  0.00  0.00    +0.020 C 
BRANCH  16  18
ATOM     17  C   UNL     1      -0.055   1.536  -0.344  0.00  0.00    +0.004 C 
ATOM     18  C   UNL     1      -0.026   0.006  -0.311  0.00  0.00    -0.002 C 
ENDBRANCH  16  18
ENDBRANCH   5  16
ENDBRANCH   1   6
BRANCH   3  19
ATOM     19  C   UNL     1      -5.145   0.057   1.538  0.00  0.00    +0.108 C 
BRANCH  19  20
ATOM     20  C   UNL     1      -5.364   0.310   3.031  0.00  0.00    +0.052 C 
BRANCH  20  21
ATOM     21  C   UNL     1      -6.343   1.442   3.210  0.00  0.00    -0.040 C 
ATOM     22  C   UNL     1      -7.677   1.341   3.405  0.00  0.00    -0.001 A 
ATOM     23  C   UNL     1      -8.583   0.190   3.504  0.00  0.00    +0.010 A 
ATOM     24  C   UNL     1      -9.902   0.408   3.706  0.00  0.00    +0.001 A 
ATOM     25  C   UNL     1     -10.425   1.704   3.823  0.00  0.00    +0.002 A 
ATOM     26  C   UNL     1      -9.656   2.810   3.743  0.00  0.00    +0.026 A 
ATOM     27  C   UNL     1      -8.254   2.698   3.533  0.00  0.00    +0.043 A 
ATOM     28  N   UNL     1      -7.313   3.603   3.420  0.00  0.00    -0.380 N 
ATOM     29  C   UNL     1      -6.030   2.922   3.215  0.00  0.00    +0.144 C 
ATOM     30  H   UNL     1      -7.442   4.564   3.469  0.00  0.00    +0.160 HD
ENDBRANCH  20  21
ENDBRANCH  19  20
ENDBRANCH   3  19
TORSDOF 7
