REMARK  Name = ZINC63170873
REMARK  7 active torsions:
REMARK  status: ('A' for Active; 'I' for Inactive)
REMARK    1  A    between atoms: C_1  and  C_2
REMARK    2  A    between atoms: C_2  and  C_4
REMARK    3  A    between atoms: C_2  and  N_18
REMARK    4  A    between atoms: C_4  and  C_5
REMARK    5  A    between atoms: C_5  and  N_6
REMARK    6  A    between atoms: N_6  and  S_7
REMARK    7  A    between atoms: S_7  and  C_10
REMARK                            x       y       z     vdW  Elec       q    Type
REMARK                         _______ _______ _______ _____ _____    ______ ____
ROOT
ATOM      1  S   UNL     1      -3.123  -4.067  -0.722  0.00  0.00    +0.059 S 
ATOM      2  O   UNL     1      -4.520  -4.322  -0.759  0.00  0.00    -0.153 OA
ATOM      3  O   UNL     1      -2.315  -4.082  -1.891  0.00  0.00    -0.153 OA
ENDROOT
BRANCH   1   4
ATOM      4  C   UNL     1      -2.426  -5.247   0.386  0.00  0.00    +0.120 A 
ATOM      5  C   UNL     1      -1.326  -5.990   0.002  0.00  0.00    +0.045 A 
ATOM      6  C   UNL     1      -0.778  -6.916   0.872  0.00  0.00    +0.020 A 
ATOM      7  C   UNL     1      -1.332  -7.097   2.127  0.00  0.00    +0.016 A 
ATOM      8  C   UNL     1      -2.431  -6.354   2.511  0.00  0.00    +0.018 A 
ATOM      9  C   UNL     1      -2.976  -5.424   1.643  0.00  0.00    +0.044 A 
ATOM     10 BR   UNL     1      -4.476  -4.401   2.172  0.00  0.00    -0.048 Br
ATOM     11 BR   UNL     1       0.726  -7.933   0.346  0.00  0.00    -0.050 Br
ENDBRANCH   1   4
BRANCH   1  12
ATOM     12  N   UNL     1      -2.931  -2.574  -0.032  0.00  0.00    -0.190 NA
ATOM     13  H   UNL     1      -3.709  -2.058   0.231  0.00  0.00    +0.148 HD
BRANCH  12  14
ATOM     14  C   UNL     1      -1.587  -2.033   0.180  0.00  0.00    +0.104 C 
BRANCH  14  15
ATOM     15  C   UNL     1      -1.680  -0.530   0.457  0.00  0.00    +0.000 C 
BRANCH  15  17
ATOM     16  C   UNL     1      -0.357   1.556   0.831  0.00  0.00    -0.014 C 
ATOM     17  C   UNL     1      -0.276   0.035   0.678  0.00  0.00    -0.077 C 
BRANCH  17  18
ATOM     18  N   UNL     1       0.300  -0.549   1.897  0.00  0.00    +0.380 N 
ATOM     19  H   UNL     1      -0.283  -0.321   2.688  0.00  0.00    -0.090 HD
ATOM     20  H   UNL     1       0.354  -1.552   1.797  0.00  0.00    -0.090 HD
ATOM     21  H   UNL     1       1.226  -0.176   2.043  0.00  0.00    -0.090 HD
ENDBRANCH  17  18
ENDBRANCH  15  17
ENDBRANCH  14  15
ENDBRANCH  12  14
ENDBRANCH   1  12
TORSDOF 6
