REMARK  Name = ZINC08834791
REMARK  7 active torsions:
REMARK  status: ('A' for Active; 'I' for Inactive)
REMARK    1  A    between atoms: C_1  and  C_2
REMARK    2  A    between atoms: C_2  and  N_63
REMARK    3  A    between atoms: N_5  and  C_8
REMARK    4  A    between atoms: C_9  and  C_20
REMARK    5  A    between atoms: C_16  and  C_19
REMARK    6  A    between atoms: N_24  and  C_28
REMARK    7  A    between atoms: C_28  and  C_29
REMARK                            x       y       z     vdW  Elec       q    Type
REMARK                         _______ _______ _______ _____ _____    ______ ____
ROOT
ATOM      1  C   UNL     1       3.399   1.966   1.178  0.00  0.00    +0.136 A 
ATOM      2  C   UNL     1       3.633   3.353   1.024  0.00  0.00    +0.081 A 
ATOM      3  C   UNL     1       4.962   3.827   1.138  0.00  0.00    +0.267 A 
ATOM      4  O   UNL     1       5.209   5.014   1.017  0.00  0.00    -0.267 OA
ATOM      5  N   UNL     1       5.952   2.941   1.378  0.00  0.00    -0.267 N 
ATOM      6  C   UNL     1       7.236   3.388   1.485  0.00  0.00    +0.096 A 
ATOM      7  C   UNL     1       8.251   2.527   1.724  0.00  0.00    +0.019 A 
ATOM      8  C   UNL     1       7.992   1.157   1.867  0.00  0.00    +0.008 A 
ATOM      9  C   UNL     1       6.712   0.700   1.762  0.00  0.00    -0.007 A 
ATOM     10  C   UNL     1       5.668   1.610   1.513  0.00  0.00    +0.145 A 
ATOM     11  N   UNL     1       4.420   1.154   1.412  0.00  0.00    -0.213 NA
ATOM     12  C   UNL     1       6.416  -0.770   1.912  0.00  0.00    +0.047 C 
ENDROOT
BRANCH   2  13
ATOM     13  C   UNL     1       2.565   4.244   0.767  0.00  0.00    +0.037 C 
ATOM     14  C   UNL     1       1.504   4.303   1.624  0.00  0.00    +0.077 C 
ATOM     15  C   UNL     1       0.288   5.035   1.511  0.00  0.00    +0.258 C 
ATOM     16  O   UNL     1       0.070   5.743   0.543  0.00  0.00    -0.269 OA
ATOM     17  N   UNL     1      -0.599   4.922   2.484  0.00  0.00    -0.253 N 
ATOM     18  C   UNL     1      -0.355   4.143   3.561  0.00  0.00    +0.121 C 
ATOM     19  S   UNL     1      -1.346   3.858   4.927  0.00  0.00    -0.027 S 
ATOM     20  S   UNL     1       1.266   3.486   3.197  0.00  0.00    -0.061 S 
BRANCH  17  21
ATOM     21  C   UNL     1      -1.864   5.657   2.397  0.00  0.00    +0.146 C 
BRANCH  21  22
ATOM     22  C   UNL     1      -1.697   7.036   3.040  0.00  0.00    +0.136 C 
ATOM     23  C   UNL     1      -3.025   7.815   2.960  0.00  0.00    +0.035 C 
ATOM     24  C   UNL     1      -3.370   8.128   4.436  0.00  0.00    +0.031 C 
ATOM     25  C   UNL     1      -1.990   7.992   5.128  0.00  0.00    +0.160 C 
ATOM     26  O   UNL     1      -1.367   6.889   4.431  0.00  0.00    -0.375 OA
ENDBRANCH  21  22
ENDBRANCH  17  21
ENDBRANCH   2  13
BRANCH   1  29
ATOM     27  C   UNL     1       0.367   0.580  -0.383  0.00  0.00    -0.060 C 
ATOM     28  C   UNL     1       1.819   1.057  -0.300  0.00  0.00    +0.088 C 
ATOM     29  N   UNL     1       2.121   1.463   1.080  0.00  0.00    -0.318 N 
ATOM     30  C   UNL     1       1.922   0.343   2.010  0.00  0.00    +0.088 C 
ATOM     31  C   UNL     1       0.470  -0.135   1.927  0.00  0.00    -0.060 C 
ATOM     32  N   UNL     1       0.187  -0.560   0.541  0.00  0.00    +0.382 N 
ATOM     33  H   UNL     1       0.842  -1.307   0.281  0.00  0.00    -0.082 HD
BRANCH  32  35
ATOM     34  C   UNL     1      -1.290  -2.384   1.232  0.00  0.00    -0.017 C 
ATOM     35  C   UNL     1      -1.195  -1.077   0.443  0.00  0.00    -0.082 C 
ENDBRANCH  32  35
ENDBRANCH   1  29
TORSDOF 5
