REMARK  Name = ZINC33271643
REMARK  8 active torsions:
REMARK  status: ('A' for Active; 'I' for Inactive)
REMARK    1  A    between atoms: C_1  and  C_2
REMARK    2  A    between atoms: C_12  and  O_16
REMARK    3  A    between atoms: O_16  and  C_17
REMARK    4  A    between atoms: C_22  and  C_24
REMARK    5  A    between atoms: C_27  and  O_32
REMARK    6  A    between atoms: C_29  and  O_30
REMARK    7  A    between atoms: O_30  and  C_31
REMARK    8  A    between atoms: O_32  and  C_33
REMARK                            x       y       z     vdW  Elec       q    Type
REMARK                         _______ _______ _______ _____ _____    ______ ____
ROOT
ATOM      1  C   UNL     1      -2.964   1.054   3.542  0.00  0.00    +0.068 C 
ATOM      2  C   UNL     1      -3.184   1.178   2.056  0.00  0.00    +0.066 A 
ATOM      3  C   UNL     1      -2.198   1.397   1.105  0.00  0.00    +0.023 A 
ATOM      4  C   UNL     1      -2.799   1.442  -0.125  0.00  0.00    +0.135 A 
ATOM      5  N   UNL     1      -4.125   1.266   0.063  0.00  0.00    -0.193 N 
ATOM      6  N   UNL     1      -4.340   1.099   1.441  0.00  0.00    -0.168 NA
ATOM      7  C   UNL     1      -5.100   1.253  -0.928  0.00  0.00    +0.196 A 
ATOM      8  N   UNL     1      -4.959   1.403  -2.223  0.00  0.00    -0.221 NA
ATOM      9  C   UNL     1      -6.005   1.368  -3.077  0.00  0.00    +0.081 A 
ATOM     10  C   UNL     1      -5.989   1.514  -4.484  0.00  0.00    +0.032 A 
ATOM     11  C   UNL     1      -7.139   1.453  -5.206  0.00  0.00    +0.048 A 
ATOM     12  C   UNL     1      -8.373   1.245  -4.596  0.00  0.00    +0.121 A 
ATOM     13  C   UNL     1      -8.430   1.097  -3.218  0.00  0.00    +0.063 A 
ATOM     14  C   UNL     1      -7.271   1.158  -2.485  0.00  0.00    +0.044 A 
ATOM     15  S   UNL     1      -6.864   1.020  -0.761  0.00  0.00    -0.048 S 
ATOM     16  N   UNL     1      -2.069   1.637  -1.296  0.00  0.00    -0.270 N 
ATOM     17  C   UNL     1      -0.723   1.575  -1.223  0.00  0.00    +0.219 C 
ATOM     18  O   UNL     1      -0.065   1.926  -2.180  0.00  0.00    -0.275 OA
ATOM     19  C   UNL     1      -0.013   1.086   0.008  0.00  0.00    +0.109 C 
ATOM     20  C   UNL     1      -0.712   1.571   1.282  0.00  0.00    +0.066 C 
ATOM     21  H   UNL     1      -2.592   1.835  -2.243  0.00  0.00    +0.156 HD
ENDROOT
BRANCH  20  22
ATOM     22  C   UNL     1      -0.244   0.757   2.460  0.00  0.00    +0.003 A 
ATOM     23  C   UNL     1      -0.440  -0.611   2.475  0.00  0.00    +0.011 A 
ATOM     24  C   UNL     1      -0.011  -1.360   3.554  0.00  0.00    +0.046 A 
ATOM     25  C   UNL     1       0.617  -0.741   4.626  0.00  0.00    +0.124 A 
ATOM     26  C   UNL     1       0.814   0.631   4.612  0.00  0.00    +0.091 A 
ATOM     27  C   UNL     1       0.389   1.380   3.526  0.00  0.00    +0.127 A 
BRANCH  27  28
ATOM     28  O   UNL     1       0.586   2.725   3.507  0.00  0.00    -0.495 OA
ATOM     29  C   UNL     1       1.244   3.299   4.638  0.00  0.00    +0.277 C 
ENDBRANCH  27  28
BRANCH  25  30
ATOM     30  O   UNL     1       1.038  -1.478   5.686  0.00  0.00    -0.495 OA
ATOM     31  C   UNL     1       0.801  -2.886   5.632  0.00  0.00    +0.277 C 
ENDBRANCH  25  30
ENDBRANCH  20  22
BRANCH  12  32
ATOM     32  O   UNL     1      -9.508   1.187  -5.343  0.00  0.00    -0.495 OA
ATOM     33  C   UNL     1      -9.365   1.349  -6.755  0.00  0.00    +0.277 C 
ENDBRANCH  12  32
TORSDOF 4
