REMARK  Name = ZINC12281169
REMARK  6 active torsions:
REMARK  status: ('A' for Active; 'I' for Inactive)
REMARK    1  A    between atoms: C_7  and  C_11
REMARK    2  A    between atoms: C_11  and  C_12
REMARK    3  A    between atoms: C_12  and  N_13
REMARK    4  A    between atoms: C_24  and  N_55
REMARK    5  A    between atoms: C_28  and  C_29
REMARK    6  A    between atoms: C_28  and  N_55
REMARK                            x       y       z     vdW  Elec       q    Type
REMARK                         _______ _______ _______ _____ _____    ______ ____
ROOT
ATOM      1  N   UNL     1       0.769  -6.346   1.486  0.00  0.00    -0.298 N 
ATOM      2  C   UNL     1      -0.495  -6.730   1.786  0.00  0.00    +0.203 A 
ATOM      3  N   UNL     1      -1.512  -5.896   1.806  0.00  0.00    -0.230 NA
ATOM      4  C   UNL     1      -1.263  -4.623   1.514  0.00  0.00    +0.116 A 
ATOM      5  C   UNL     1       0.018  -4.126   1.188  0.00  0.00    +0.076 A 
ATOM      6  C   UNL     1       1.100  -5.069   1.179  0.00  0.00    +0.262 A 
ATOM      7  O   UNL     1       2.243  -4.742   0.910  0.00  0.00    -0.267 OA
ATOM      8  C   UNL     1       0.100  -2.706   0.898  0.00  0.00    -0.023 A 
ATOM      9  C   UNL     1      -1.056  -2.004   0.969  0.00  0.00    -0.006 A 
ATOM     10  S   UNL     1      -2.294  -3.193   1.422  0.00  0.00    -0.073 S 
ATOM     11  C   UNL     1      -1.245  -0.540   0.719  0.00  0.00    +0.027 C 
ATOM     12  C   UNL     1       0.002  -0.004   0.002  0.00  0.00    -0.067 C 
ATOM     13  C   UNL     1       1.248  -0.505   0.739  0.00  0.00    -0.011 C 
ATOM     14  C   UNL     1       1.407  -2.010   0.528  0.00  0.00    +0.035 C 
ENDROOT
BRANCH  12  15
ATOM     15  N   UNL     1      -0.013   1.471   0.017  0.00  0.00    +0.381 N 
ATOM     16  H   UNL     1       0.950   1.820  -0.053  0.00  0.00    -0.086 HD
ATOM     17  H   UNL     1      -0.432   1.796   0.897  0.00  0.00    -0.086 HD
BRANCH  15  18
ATOM     18  C   UNL     1      -0.802   1.987  -1.117  0.00  0.00    -0.079 C 
BRANCH  18  19
ATOM     19  C   UNL     1      -0.799   3.516  -1.075  0.00  0.00    -0.028 C 
ATOM     20  C   UNL     1      -2.142   4.219  -0.864  0.00  0.00    +0.002 C 
ATOM     21  C   UNL     1      -1.467   4.256  -2.236  0.00  0.00    +0.002 C 
ENDBRANCH  18  19
ENDBRANCH  15  18
ENDBRANCH  12  15
BRANCH   1  22
ATOM     22  C   UNL     1       1.827  -7.359   1.494  0.00  0.00    +0.131 C 
BRANCH  22  23
ATOM     23  C   UNL     1       1.947  -7.983   0.102  0.00  0.00    +0.059 C 
BRANCH  23  30
ATOM     24  C   UNL     1       2.037 -12.516   1.293  0.00  0.00    +0.001 A 
ATOM     25  C   UNL     1       3.291 -13.091   1.135  0.00  0.00    +0.002 A 
ATOM     26  C   UNL     1       4.351 -12.348   0.665  0.00  0.00    +0.026 A 
ATOM     27  C   UNL     1       4.169 -11.004   0.355  0.00  0.00    +0.047 A 
ATOM     28  C   UNL     1       2.898 -10.425   0.518  0.00  0.00    +0.003 A 
ATOM     29  C   UNL     1       1.835 -11.199   0.990  0.00  0.00    +0.010 A 
ATOM     30  C   UNL     1       3.035  -9.025   0.110  0.00  0.00    -0.021 A 
ATOM     31  C   UNL     1       4.316  -8.845  -0.250  0.00  0.00    +0.087 A 
ATOM     32  N   UNL     1       5.008 -10.017  -0.110  0.00  0.00    -0.360 N 
ATOM     33  H   UNL     1       5.950 -10.134  -0.310  0.00  0.00    +0.165 HD
ENDBRANCH  23  30
ENDBRANCH  22  23
ENDBRANCH   1  22
TORSDOF 6
