REMARK  Name = ZINC41584456
REMARK  12 active torsions:
REMARK  status: ('A' for Active; 'I' for Inactive)
REMARK    1  A    between atoms: C_1  and  C_2
REMARK    2  A    between atoms: C_2  and  C_3
REMARK    3  A    between atoms: C_3  and  N_4
REMARK    4  A    between atoms: N_4  and  C_5
REMARK    5  A    between atoms: N_4  and  C_8
REMARK    6  A    between atoms: C_5  and  C_6
REMARK    7  A    between atoms: C_6  and  C_7
REMARK    8  A    between atoms: C_8  and  C_9
REMARK    9  A    between atoms: C_10  and  O_29
REMARK   10  A    between atoms: C_12  and  C_28
REMARK   11  A    between atoms: C_17  and  C_18
REMARK   12  A    between atoms: C_19  and  C_20
REMARK                            x       y       z     vdW  Elec       q    Type
REMARK                         _______ _______ _______ _____ _____    ______ ____
ROOT
ATOM      1  C   UNL     1       1.244  -4.177   2.470  0.00  0.00    +0.020 A 
ATOM      2  C   UNL     1       0.121  -4.908   2.823  0.00  0.00    +0.122 A 
ATOM      3  C   UNL     1       0.114  -6.295   2.706  0.00  0.00    +0.050 A 
ATOM      4  C   UNL     1       1.219  -6.951   2.241  0.00  0.00    -0.033 A 
ATOM      5  C   UNL     1       2.357  -6.227   1.883  0.00  0.00    +0.071 A 
ATOM      6  C   UNL     1       2.374  -4.827   1.991  0.00  0.00    +0.145 A 
ATOM      7  O   UNL     1       3.571  -4.354   1.582  0.00  0.00    -0.451 OA
ATOM      8  C   UNL     1       4.397  -5.351   1.186  0.00  0.00    +0.176 C 
ATOM      9  C   UNL     1       5.671  -5.204   0.721  0.00  0.00    +0.050 C 
ATOM     10  C   UNL     1       3.679  -6.619   1.360  0.00  0.00    +0.232 C 
ATOM     11  O   UNL     1       4.081  -7.744   1.116  0.00  0.00    -0.283 OA
ATOM     12  C   UNL     1       1.210  -8.452   2.117  0.00  0.00    +0.045 C 
ENDROOT
BRANCH   9  13
ATOM     13  C   UNL     1       6.239  -3.920   0.617  0.00  0.00    +0.004 C 
ATOM     14  C   UNL     1       7.505  -3.774   0.155  0.00  0.00    +0.008 C 
BRANCH  14  15
ATOM     15  C   UNL     1       8.098  -2.433   0.047  0.00  0.00    -0.025 A 
ATOM     16  C   UNL     1       7.361  -1.305   0.426  0.00  0.00    +0.008 A 
ATOM     17  C   UNL     1       7.925  -0.052   0.322  0.00  0.00    +0.001 A 
ATOM     18  C   UNL     1       9.216   0.093  -0.157  0.00  0.00    +0.000 A 
ATOM     19  C   UNL     1       9.951  -1.017  -0.535  0.00  0.00    +0.001 A 
ATOM     20  C   UNL     1       9.404  -2.278  -0.430  0.00  0.00    +0.008 A 
ENDBRANCH  14  15
ENDBRANCH   9  13
BRANCH   2  21
ATOM     21  O   UNL     1      -0.982  -4.266   3.287  0.00  0.00    -0.506 OA
ATOM     22  H   UNL     1      -1.607  -4.009   2.595  0.00  0.00    +0.292 HD
ENDBRANCH   2  21
BRANCH   1  23
ATOM     23  C   UNL     1       1.237  -2.675   2.602  0.00  0.00    -0.036 C 
BRANCH  23  24
ATOM     24  N   UNL     1       0.920  -2.072   1.300  0.00  0.00    +0.383 N 
ATOM     25  H   UNL     1       1.570  -2.410   0.606  0.00  0.00    -0.081 HD
BRANCH  24  26
ATOM     26  C   UNL     1      -0.448  -2.438   0.910  0.00  0.00    -0.079 C 
BRANCH  26  28
ATOM     27  C   UNL     1      -2.159  -2.295  -0.904  0.00  0.00    +0.002 C 
ATOM     28  C   UNL     1      -0.734  -1.914  -0.498  0.00  0.00    -0.022 C 
ENDBRANCH  26  28
ENDBRANCH  24  26
BRANCH  24  29
ATOM     29  C   UNL     1       1.027  -0.610   1.400  0.00  0.00    -0.079 C 
BRANCH  29  30
ATOM     30  C   UNL     1       2.485  -0.221   1.649  0.00  0.00    -0.022 C 
ATOM     31  C   UNL     1       2.585   1.296   1.825  0.00  0.00    +0.002 C 
ENDBRANCH  29  30
ENDBRANCH  24  29
ENDBRANCH  23  24
ENDBRANCH   1  23
TORSDOF 9
