REMARK  Name = ZINC62215145
REMARK  2 active torsions:
REMARK  status: ('A' for Active; 'I' for Inactive)
REMARK    1  A    between atoms: C_6  and  C_7
REMARK    2  A    between atoms: C_8  and  C_9
REMARK                            x       y       z     vdW  Elec       q    Type
REMARK                         _______ _______ _______ _____ _____    ______ ____
ROOT
ATOM      1  C   UNL     1      -2.494  -2.861   0.011  0.00  0.00    +0.240 C 
ATOM      2  O   UNL     1      -3.558  -2.270   0.025  0.00  0.00    -0.271 OA
ATOM      3  N   UNL     1      -2.472  -4.209   0.004  0.00  0.00    -0.287 N 
ATOM      4  C   UNL     1      -1.286  -5.070  -0.006  0.00  0.00    +0.164 C 
ATOM      5  C   UNL     1      -1.753  -6.518  -0.011  0.00  0.00    +0.072 A 
ATOM      6  C   UNL     1      -3.103  -6.506  -0.005  0.00  0.00    +0.033 A 
ATOM      7  S   UNL     1      -3.502  -8.237  -0.012  0.00  0.00    -0.056 S 
ATOM      8  C   UNL     1      -1.927  -8.830  -0.022  0.00  0.00    +0.156 A 
ATOM      9  N   UNL     1      -1.199  -7.739  -0.020  0.00  0.00    -0.228 NA
ATOM     10  N   UNL     1      -1.503 -10.150  -0.031  0.00  0.00    -0.338 N 
ATOM     11  C   UNL     1      -3.632  -5.110   0.011  0.00  0.00    +0.152 C 
ATOM     12  H   UNL     1      -2.154 -10.868  -0.031  0.00  0.00    +0.144 HD
ATOM     13  H   UNL     1      -0.554 -10.354  -0.036  0.00  0.00    +0.144 HD
ENDROOT
BRANCH   1  15
ATOM     14  C   UNL     1      -1.260  -0.761   0.011  0.00  0.00    +0.013 C 
ATOM     15  C   UNL     1      -1.238  -2.109   0.003  0.00  0.00    +0.068 C 
BRANCH  14  21
ATOM     16  C   UNL     1      -0.017   1.395   0.010  0.00  0.00    +0.009 A 
ATOM     17  C   UNL     1       1.169   2.096   0.002  0.00  0.00    +0.020 A 
ATOM     18  C   UNL     1       2.378   1.420  -0.013  0.00  0.00    +0.041 A 
ATOM     19  C   UNL     1       2.405   0.035  -0.021  0.00  0.00    +0.020 A 
ATOM     20  C   UNL     1       1.226  -0.680  -0.014  0.00  0.00    +0.009 A 
ATOM     21  C   UNL     1       0.002  -0.004   0.002  0.00  0.00    -0.025 A 
ATOM     22 CL   UNL     1       3.867   2.312  -0.023  0.00  0.00    -0.084 Cl
ENDBRANCH  14  21
ENDBRANCH   1  15
TORSDOF 2
