REMARK  Name = ZINC64966495
REMARK  11 active torsions:
REMARK  status: ('A' for Active; 'I' for Inactive)
REMARK    1  A    between atoms: C_1  and  C_2
REMARK    2  A    between atoms: C_2  and  N_3
REMARK    3  A    between atoms: N_3  and  C_4
REMARK    4  A    between atoms: N_3  and  S_6
REMARK    5  A    between atoms: C_4  and  C_5
REMARK    6  A    between atoms: S_6  and  C_9
REMARK    7  A    between atoms: N_15  and  C_25
REMARK    8  A    between atoms: C_25  and  C_26
REMARK    9  A    between atoms: N_28  and  C_29
REMARK   10  A    between atoms: C_29  and  C_30
REMARK   11  A    between atoms: C_30  and  C_31
REMARK                            x       y       z     vdW  Elec       q    Type
REMARK                         _______ _______ _______ _____ _____    ______ ____
ROOT
ATOM      1  C   UNL     1      -0.337   0.586  -3.526  0.00  0.00    +0.107 A 
ATOM      2  C   UNL     1      -1.407   1.439  -3.327  0.00  0.00    +0.030 A 
ATOM      3  C   UNL     1      -1.529   2.590  -4.084  0.00  0.00    +0.027 A 
ATOM      4  C   UNL     1      -0.576   2.885  -5.046  0.00  0.00    +0.052 A 
ATOM      5  C   UNL     1       0.496   2.022  -5.253  0.00  0.00    +0.060 A 
ATOM      6  C   UNL     1       0.619   0.876  -4.482  0.00  0.00    +0.054 A 
ATOM      7  N   UNL     1       1.437   2.315  -6.247  0.00  0.00    -0.259 N 
ATOM      8  C   UNL     1       1.469   3.531  -6.815  0.00  0.00    +0.241 C 
ATOM      9  O   UNL     1       2.306   3.761  -7.662  0.00  0.00    -0.273 OA
ATOM     10  C   UNL     1       0.499   4.618  -6.433  0.00  0.00    +0.160 C 
ATOM     11  N   UNL     1      -0.690   4.063  -5.810  0.00  0.00    -0.317 N 
ATOM     12  C   UNL     1      -2.012   4.683  -5.890  0.00  0.00    +0.106 C 
ATOM     13  C   UNL     1      -2.224   5.357  -7.242  0.00  0.00    +0.019 C 
ATOM     14  C   UNL     1      -1.047   6.306  -7.493  0.00  0.00    +0.004 C 
ATOM     15  C   UNL     1       0.218   5.473  -7.658  0.00  0.00    +0.032 C 
ENDROOT
BRANCH   1  16
ATOM     16  S   UNL     1      -0.188  -0.875  -2.551  0.00  0.00    +0.061 S 
ATOM     17  O   UNL     1       0.610  -1.782  -3.300  0.00  0.00    -0.153 OA
ATOM     18  O   UNL     1      -1.496  -1.201  -2.104  0.00  0.00    -0.153 OA
BRANCH  16  19
ATOM     19  N   UNL     1       0.688  -0.476  -1.203  0.00  0.00    -0.177 NA
BRANCH  19  21
ATOM     20  C   UNL     1      -0.019   1.526   0.010  0.00  0.00    +0.022 C 
ATOM     21  C   UNL     1       0.002  -0.004   0.002  0.00  0.00    +0.106 C 
ENDBRANCH  19  21
BRANCH  19  22
ATOM     22  C   UNL     1       2.148  -0.597  -1.216  0.00  0.00    +0.106 C 
ATOM     23  C   UNL     1       2.553  -1.951  -0.632  0.00  0.00    +0.022 C 
ENDBRANCH  19  22
ENDBRANCH  16  19
ENDBRANCH   1  16
BRANCH   7  24
ATOM     24  C   UNL     1       2.391   1.288  -6.672  0.00  0.00    +0.209 C 
BRANCH  24  25
ATOM     25  C   UNL     1       1.804   0.496  -7.811  0.00  0.00    +0.231 C 
ATOM     26  O   UNL     1       0.697   0.764  -8.229  0.00  0.00    -0.274 OA
ATOM     27  N   UNL     1       2.508  -0.509  -8.368  0.00  0.00    -0.314 N 
ATOM     28  H   UNL     1       3.394  -0.723  -8.034  0.00  0.00    +0.149 HD
BRANCH  27  29
ATOM     29  C   UNL     1       1.937  -1.278  -9.476  0.00  0.00    +0.110 C 
BRANCH  29  30
ATOM     30  C   UNL     1       2.934  -2.351  -9.919  0.00  0.00    +0.073 C 
BRANCH  30  31
ATOM     31  C   UNL     1       2.346  -3.143 -11.059  0.00  0.00    +0.035 A 
ATOM     32  H   UNL     1       1.612  -3.840 -14.010  0.00  0.00    +0.166 HD
ATOM     33  C   UNL     1       2.395  -2.808 -12.363  0.00  0.00    +0.105 A 
ATOM     34  N   UNL     1       1.744  -3.797 -13.050  0.00  0.00    -0.352 N 
ATOM     35  C   UNL     1       1.321  -4.702 -12.142  0.00  0.00    +0.171 A 
ATOM     36  N   UNL     1       1.689  -4.307 -10.954  0.00  0.00    -0.350 N 
ATOM     37  H   UNL     1       1.513  -4.780 -10.125  0.00  0.00    +0.166 HD
ENDBRANCH  30  31
ENDBRANCH  29  30
ENDBRANCH  27  29
ENDBRANCH  24  25
ENDBRANCH   7  24
TORSDOF 9
