REMARK  Name = ZINC38733077
REMARK  6 active torsions:
REMARK  status: ('A' for Active; 'I' for Inactive)
REMARK    1  A    between atoms: C_1  and  N_2
REMARK    2  A    between atoms: N_2  and  C_3
REMARK    3  A    between atoms: C_3  and  C_4
REMARK    4  A    between atoms: C_4  and  C_5
REMARK    5  A    between atoms: C_14  and  C_16
REMARK    6  A    between atoms: C_22  and  C_24
REMARK                            x       y       z     vdW  Elec       q    Type
REMARK                         _______ _______ _______ _____ _____    ______ ____
ROOT
ATOM      1  C   UNL     1      -0.049   0.095  -2.481  0.00  0.00    +0.091 C 
ATOM      2  C   UNL     1       1.185   0.993  -2.593  0.00  0.00    +0.040 C 
ATOM      3  C   UNL     1       1.297   1.545  -3.984  0.00  0.00    -0.030 C 
ATOM      4  C   UNL     1       0.674   1.059  -5.010  0.00  0.00    -0.030 C 
ATOM      5  C   UNL     1      -0.256  -0.117  -4.949  0.00  0.00    +0.040 C 
ATOM      6  C   UNL     1      -0.041  -0.897  -3.651  0.00  0.00    +0.091 C 
ENDROOT
BRANCH   6   7
ATOM      7  C   UNL     1      -1.149  -1.903  -3.471  0.00  0.00    +0.220 C 
ATOM      8  O   UNL     1      -2.124  -1.618  -2.808  0.00  0.00    -0.275 OA
ATOM      9  N   UNL     1      -1.056  -3.118  -4.046  0.00  0.00    -0.298 N 
ATOM     10  C   UNL     1       0.165  -3.515  -4.762  0.00  0.00    +0.126 C 
ATOM     11  C   UNL     1       0.681  -4.828  -4.159  0.00  0.00    +0.125 C 
ATOM     12  N   UNL     1      -0.436  -5.780  -4.081  0.00  0.00    -0.314 N 
ATOM     13  C   UNL     1      -1.657  -5.383  -3.365  0.00  0.00    +0.125 C 
ATOM     14  C   UNL     1      -2.171  -4.072  -3.963  0.00  0.00    +0.126 C 
ATOM     15  C   UNL     1      -0.340  -7.034  -4.674  0.00  0.00    +0.099 A 
ATOM     16  C   UNL     1       0.868  -7.443  -5.230  0.00  0.00    +0.042 A 
ATOM     17  C   UNL     1       0.949  -8.693  -5.816  0.00  0.00    +0.005 A 
ATOM     18  C   UNL     1      -0.185  -9.494  -5.828  0.00  0.00    +0.018 A 
ATOM     19  C   UNL     1      -1.351  -9.025  -5.258  0.00  0.00    +0.084 A 
ATOM     20  N   UNL     1      -1.398  -7.830  -4.700  0.00  0.00    -0.350 N 
ATOM     21  H   UNL     1      -2.229  -7.525  -4.303  0.00  0.00    +0.166 HD
ENDBRANCH   6   7
BRANCH   1  24
ATOM     22  C   UNL     1      -0.029   1.477  -0.007  0.00  0.00    +0.132 C 
ATOM     23  N   UNL     1       0.000   0.012  -0.009  0.00  0.00    -0.304 N 
ATOM     24  C   UNL     1      -0.009  -0.660  -1.177  0.00  0.00    +0.219 C 
ATOM     25  O   UNL     1       0.015  -1.873  -1.179  0.00  0.00    -0.275 OA
BRANCH  23  26
ATOM     26  C   UNL     1       0.039  -0.722   1.258  0.00  0.00    +0.112 C 
BRANCH  26  27
ATOM     27  C   UNL     1      -1.389  -1.006   1.727  0.00  0.00    +0.056 C 
BRANCH  27  28
ATOM     28  C   UNL     1      -1.349  -1.761   3.031  0.00  0.00    -0.021 A 
ATOM     29  C   UNL     1      -1.232  -1.181   4.371  0.00  0.00    +0.003 A 
ATOM     30  C   UNL     1      -1.129   0.124   4.857  0.00  0.00    +0.010 A 
ATOM     31  C   UNL     1      -1.032   0.340   6.203  0.00  0.00    +0.001 A 
ATOM     32  C   UNL     1      -1.036  -0.727   7.091  0.00  0.00    +0.002 A 
ATOM     33  C   UNL     1      -1.136  -2.023   6.632  0.00  0.00    +0.026 A 
ATOM     34  C   UNL     1      -1.236  -2.266   5.266  0.00  0.00    +0.047 A 
ATOM     35  N   UNL     1      -1.347  -3.413   4.513  0.00  0.00    -0.360 N 
ATOM     36  C   UNL     1      -1.419  -3.093   3.185  0.00  0.00    +0.087 A 
ATOM     37  H   UNL     1      -1.375  -4.314   4.871  0.00  0.00    +0.165 HD
ENDBRANCH  27  28
ENDBRANCH  26  27
ENDBRANCH  23  26
ENDBRANCH   1  24
TORSDOF 5
