REMARK  Name = ZINC24778320
REMARK  10 active torsions:
REMARK  status: ('A' for Active; 'I' for Inactive)
REMARK    1  A    between atoms: C_1  and  C_2
REMARK    2  A    between atoms: C_2  and  C_3
REMARK    3  A    between atoms: C_3  and  O_4
REMARK    4  A    between atoms: O_4  and  C_5
REMARK    5  A    between atoms: C_10  and  N_11
REMARK    6  A    between atoms: C_12  and  C_14
REMARK    7  A    between atoms: C_14  and  N_15
REMARK    8  A    between atoms: C_18  and  C_22
REMARK    9  A    between atoms: C_18  and  C_29
REMARK   10  A    between atoms: C_22  and  C_23
REMARK                            x       y       z     vdW  Elec       q    Type
REMARK                         _______ _______ _______ _____ _____    ______ ____
ROOT
ATOM      1  N   UNL     1       4.211  -2.399   1.421  0.00  0.00    -0.215 N 
ATOM      2  C   UNL     1       4.144  -1.051   1.366  0.00  0.00    +0.252 C 
ATOM      3  O   UNL     1       4.386  -0.266   2.257  0.00  0.00    -0.272 OA
ATOM      4  C   UNL     1       3.702  -0.725  -0.047  0.00  0.00    +0.142 C 
ATOM      5  N   UNL     1       3.561  -2.046  -0.683  0.00  0.00    -0.281 N 
ATOM      6  C   UNL     1       3.880  -2.959   0.252  0.00  0.00    +0.310 C 
ATOM      7  O   UNL     1       3.867  -4.159   0.056  0.00  0.00    -0.252 OA
ATOM      8  H   UNL     1       3.246  -2.119  -1.735  0.00  0.00    +0.152 HD
ENDROOT
BRANCH   4   9
ATOM      9  C   UNL     1       2.382   0.002  -0.035  0.00  0.00    -0.015 A 
ATOM     10  C   UNL     1       1.199  -0.714  -0.032  0.00  0.00    +0.006 A 
ATOM     11  C   UNL     1      -0.012  -0.048  -0.021  0.00  0.00    +0.000 A 
ATOM     12  C   UNL     1      -0.040   1.334  -0.012  0.00  0.00    +0.000 A 
ATOM     13  C   UNL     1       1.142   2.050  -0.014  0.00  0.00    +0.000 A 
ATOM     14  C   UNL     1       2.353   1.384  -0.027  0.00  0.00    +0.006 A 
ENDBRANCH   4   9
BRANCH   1  15
ATOM     15  C   UNL     1       4.602  -3.155   2.614  0.00  0.00    +0.214 C 
BRANCH  15  17
ATOM     16  N   UNL     1       6.684  -4.035   3.618  0.00  0.00    -0.281 N 
ATOM     17  C   UNL     1       6.095  -3.361   2.611  0.00  0.00    +0.235 C 
ATOM     18  O   UNL     1       6.767  -2.920   1.702  0.00  0.00    -0.274 OA
ATOM     19  H   UNL     1       6.090  -4.356   4.487  0.00  0.00    +0.155 HD
BRANCH  16  25
ATOM     20  C   UNL     1       8.775  -4.530   4.733  0.00  0.00    +0.142 A 
ATOM     21  C   UNL     1      10.128  -4.824   4.668  0.00  0.00    +0.047 A 
ATOM     22  C   UNL     1      10.760  -4.905   3.442  0.00  0.00    +0.004 A 
ATOM     23  C   UNL     1      10.045  -4.698   2.276  0.00  0.00    +0.002 A 
ATOM     24  C   UNL     1       8.695  -4.410   2.332  0.00  0.00    +0.027 A 
ATOM     25  C   UNL     1       8.053  -4.327   3.559  0.00  0.00    +0.076 A 
BRANCH  20  26
ATOM     26  O   UNL     1       8.153  -4.445   5.939  0.00  0.00    -0.490 OA
BRANCH  26  27
ATOM     27  C   UNL     1       8.957  -4.664   7.101  0.00  0.00    +0.229 C 
BRANCH  27  29
ATOM     28  C   UNL     1       8.950  -4.763   9.597  0.00  0.00    +0.007 C 
ATOM     29  C   UNL     1       8.090  -4.528   8.354  0.00  0.00    +0.038 C 
ENDBRANCH  27  29
ENDBRANCH  26  27
ENDBRANCH  20  26
ENDBRANCH  16  25
ENDBRANCH  15  17
ENDBRANCH   1  15
BRANCH   4  30
ATOM     30  C   UNL     1       4.766   0.108  -0.765  0.00  0.00    +0.075 C 
BRANCH  30  31
ATOM     31  C   UNL     1       6.041  -0.689  -0.871  0.00  0.00    -0.045 A 
ATOM     32  C   UNL     1       6.992  -0.609   0.129  0.00  0.00    +0.004 A 
ATOM     33  C   UNL     1       8.159  -1.344   0.033  0.00  0.00    +0.000 A 
ATOM     34  C   UNL     1       8.379  -2.152  -1.067  0.00  0.00    +0.000 A 
ATOM     35  C   UNL     1       7.430  -2.228  -2.069  0.00  0.00    +0.000 A 
ATOM     36  C   UNL     1       6.261  -1.497  -1.972  0.00  0.00    +0.004 A 
ENDBRANCH  30  31
ENDBRANCH   4  30
TORSDOF 9
