REMARK  Name = ZINC56513646
REMARK  10 active torsions:
REMARK  status: ('A' for Active; 'I' for Inactive)
REMARK    1  A    between atoms: C_1  and  C_2
REMARK    2  A    between atoms: C_2  and  C_3
REMARK    3  A    between atoms: C_2  and  C_4
REMARK    4  A    between atoms: C_2  and  O_5
REMARK    5  A    between atoms: O_5  and  C_6
REMARK    6  A    between atoms: N_8  and  C_9
REMARK    7  A    between atoms: N_14  and  C_16
REMARK    8  A    between atoms: C_16  and  C_17
REMARK    9  A    between atoms: C_17  and  C_19
REMARK   10  A    between atoms: C_17  and  O_27
REMARK                            x       y       z     vdW  Elec       q    Type
REMARK                         _______ _______ _______ _____ _____    ______ ____
ROOT
ATOM      1  C   UNL     1       4.035  -0.071  -2.601  0.00  0.00    +0.060 C 
ATOM      2  C   UNL     1       4.955  -1.037  -1.848  0.00  0.00    +0.019 C 
ATOM      3  C   UNL     1       6.412  -0.642  -2.104  0.00  0.00    -0.017 C 
ATOM      4  C   UNL     1       6.678  -0.644  -3.611  0.00  0.00    -0.079 C 
ATOM      5  N   UNL     1       5.787   0.317  -4.270  0.00  0.00    +0.383 N 
ATOM      6  C   UNL     1       4.389  -0.093  -4.090  0.00  0.00    -0.056 C 
ATOM      7  H   UNL     1       5.922   1.232  -3.866  0.00  0.00    -0.082 HD
ENDROOT
BRANCH   1  10
ATOM      8  C   UNL     1       1.952  -0.085  -1.337  0.00  0.00    +0.401 C 
ATOM      9  O   UNL     1       2.488   0.619  -0.503  0.00  0.00    -0.226 OA
ATOM     10  N   UNL     1       2.641  -0.485  -2.424  0.00  0.00    -0.280 N 
ATOM     11  H   UNL     1       2.213  -1.047  -3.089  0.00  0.00    +0.152 HD
BRANCH   8  12
ATOM     12  O   UNL     1       0.671  -0.465  -1.174  0.00  0.00    -0.445 OA
BRANCH  12  14
ATOM     13  C   UNL     1      -0.019   1.526   0.010  0.00  0.00    +0.055 C 
ATOM     14  C   UNL     1       0.002  -0.004   0.002  0.00  0.00    +0.107 C 
ATOM     15  C   UNL     1       0.742  -0.511   1.242  0.00  0.00    +0.055 C 
ATOM     16  C   UNL     1      -1.433  -0.534   0.013  0.00  0.00    +0.055 C 
ENDBRANCH  12  14
ENDBRANCH   8  12
ENDBRANCH   1  10
BRANCH   5  17
ATOM     17  C   UNL     1       6.099   0.368  -5.705  0.00  0.00    -0.042 C 
BRANCH  17  18
ATOM     18  C   UNL     1       7.511   0.925  -5.899  0.00  0.00    +0.128 C 
BRANCH  18  19
ATOM     19  C   UNL     1       7.832   0.978  -7.371  0.00  0.00    -0.018 A 
ATOM     20  C   UNL     1       7.445   2.071  -8.123  0.00  0.00    +0.009 A 
ATOM     21  C   UNL     1       7.738   2.122  -9.473  0.00  0.00    +0.041 A 
ATOM     22  C   UNL     1       8.420   1.077 -10.073  0.00  0.00    +0.158 A 
ATOM     23  C   UNL     1       8.807  -0.020  -9.318  0.00  0.00    +0.159 A 
ATOM     24  C   UNL     1       8.517  -0.065  -7.966  0.00  0.00    +0.047 A 
ATOM     25  F   UNL     1       9.472  -1.041  -9.902  0.00  0.00    -0.202 F 
ATOM     26  F   UNL     1       8.706   1.125 -11.392  0.00  0.00    -0.202 F 
ENDBRANCH  18  19
BRANCH  18  27
ATOM     27  O   UNL     1       7.584   2.241  -5.348  0.00  0.00    -0.389 OA
ATOM     28  H   UNL     1       6.971   2.871  -5.752  0.00  0.00    +0.210 HD
ENDBRANCH  18  27
ENDBRANCH  17  18
ENDBRANCH   5  17
TORSDOF 7
