REMARK  Name = ZINC36064774
REMARK  18 active torsions:
REMARK  status: ('A' for Active; 'I' for Inactive)
REMARK    1  A    between atoms: C_1  and  C_2
REMARK    2  A    between atoms: C_2  and  C_3
REMARK    3  A    between atoms: C_3  and  C_5
REMARK    4  A    between atoms: C_3  and  N_6
REMARK    5  A    between atoms: N_6  and  C_7
REMARK    6  A    between atoms: C_9  and  C_10
REMARK    7  A    between atoms: C_15  and  C_37
REMARK    8  A    between atoms: C_16  and  C_30
REMARK    9  A    between atoms: C_17  and  C_20
REMARK   10  A    between atoms: C_24  and  O_28
REMARK   11  A    between atoms: C_25  and  O_26
REMARK   12  A    between atoms: O_26  and  C_27
REMARK   13  A    between atoms: O_28  and  C_29
REMARK   14  A    between atoms: C_30  and  O_32
REMARK   15  A    between atoms: O_32  and  C_33
REMARK   16  A    between atoms: C_33  and  C_34
REMARK   17  A    between atoms: C_33  and  C_35
REMARK   18  A    between atoms: C_33  and  C_36
REMARK                            x       y       z     vdW  Elec       q    Type
REMARK                         _______ _______ _______ _____ _____    ______ ____
ROOT
ATOM      1  C   UNL     1       5.356   1.317  -3.539  0.00  0.00    +0.048 C 
ATOM      2  C   UNL     1       6.692   1.520  -3.537  0.00  0.00    +0.072 C 
ATOM      3  S   UNL     1       7.050   1.638  -5.278  0.00  0.00    -0.060 S 
ATOM      4  C   UNL     1       5.496   1.422  -5.875  0.00  0.00    +0.166 C 
ATOM      5  N   UNL     1       5.030   1.395  -7.107  0.00  0.00    -0.230 NA
ATOM      6  C   UNL     1       3.760   1.213  -7.430  0.00  0.00    +0.053 C 
ATOM      7  C   UNL     1       2.807   1.032  -6.447  0.00  0.00    +0.083 C 
ATOM      8  C   UNL     1       3.267   1.050  -5.006  0.00  0.00    +0.153 C 
ATOM      9  N   UNL     1       4.719   1.258  -4.762  0.00  0.00    -0.267 N 
ATOM     10  C   UNL     1       3.351   1.203  -8.880  0.00  0.00    +0.066 C 
ENDROOT
BRANCH   8  11
ATOM     11  C   UNL     1       2.512   2.142  -4.292  0.00  0.00    +0.023 A 
ATOM     12  C   UNL     1       1.487   1.819  -3.422  0.00  0.00    +0.009 A 
ATOM     13  C   UNL     1       0.792   2.817  -2.766  0.00  0.00    +0.004 A 
ATOM     14  C   UNL     1       1.119   4.144  -2.977  0.00  0.00    +0.049 A 
ATOM     15  C   UNL     1       2.145   4.475  -3.847  0.00  0.00    +0.162 A 
ATOM     16  C   UNL     1       2.849   3.469  -4.503  0.00  0.00    +0.167 A 
BRANCH  16  17
ATOM     17  O   UNL     1       3.860   3.788  -5.354  0.00  0.00    -0.491 OA
ATOM     18  C   UNL     1       3.495   4.165  -6.683  0.00  0.00    +0.277 C 
ENDBRANCH  16  17
BRANCH  15  19
ATOM     19  O   UNL     1       2.468   5.780  -4.055  0.00  0.00    -0.491 OA
ATOM     20  C   UNL     1       1.784   6.752  -3.263  0.00  0.00    +0.277 C 
ENDBRANCH  15  19
ENDBRANCH   8  11
BRANCH   1  23
ATOM     21  C   UNL     1       5.224   1.362  -1.103  0.00  0.00    +0.239 C 
ATOM     22  O   UNL     1       6.489   1.848  -1.073  0.00  0.00    -0.271 OA
ATOM     23  C   UNL     1       4.609   1.157  -2.283  0.00  0.00    +0.091 C 
BRANCH  21  24
ATOM     24  N   UNL     1       4.564   1.076   0.081  0.00  0.00    -0.309 N 
ATOM     25  H   UNL     1       3.688   0.660   0.059  0.00  0.00    +0.149 HD
BRANCH  24  26
ATOM     26  C   UNL     1       5.189   1.402   1.365  0.00  0.00    +0.070 C 
ATOM     27  C   UNL     1       4.984   2.887   1.670  0.00  0.00    +0.028 C 
BRANCH  26  29
ATOM     28  C   UNL     1       4.841  -0.919   2.220  0.00  0.00    +0.005 C 
ATOM     29  C   UNL     1       4.549   0.561   2.471  0.00  0.00    +0.018 C 
ENDBRANCH  26  29
ENDBRANCH  24  26
ENDBRANCH  21  24
ENDBRANCH   1  23
BRANCH   7  30
ATOM     30  C   UNL     1       1.459   0.838  -6.773  0.00  0.00    +0.340 C 
ATOM     31  O   UNL     1       1.123   0.737  -7.941  0.00  0.00    -0.245 OA
BRANCH  30  32
ATOM     32  O   UNL     1       0.530   0.763  -5.794  0.00  0.00    -0.456 OA
BRANCH  32  33
ATOM     33  C   UNL     1      -0.825   0.564  -6.199  0.00  0.00    +0.106 C 
ATOM     34  C   UNL     1      -0.938  -0.750  -6.975  0.00  0.00    +0.055 C 
ATOM     35  C   UNL     1      -1.724   0.505  -4.963  0.00  0.00    +0.055 C 
ATOM     36  C   UNL     1      -1.265   1.724  -7.095  0.00  0.00    +0.055 C 
ENDBRANCH  32  33
ENDBRANCH  30  32
ENDBRANCH   7  30
TORSDOF 10
