REMARK  Name = ZINC35005736
REMARK  8 active torsions:
REMARK  status: ('A' for Active; 'I' for Inactive)
REMARK    1  A    between atoms: C_1  and  C_2
REMARK    2  A    between atoms: C_4  and  O_35
REMARK    3  A    between atoms: C_7  and  C_8
REMARK    4  A    between atoms: C_9  and  C_19
REMARK    5  A    between atoms: N_11  and  C_13
REMARK    6  A    between atoms: C_27  and  C_29
REMARK    7  A    between atoms: O_35  and  C_36
REMARK    8  A    between atoms: C_36  and  C_37
REMARK                            x       y       z     vdW  Elec       q    Type
REMARK                         _______ _______ _______ _____ _____    ______ ____
ROOT
ATOM      1  C   UNL     1      -0.199   0.041   2.508  0.00  0.00    +0.101 A 
ATOM      2  C   UNL     1      -0.051  -0.571   3.835  0.00  0.00    +0.022 A 
ATOM      3  C   UNL     1       0.194   0.468   4.716  0.00  0.00    +0.123 A 
ATOM      4  N   UNL     1       0.198   1.613   4.010  0.00  0.00    -0.239 N 
ATOM      5  N   UNL     1      -0.037   1.336   2.661  0.00  0.00    -0.166 NA
ENDROOT
BRANCH   2   6
ATOM      6  C   UNL     1      -0.144  -1.996   4.161  0.00  0.00    +0.032 C 
ATOM      7  C   UNL     1      -0.310  -2.389   5.452  0.00  0.00    +0.082 A 
ATOM      8  C   UNL     1      -0.421  -3.742   6.009  0.00  0.00    +0.288 A 
ATOM      9  O   UNL     1      -0.370  -4.724   5.291  0.00  0.00    -0.265 OA
ATOM     10  N   UNL     1      -0.582  -3.861   7.334  0.00  0.00    -0.169 N 
ATOM     11  C   UNL     1      -0.633  -2.729   8.097  0.00  0.00    +0.200 A 
ATOM     12  S   UNL     1      -0.444  -1.399   6.934  0.00  0.00    -0.044 S 
ATOM     13  N   UNL     1      -0.792  -3.051   9.350  0.00  0.00    -0.200 NA
ATOM     14  C   UNL     1      -0.850  -4.386   9.460  0.00  0.00    +0.183 A 
ATOM     15  N   UNL     1      -0.728  -4.921   8.271  0.00  0.00    -0.141 NA
BRANCH  14  16
ATOM     16  C   UNL     1      -1.024  -5.138  10.728  0.00  0.00    +0.021 A 
ATOM     17  C   UNL     1      -1.063  -6.531  10.715  0.00  0.00    +0.011 A 
ATOM     18  C   UNL     1      -1.225  -7.225  11.897  0.00  0.00    +0.001 A 
ATOM     19  C   UNL     1      -1.348  -6.541  13.092  0.00  0.00    +0.000 A 
ATOM     20  C   UNL     1      -1.310  -5.158  13.111  0.00  0.00    +0.001 A 
ATOM     21  C   UNL     1      -1.143  -4.454  11.936  0.00  0.00    +0.011 A 
ENDBRANCH  14  16
ENDBRANCH   2   6
BRANCH   1  28
ATOM     22  C   UNL     1      -2.266   1.020   0.739  0.00  0.00    +0.044 C 
ATOM     23  C   UNL     1      -1.466  -0.205   0.376  0.00  0.00    -0.038 A 
ATOM     24  C   UNL     1      -1.714  -0.865  -0.809  0.00  0.00    +0.049 A 
ATOM     25  C   UNL     1      -0.978  -1.993  -1.144  0.00  0.00    +0.121 A 
ATOM     26  C   UNL     1       0.010  -2.461  -0.287  0.00  0.00    +0.046 A 
ATOM     27  C   UNL     1       0.262  -1.807   0.899  0.00  0.00    +0.014 A 
ATOM     28  C   UNL     1      -0.471  -0.669   1.236  0.00  0.00    +0.006 A 
BRANCH  25  29
ATOM     29  O   UNL     1      -1.225  -2.641  -2.312  0.00  0.00    -0.488 OA
BRANCH  29  30
ATOM     30  C   UNL     1      -0.431  -3.795  -2.594  0.00  0.00    +0.256 C 
BRANCH  30  31
ATOM     31  C   UNL     1      -0.844  -4.377  -3.922  0.00  0.00    +0.006 C 
ATOM     32  C   UNL     1       0.068  -4.745  -4.788  0.00  0.00    +0.007 C 
ENDBRANCH  30  31
ENDBRANCH  29  30
ENDBRANCH  25  29
ENDBRANCH   1  28
BRANCH   4  33
ATOM     33  C   UNL     1       0.411   2.890   4.546  0.00  0.00    +0.065 A 
ATOM     34  C   UNL     1       0.647   3.043   5.906  0.00  0.00    +0.028 A 
ATOM     35  C   UNL     1       0.857   4.303   6.431  0.00  0.00    +0.002 A 
ATOM     36  C   UNL     1       0.833   5.411   5.605  0.00  0.00    +0.000 A 
ATOM     37  C   UNL     1       0.598   5.262   4.250  0.00  0.00    +0.002 A 
ATOM     38  C   UNL     1       0.394   4.004   3.718  0.00  0.00    +0.028 A 
ENDBRANCH   4  33
TORSDOF 7
