REMARK  Name = ZINC02639948
REMARK  9 active torsions:
REMARK  status: ('A' for Active; 'I' for Inactive)
REMARK    1  A    between atoms: C_1  and  C_2
REMARK    2  A    between atoms: C_4  and  C_25
REMARK    3  A    between atoms: C_5  and  C_9
REMARK    4  A    between atoms: C_7  and  C_8
REMARK    5  A    between atoms: C_9  and  C_11
REMARK    6  A    between atoms: C_11  and  S_12
REMARK    7  A    between atoms: S_12  and  C_13
REMARK    8  A    between atoms: C_16  and  C_19
REMARK    9  A    between atoms: N_17  and  N_18
REMARK                            x       y       z     vdW  Elec       q    Type
REMARK                         _______ _______ _______ _____ _____    ______ ____
ROOT
ATOM      1  C   UNL     1      -4.117   7.563   0.522  0.00  0.00    +0.209 A 
ATOM      2  N   UNL     1      -2.971   8.198   0.605  0.00  0.00    -0.121 NA
ATOM      3  N   UNL     1      -3.180   9.459   0.741  0.00  0.00    -0.132 NA
ATOM      4  C   UNL     1      -4.460   9.702   0.751  0.00  0.00    +0.154 A 
ATOM      5  N   UNL     1      -5.103   8.504   0.606  0.00  0.00    -0.228 N 
ENDROOT
BRANCH   4   6
ATOM      6  C   UNL     1      -5.112  11.054   0.891  0.00  0.00    +0.059 C 
ATOM      7  C   UNL     1      -4.666  11.956  -0.261  0.00  0.00    +0.011 C 
ATOM      8  C   UNL     1      -5.327  13.329  -0.119  0.00  0.00    +0.001 C 
ATOM      9  C   UNL     1      -4.913  13.959   1.212  0.00  0.00    +0.000 C 
ATOM     10  C   UNL     1      -5.359  13.056   2.365  0.00  0.00    +0.001 C 
ATOM     11  C   UNL     1      -4.698  11.684   2.223  0.00  0.00    +0.011 C 
ENDBRANCH   4   6
BRANCH   5  12
ATOM     12  N   UNL     1      -6.452   8.291   0.559  0.00  0.00    -0.295 N 
ATOM     13  H   UNL     1      -6.826   8.134   1.483  0.00  0.00    +0.163 HD
ATOM     14  H   UNL     1      -6.923   9.059   0.105  0.00  0.00    +0.163 HD
ENDBRANCH   5  12
BRANCH   1  15
ATOM     15  S   UNL     1      -4.340   5.826   0.329  0.00  0.00    -0.077 S 
BRANCH  15  16
ATOM     16  C   UNL     1      -2.612   5.289   0.292  0.00  0.00    +0.157 C 
BRANCH  16  17
ATOM     17  C   UNL     1      -2.555   3.792   0.129  0.00  0.00    +0.174 C 
ATOM     18  O   UNL     1      -3.581   3.151   0.046  0.00  0.00    -0.291 OA
BRANCH  17  23
ATOM     19  C   UNL     1       2.530   1.119  -0.099  0.00  0.00    +0.044 C 
ATOM     20  C   UNL     1       1.197   1.820  -0.039  0.00  0.00    -0.047 A 
ATOM     21  C   UNL     1       0.033   1.104  -0.258  0.00  0.00    +0.007 A 
ATOM     22  C   UNL     1      -1.190   1.739  -0.210  0.00  0.00    -0.040 A 
ATOM     23  C   UNL     1      -1.253   3.108   0.071  0.00  0.00    +0.021 A 
ATOM     24  C   UNL     1      -0.072   3.824   0.291  0.00  0.00    +0.015 A 
ATOM     25  C   UNL     1       1.144   3.175   0.234  0.00  0.00    -0.047 A 
ATOM     26  C   UNL     1       2.417   3.945   0.471  0.00  0.00    +0.044 C 
ATOM     27  C   UNL     1      -2.456   0.959  -0.454  0.00  0.00    +0.044 C 
ENDBRANCH  17  23
ENDBRANCH  16  17
ENDBRANCH  15  16
ENDBRANCH   1  15
TORSDOF 6
