REMARK  Name = ZINC02127121
REMARK  7 active torsions:
REMARK  status: ('A' for Active; 'I' for Inactive)
REMARK    1  A    between atoms: C_1  and  C_2
REMARK    2  A    between atoms: C_2  and  C_3
REMARK    3  A    between atoms: C_2  and  C_4
REMARK    4  A    between atoms: C_4  and  C_5
REMARK    5  A    between atoms: C_5  and  N_6
REMARK    6  A    between atoms: C_12  and  C_28
REMARK    7  A    between atoms: C_24  and  C_27
REMARK                            x       y       z     vdW  Elec       q    Type
REMARK                         _______ _______ _______ _____ _____    ______ ____
ROOT
ATOM      1  N   UNL     1       1.356   2.033   0.000  0.00  0.00    -0.291 N 
ATOM      2  C   UNL     1       1.987   2.277  -1.286  0.00  0.00    +0.203 C 
ATOM      3  C   UNL     1       3.424   2.662  -1.145  0.00  0.00    +0.234 C 
ATOM      4  O   UNL     1       4.062   2.855  -2.158  0.00  0.00    -0.274 OA
ATOM      5  N   UNL     1       4.051   2.807   0.025  0.00  0.00    -0.280 N 
ATOM      6  C   UNL     1       5.513   3.006   0.040  0.00  0.00    +0.122 C 
ATOM      7  C   UNL     1       6.169   1.799   0.723  0.00  0.00    +0.069 C 
ATOM      8  C   UNL     1       5.405   1.467   1.978  0.00  0.00    -0.008 A 
ATOM      9  C   UNL     1       5.831   0.663   3.105  0.00  0.00    +0.004 A 
ATOM     10  C   UNL     1       7.018  -0.022   3.386  0.00  0.00    +0.010 A 
ATOM     11  C   UNL     1       7.076  -0.700   4.578  0.00  0.00    +0.001 A 
ATOM     12  C   UNL     1       6.016  -0.712   5.471  0.00  0.00    +0.002 A 
ATOM     13  C   UNL     1       4.831  -0.042   5.219  0.00  0.00    +0.026 A 
ATOM     14  C   UNL     1       4.744   0.655   4.016  0.00  0.00    +0.047 A 
ATOM     15  N   UNL     1       3.746   1.406   3.464  0.00  0.00    -0.356 N 
ATOM     16  H   UNL     1       2.882   1.573   3.872  0.00  0.00    +0.166 HD
ATOM     17  C   UNL     1       4.149   1.888   2.247  0.00  0.00    +0.054 A 
ATOM     18  C   UNL     1       3.351   2.761   1.308  0.00  0.00    +0.151 C 
ATOM     19  C   UNL     1       1.955   2.249   1.171  0.00  0.00    +0.245 C 
ATOM     20  O   UNL     1       1.332   2.012   2.184  0.00  0.00    -0.273 OA
ATOM     21  C   UNL     1       3.284   4.176   1.887  0.00  0.00    +0.048 C 
ENDROOT
BRANCH   7  22
ATOM     22  C   UNL     1       7.595   2.135   1.075  0.00  0.00    -0.038 A 
ATOM     23  C   UNL     1       7.867   3.198   1.917  0.00  0.00    +0.005 A 
ATOM     24  C   UNL     1       9.175   3.503   2.244  0.00  0.00    +0.015 A 
ATOM     25  C   UNL     1      10.212   2.752   1.721  0.00  0.00    +0.018 A 
ATOM     26  C   UNL     1       9.940   1.692   0.875  0.00  0.00    +0.015 A 
ATOM     27  C   UNL     1       8.631   1.384   0.552  0.00  0.00    +0.005 A 
ATOM     28 BR   UNL     1      12.002   3.173   2.163  0.00  0.00    -0.050 Br
ENDBRANCH   7  22
BRANCH   1  29
ATOM     29  C   UNL     1      -0.019   1.526   0.010  0.00  0.00    +0.108 C 
BRANCH  29  30
ATOM     30  C   UNL     1       0.002  -0.004   0.002  0.00  0.00    +0.022 C 
BRANCH  30  32
ATOM     31  C   UNL     1      -1.416  -2.058  -0.121  0.00  0.00    +0.007 C 
ATOM     32  C   UNL     1      -1.433  -0.534   0.013  0.00  0.00    -0.016 C 
ATOM     33  C   UNL     1      -2.110  -0.145   1.329  0.00  0.00    +0.007 C 
ENDBRANCH  30  32
ENDBRANCH  29  30
ENDBRANCH   1  29
TORSDOF 4
