REMARK  Name = ZINC09251203
REMARK  5 active torsions:
REMARK  status: ('A' for Active; 'I' for Inactive)
REMARK    1  A    between atoms: C_7  and  N_25
REMARK    2  A    between atoms: C_8  and  C_10
REMARK    3  A    between atoms: N_15  and  C_18
REMARK    4  A    between atoms: C_26  and  C_28
REMARK    5  A    between atoms: C_30  and  C_33
REMARK                            x       y       z     vdW  Elec       q    Type
REMARK                         _______ _______ _______ _____ _____    ______ ____
ROOT
ATOM      1  C   UNL     1      -5.367   3.738   0.939  0.00  0.00    +0.001 A 
ATOM      2  C   UNL     1      -4.651   4.900   0.686  0.00  0.00    +0.004 A 
ATOM      3  C   UNL     1      -3.336   4.842   0.279  0.00  0.00    +0.047 A 
ATOM      4  C   UNL     1      -2.714   3.609   0.119  0.00  0.00    +0.138 A 
ATOM      5  C   UNL     1      -3.444   2.436   0.376  0.00  0.00    +0.042 A 
ATOM      6  C   UNL     1      -4.775   2.515   0.787  0.00  0.00    +0.013 A 
ATOM      7  C   UNL     1      -2.519   1.325   0.119  0.00  0.00    +0.092 A 
ATOM      8  C   UNL     1      -1.339   1.902  -0.262  0.00  0.00    +0.212 A 
ATOM      9  O   UNL     1      -1.470   3.247  -0.252  0.00  0.00    -0.448 OA
ENDROOT
BRANCH   8  10
ATOM     10  C   UNL     1      -0.122   1.175  -0.620  0.00  0.00    +0.284 C 
ATOM     11  O   UNL     1       0.652   0.818   0.250  0.00  0.00    -0.267 OA
ATOM     12  N   UNL     1       0.141   0.896  -1.912  0.00  0.00    -0.292 N 
ATOM     13  C   UNL     1      -0.829   1.223  -2.968  0.00  0.00    +0.127 C 
ATOM     14  C   UNL     1      -0.099   2.012  -4.066  0.00  0.00    +0.124 C 
ATOM     15  N   UNL     1       1.072   1.248  -4.515  0.00  0.00    -0.325 N 
ATOM     16  C   UNL     1       2.043   1.073  -3.426  0.00  0.00    +0.124 C 
ATOM     17  C   UNL     1       1.404   0.251  -2.303  0.00  0.00    +0.127 C 
BRANCH  15  18
ATOM     18  C   UNL     1       1.669   1.852  -5.626  0.00  0.00    +0.065 A 
ATOM     19  C   UNL     1       2.743   1.240  -6.257  0.00  0.00    +0.026 A 
ATOM     20  C   UNL     1       3.328   1.837  -7.357  0.00  0.00    +0.002 A 
ATOM     21  C   UNL     1       2.850   3.047  -7.826  0.00  0.00    +0.003 A 
ATOM     22  C   UNL     1       1.783   3.662  -7.198  0.00  0.00    +0.040 A 
ATOM     23  C   UNL     1       1.190   3.069  -6.099  0.00  0.00    +0.144 A 
ATOM     24  F   UNL     1       0.148   3.671  -5.485  0.00  0.00    -0.204 F 
ENDBRANCH  15  18
ENDBRANCH   8  10
BRANCH   7  25
ATOM     25  N   UNL     1      -2.788  -0.033   0.238  0.00  0.00    -0.276 N 
ATOM     26  C   UNL     1      -4.012  -0.507  -0.066  0.00  0.00    +0.270 C 
ATOM     27  O   UNL     1      -4.908   0.262  -0.351  0.00  0.00    -0.268 OA
ATOM     28  H   UNL     1      -2.094  -0.639   0.541  0.00  0.00    +0.155 HD
BRANCH  26  29
ATOM     29  C   UNL     1      -4.265  -1.968  -0.054  0.00  0.00    +0.169 A 
ATOM     30  C   UNL     1      -5.489  -2.621  -0.343  0.00  0.00    +0.086 A 
ATOM     31  C   UNL     1      -5.193  -3.952  -0.196  0.00  0.00    +0.174 A 
ATOM     32  O   UNL     1      -3.897  -4.013   0.159  0.00  0.00    -0.353 OA
ATOM     33  N   UNL     1      -3.401  -2.913   0.232  0.00  0.00    -0.073 NA
BRANCH  31  34
ATOM     34  C   UNL     1      -6.112  -5.085  -0.382  0.00  0.00    +0.057 A 
ATOM     35  C   UNL     1      -5.864  -6.439  -0.245  0.00  0.00    +0.019 A 
ATOM     36  C   UNL     1      -6.897  -7.318  -0.471  0.00  0.00    +0.008 A 
ATOM     37  C   UNL     1      -8.116  -6.835  -0.829  0.00  0.00    +0.046 A 
ATOM     38  S   UNL     1      -7.834  -5.073  -0.850  0.00  0.00    -0.093 S 
ENDBRANCH  31  34
ENDBRANCH  26  29
ENDBRANCH   7  25
TORSDOF 5
