REMARK  Name = ZINC63514187
REMARK  12 active torsions:
REMARK  status: ('A' for Active; 'I' for Inactive)
REMARK    1  A    between atoms: C_1  and  C_2
REMARK    2  A    between atoms: C_4  and  C_17
REMARK    3  A    between atoms: C_7  and  O_12
REMARK    4  A    between atoms: O_12  and  C_13
REMARK    5  A    between atoms: C_17  and  C_18
REMARK    6  A    between atoms: C_18  and  N_19
REMARK    7  A    between atoms: N_19  and  S_20
REMARK    8  A    between atoms: S_20  and  C_23
REMARK    9  A    between atoms: C_26  and  C_29
REMARK   10  A    between atoms: C_29  and  C_30
REMARK   11  A    between atoms: C_29  and  C_31
REMARK   12  A    between atoms: C_29  and  C_32
REMARK                            x       y       z     vdW  Elec       q    Type
REMARK                         _______ _______ _______ _____ _____    ______ ____
ROOT
ATOM      1  C   UNL     1       0.352  -0.269  -2.664  0.00  0.00    +0.050 C 
ENDROOT
BRANCH   1   4
ATOM      2  C   UNL     1      -0.019   1.526   0.010  0.00  0.00    +0.035 C 
ATOM      3  C   UNL     1       0.002  -0.004   0.002  0.00  0.00    +0.103 C 
ATOM      4  C   UNL     1       0.729  -0.509  -1.224  0.00  0.00    -0.037 C 
ATOM      5  C   UNL     1       1.785  -1.220  -0.768  0.00  0.00    +0.003 A 
ATOM      6  C   UNL     1       2.858  -1.954  -1.447  0.00  0.00    +0.056 A 
ATOM      7  C   UNL     1       3.803  -2.586  -0.711  0.00  0.00    +0.131 A 
ATOM      8  C   UNL     1       3.796  -2.567   0.695  0.00  0.00    +0.048 A 
ATOM      9  C   UNL     1       2.851  -1.919   1.409  0.00  0.00    +0.029 A 
ATOM     10  C   UNL     1       1.779  -1.200   0.713  0.00  0.00    +0.043 A 
ATOM     11  N   UNL     1       0.758  -0.506   1.155  0.00  0.00    -0.378 N 
ATOM     12  H   UNL     1       0.540  -0.349   2.087  0.00  0.00    +0.160 HD
BRANCH   7  13
ATOM     13  O   UNL     1       4.792  -3.263  -1.353  0.00  0.00    -0.406 OA
BRANCH  13  14
ATOM     14  C   UNL     1       5.767  -3.915  -0.537  0.00  0.00    +0.575 C 
ATOM     15  F   UNL     1       5.136  -4.859   0.280  0.00  0.00    -0.133 F 
ATOM     16  F   UNL     1       6.704  -4.558  -1.354  0.00  0.00    -0.133 F 
ATOM     17  F   UNL     1       6.417  -2.968   0.261  0.00  0.00    -0.133 F 
ENDBRANCH  13  14
ENDBRANCH   7  13
ENDBRANCH   1   4
BRANCH   1  18
ATOM     18  C   UNL     1       1.363  -0.963  -3.578  0.00  0.00    +0.110 C 
BRANCH  18  19
ATOM     19  N   UNL     1       0.997  -0.729  -4.977  0.00  0.00    -0.190 NA
ATOM     20  H   UNL     1       0.113  -0.396  -5.198  0.00  0.00    +0.148 HD
BRANCH  19  21
ATOM     21  S   UNL     1       2.092  -1.035  -6.182  0.00  0.00    +0.058 S 
ATOM     22  O   UNL     1       1.438  -0.740  -7.409  0.00  0.00    -0.153 OA
ATOM     23  O   UNL     1       3.306  -0.406  -5.796  0.00  0.00    -0.153 OA
BRANCH  21  24
ATOM     24  C   UNL     1       2.399  -2.770  -6.179  0.00  0.00    +0.105 A 
ATOM     25  C   UNL     1       3.414  -3.291  -5.399  0.00  0.00    +0.029 A 
ATOM     26  C   UNL     1       3.655  -4.652  -5.397  0.00  0.00    +0.006 A 
ATOM     27  C   UNL     1       2.881  -5.492  -6.175  0.00  0.00    -0.042 A 
ATOM     28  C   UNL     1       1.865  -4.971  -6.955  0.00  0.00    +0.006 A 
ATOM     29  C   UNL     1       1.621  -3.610  -6.954  0.00  0.00    +0.029 A 
BRANCH  27  30
ATOM     30  C   UNL     1       3.144  -6.976  -6.174  0.00  0.00    -0.013 C 
ATOM     31  C   UNL     1       2.972  -7.523  -4.755  0.00  0.00    +0.015 C 
ATOM     32  C   UNL     1       2.155  -7.670  -7.112  0.00  0.00    +0.015 C 
ATOM     33  C   UNL     1       4.573  -7.241  -6.652  0.00  0.00    +0.015 C 
ENDBRANCH  27  30
ENDBRANCH  21  24
ENDBRANCH  19  21
ENDBRANCH  18  19
ENDBRANCH   1  18
TORSDOF 8
