REMARK  Name = ZINC66149418
REMARK  7 active torsions:
REMARK  status: ('A' for Active; 'I' for Inactive)
REMARK    1  A    between atoms: C_1  and  C_2
REMARK    2  A    between atoms: N_8  and  C_9
REMARK    3  A    between atoms: C_9  and  C_10
REMARK    4  A    between atoms: C_10  and  C_11
REMARK    5  A    between atoms: C_11  and  N_12
REMARK    6  A    between atoms: C_18  and  N_21
REMARK    7  A    between atoms: C_22  and  C_24
REMARK                            x       y       z     vdW  Elec       q    Type
REMARK                         _______ _______ _______ _____ _____    ______ ____
ROOT
ATOM      1  N   UNL     1       0.982  -0.177   6.069  0.00  0.00    -0.299 N 
ATOM      2  C   UNL     1       0.579   0.209   7.295  0.00  0.00    +0.302 C 
ATOM      3  O   UNL     1      -0.376   0.953   7.415  0.00  0.00    -0.253 OA
ATOM      4  N   UNL     1       1.234  -0.228   8.389  0.00  0.00    -0.286 N 
ATOM      5  C   UNL     1       2.457  -1.031   8.258  0.00  0.00    +0.111 C 
ATOM      6  C   UNL     1       2.288  -2.322   9.065  0.00  0.00    +0.041 C 
ATOM      7  C   UNL     1       1.918  -1.972  10.508  0.00  0.00    +0.076 C 
ATOM      8  C   UNL     1       0.588  -1.214  10.526  0.00  0.00    +0.041 C 
ATOM      9  C   UNL     1       0.741   0.094   9.735  0.00  0.00    +0.111 C 
ATOM     10  H   UNL     1       1.787  -0.710   5.968  0.00  0.00    +0.150 HD
ENDROOT
BRANCH   7  11
ATOM     11  N   UNL     1       1.788  -3.204  11.291  0.00  0.00    -0.312 N 
ATOM     12  C   UNL     1       1.968  -3.176  12.626  0.00  0.00    +0.216 C 
ATOM     13  O   UNL     1       2.238  -2.131  13.180  0.00  0.00    -0.276 OA
ATOM     14  H   UNL     1       1.572  -4.040  10.848  0.00  0.00    +0.149 HD
BRANCH  12  15
ATOM     15  C   UNL     1       1.835  -4.442  13.431  0.00  0.00    +0.075 C 
ATOM     16  C   UNL     1       0.381  -4.797  13.786  0.00  0.00    +0.013 C 
ATOM     17  C   UNL     1       0.903  -5.217  15.170  0.00  0.00    +0.001 C 
ATOM     18  C   UNL     1       2.070  -4.242  14.938  0.00  0.00    +0.013 C 
ENDBRANCH  12  15
ENDBRANCH   7  11
BRANCH   1  19
ATOM     19  C   UNL     1       0.206   0.207   4.887  0.00  0.00    +0.104 C 
BRANCH  19  20
ATOM     20  C   UNL     1       0.875  -0.356   3.632  0.00  0.00    +0.000 C 
BRANCH  20  21
ATOM     21  C   UNL     1       0.065   0.046   2.398  0.00  0.00    -0.077 C 
BRANCH  21  28
ATOM     22  C   UNL     1      -0.024   1.520   0.010  0.00  0.00    -0.013 C 
ATOM     23  C   UNL     1      -0.002  -0.010   0.003  0.00  0.00    -0.072 C 
ATOM     24  C   UNL     1       0.712  -0.503  -1.257  0.00  0.00    -0.016 C 
ATOM     25  C   UNL     1       0.731  -2.035  -1.260  0.00  0.00    -0.003 C 
ATOM     26  C   UNL     1       1.407  -2.530   0.022  0.00  0.00    -0.019 C 
ATOM     27  C   UNL     1       0.667  -1.961   1.234  0.00  0.00    -0.078 C 
ATOM     28  N   UNL     1       0.707  -0.494   1.193  0.00  0.00    +0.381 N 
ATOM     29  H   UNL     1       1.667  -0.186   1.159  0.00  0.00    -0.081 HD
ENDBRANCH  21  28
ENDBRANCH  20  21
ENDBRANCH  19  20
ENDBRANCH   1  19
TORSDOF 6
