REMARK  Name = ZINC20352513
REMARK  11 active torsions:
REMARK  status: ('A' for Active; 'I' for Inactive)
REMARK    1  A    between atoms: C_1  and  C_2
REMARK    2  A    between atoms: C_7  and  N_8
REMARK    3  A    between atoms: C_9  and  C_11
REMARK    4  A    between atoms: C_11  and  C_12
REMARK    5  A    between atoms: C_12  and  C_13
REMARK    6  A    between atoms: N_15  and  N_16
REMARK    7  A    between atoms: C_17  and  C_18
REMARK    8  A    between atoms: C_21  and  O_26
REMARK    9  A    between atoms: C_23  and  O_24
REMARK   10  A    between atoms: O_24  and  C_25
REMARK   11  A    between atoms: O_26  and  C_27
REMARK                            x       y       z     vdW  Elec       q    Type
REMARK                         _______ _______ _______ _____ _____    ______ ____
ROOT
ATOM      1  C   UNL     1       4.250  -1.803   7.439  0.00  0.00    +0.233 C 
ATOM      2  O   UNL     1       4.780  -2.160   6.408  0.00  0.00    -0.274 OA
ATOM      3  N   UNL     1       3.141  -1.038   7.397  0.00  0.00    -0.207 N 
ATOM      4  H   UNL     1       2.660  -0.714   8.332  0.00  0.00    +0.177 HD
ENDROOT
BRANCH   3   5
ATOM      5  N   UNL     1       2.602  -0.654   6.162  0.00  0.00    -0.188 NA
ATOM      6  C   UNL     1       1.534   0.084   6.121  0.00  0.00    +0.142 C 
BRANCH   6   7
ATOM      7  C   UNL     1       0.967   0.487   4.823  0.00  0.00    +0.037 A 
ATOM      8  C   UNL     1      -0.182   1.281   4.776  0.00  0.00    +0.032 A 
ATOM      9  C   UNL     1      -0.710   1.656   3.559  0.00  0.00    +0.060 A 
ATOM     10  C   UNL     1      -0.103   1.247   2.377  0.00  0.00    +0.137 A 
ATOM     11  C   UNL     1       1.035   0.454   2.414  0.00  0.00    +0.093 A 
ATOM     12  C   UNL     1       1.577   0.076   3.630  0.00  0.00    +0.132 A 
ATOM     13 BR   UNL     1      -2.265   2.730   3.497  0.00  0.00    -0.046 Br
BRANCH  12  14
ATOM     14  O   UNL     1       2.694  -0.696   3.667  0.00  0.00    -0.494 OA
ATOM     15  C   UNL     1       3.261  -1.077   2.412  0.00  0.00    +0.277 C 
ENDBRANCH  12  14
BRANCH  10  16
ATOM     16  O   UNL     1      -0.629   1.620   1.182  0.00  0.00    -0.494 OA
ATOM     17  C   UNL     1       0.044   1.165   0.006  0.00  0.00    +0.277 C 
ENDBRANCH  10  16
ENDBRANCH   6   7
ENDBRANCH   3   5
BRANCH   1  18
ATOM     18  C   UNL     1       4.830  -2.216   8.767  0.00  0.00    +0.107 C 
BRANCH  18  19
ATOM     19  C   UNL     1       6.076  -3.074   8.535  0.00  0.00    +0.105 C 
BRANCH  19  21
ATOM     20  N   UNL     1       7.764  -4.252   9.905  0.00  0.00    -0.285 N 
ATOM     21  C   UNL     1       6.656  -3.487   9.863  0.00  0.00    +0.218 C 
ATOM     22  O   UNL     1       6.126  -3.130  10.894  0.00  0.00    -0.275 OA
ATOM     23  H   UNL     1       8.193  -4.652   8.974  0.00  0.00    +0.155 HD
BRANCH  20  30
ATOM     24  C   UNL     1       9.330  -6.619  10.111  0.00  0.00    +0.046 C 
ATOM     25  C   UNL     1       9.142  -5.685  11.278  0.00  0.00    -0.028 A 
ATOM     26  C   UNL     1       9.743  -5.963  12.490  0.00  0.00    +0.025 A 
ATOM     27  C   UNL     1       9.566  -5.109  13.564  0.00  0.00    +0.041 A 
ATOM     28  C   UNL     1       8.793  -3.970  13.425  0.00  0.00    +0.022 A 
ATOM     29  C   UNL     1       8.194  -3.683  12.213  0.00  0.00    +0.025 A 
ATOM     30  C   UNL     1       8.370  -4.540  11.134  0.00  0.00    +0.036 A 
ATOM     31 CL   UNL     1      10.317  -5.465  15.088  0.00  0.00    -0.084 Cl
ENDBRANCH  20  30
ENDBRANCH  19  21
ENDBRANCH  18  19
ENDBRANCH   1  18
TORSDOF 8
