REMARK  Name = ZINC17095990
REMARK  7 active torsions:
REMARK  status: ('A' for Active; 'I' for Inactive)
REMARK    1  A    between atoms: C_1  and  C_2
REMARK    2  A    between atoms: C_2  and  C_3
REMARK    3  A    between atoms: C_2  and  C_4
REMARK    4  A    between atoms: C_7  and  C_10
REMARK    5  A    between atoms: C_12  and  C_20
REMARK    6  A    between atoms: N_22  and  N_23
REMARK    7  A    between atoms: C_30  and  C_32
REMARK                            x       y       z     vdW  Elec       q    Type
REMARK                         _______ _______ _______ _____ _____    ______ ____
ROOT
ATOM      1  C   UNL     1      -2.667   2.939   4.755  0.00  0.00    +0.072 A 
ATOM      2  C   UNL     1      -2.799   4.320   4.962  0.00  0.00    +0.042 A 
ATOM      3  C   UNL     1      -3.450   4.780   6.098  0.00  0.00    +0.050 A 
ATOM      4  C   UNL     1      -3.957   3.776   7.034  0.00  0.00    +0.013 A 
ATOM      5  C   UNL     1      -4.622   4.141   8.210  0.00  0.00    +0.011 A 
ATOM      6  C   UNL     1      -5.078   3.173   9.054  0.00  0.00    +0.001 A 
ATOM      7  C   UNL     1      -4.891   1.824   8.761  0.00  0.00    +0.002 A 
ATOM      8  C   UNL     1      -4.249   1.434   7.626  0.00  0.00    +0.028 A 
ATOM      9  C   UNL     1      -3.764   2.404   6.730  0.00  0.00    +0.072 A 
ATOM     10  N   UNL     1      -3.131   2.052   5.610  0.00  0.00    -0.247 NA
ENDROOT
BRANCH   1  14
ATOM     11  C   UNL     1      -0.681   1.569   1.254  0.00  0.00    -0.045 A 
ATOM     12  C   UNL     1      -0.824   2.927   1.479  0.00  0.00    +0.004 A 
ATOM     13  C   UNL     1      -1.472   3.377   2.611  0.00  0.00    +0.010 A 
ATOM     14  C   UNL     1      -1.974   2.461   3.534  0.00  0.00    +0.000 A 
ATOM     15  C   UNL     1      -1.823   1.095   3.304  0.00  0.00    +0.010 A 
ATOM     16  C   UNL     1      -1.177   0.656   2.166  0.00  0.00    +0.004 A 
BRANCH  11  18
ATOM     17  C   UNL     1       1.456   1.621  -0.003  0.00  0.00    +0.012 C 
ATOM     18  C   UNL     1       0.024   1.084   0.013  0.00  0.00    +0.013 C 
ATOM     19  C   UNL     1      -0.722   1.584  -1.225  0.00  0.00    +0.012 C 
ENDBRANCH  11  18
ENDBRANCH   1  14
BRANCH   3  20
ATOM     20  C   UNL     1      -3.618   6.226   6.356  0.00  0.00    +0.264 C 
ATOM     21  O   UNL     1      -4.277   6.601   7.307  0.00  0.00    -0.268 OA
ATOM     22  N   UNL     1      -3.041   7.128   5.538  0.00  0.00    -0.203 N 
ATOM     23  H   UNL     1      -2.516   6.829   4.780  0.00  0.00    +0.178 HD
BRANCH  22  24
ATOM     24  N   UNL     1      -3.201   8.498   5.783  0.00  0.00    -0.189 NA
ATOM     25  C   UNL     1      -2.740   9.355   4.951  0.00  0.00    +0.040 C 
ATOM     26  C   UNL     1      -2.126   8.911   3.641  0.00  0.00    +0.071 C 
ATOM     27  C   UNL     1      -2.823   9.675   2.501  0.00  0.00    +0.113 C 
ATOM     28  N   UNL     1      -2.831  11.106   2.830  0.00  0.00    -0.301 N 
ATOM     29  C   UNL     1      -3.463  11.551   4.078  0.00  0.00    +0.113 C 
ATOM     30  C   UNL     1      -2.789  10.836   5.256  0.00  0.00    +0.071 C 
ATOM     31  C   UNL     1      -2.265  12.000   1.995  0.00  0.00    +0.212 C 
ATOM     32  O   UNL     1      -2.364  13.188   2.222  0.00  0.00    -0.276 OA
ATOM     33  C   UNL     1      -1.511  11.525   0.780  0.00  0.00    +0.109 C 
ENDBRANCH  22  24
ENDBRANCH   3  20
TORSDOF 4
