REMARK  Name = ZINC35329864
REMARK  8 active torsions:
REMARK  status: ('A' for Active; 'I' for Inactive)
REMARK    1  A    between atoms: C_1  and  C_2
REMARK    2  A    between atoms: C_2  and  C_3
REMARK    3  A    between atoms: C_2  and  C_4
REMARK    4  A    between atoms: C_7  and  O_10
REMARK    5  A    between atoms: O_10  and  C_11
REMARK    6  A    between atoms: C_14  and  S_18
REMARK    7  A    between atoms: C_16  and  N_17
REMARK    8  A    between atoms: S_18  and  C_21
REMARK                            x       y       z     vdW  Elec       q    Type
REMARK                         _______ _______ _______ _____ _____    ______ ____
ROOT
ATOM      1  C   UNL     1      -5.713  -2.651  -1.043  0.00  0.00    +0.149 A 
ATOM      2  C   UNL     1      -4.834  -2.951  -2.070  0.00  0.00    +0.050 A 
ATOM      3  C   UNL     1      -5.275  -3.659  -3.173  0.00  0.00    +0.030 A 
ATOM      4  C   UNL     1      -6.593  -4.068  -3.255  0.00  0.00    +0.090 A 
ATOM      5  C   UNL     1      -7.477  -3.772  -2.235  0.00  0.00    +0.053 A 
ATOM      6  C   UNL     1      -7.040  -3.068  -1.122  0.00  0.00    +0.069 A 
ENDROOT
BRANCH   4   7
ATOM      7  S   UNL     1      -7.147  -4.970  -4.664  0.00  0.00    -0.006 S 
ATOM      8  O   UNL     1      -8.539  -4.696  -4.745  0.00  0.00    -0.170 OA
ATOM      9  O   UNL     1      -6.270  -4.579  -5.712  0.00  0.00    -0.170 OA
ATOM     10  C   UNL     1      -6.876  -6.712  -4.239  0.00  0.00    +0.200 C 
ENDBRANCH   4   7
BRANCH   6  11
ATOM     11  N   UNL     1      -7.932  -2.773  -0.084  0.00  0.00    -0.355 N 
ATOM     12  H   UNL     1      -7.626  -2.277   0.691  0.00  0.00    +0.142 HD
ATOM     13  H   UNL     1      -8.855  -3.065  -0.141  0.00  0.00    +0.142 HD
ENDBRANCH   6  11
BRANCH   1  14
ATOM     14  O   UNL     1      -5.282  -1.955   0.043  0.00  0.00    -0.454 OA
BRANCH  14  18
ATOM     15  C   UNL     1      -1.437  -0.460  -0.021  0.00  0.00    -0.045 A 
ATOM     16  C   UNL     1      -1.769  -1.473   0.860  0.00  0.00    +0.007 A 
ATOM     17  C   UNL     1      -3.056  -1.975   0.883  0.00  0.00    +0.046 A 
ATOM     18  C   UNL     1      -4.015  -1.462   0.022  0.00  0.00    +0.129 A 
ATOM     19  C   UNL     1      -3.679  -0.445  -0.861  0.00  0.00    +0.046 A 
ATOM     20  C   UNL     1      -2.393   0.057  -0.876  0.00  0.00    +0.007 A 
BRANCH  15  22
ATOM     21  C   UNL     1       0.316   0.656   1.332  0.00  0.00    +0.012 C 
ATOM     22  C   UNL     1      -0.033   0.086  -0.045  0.00  0.00    +0.013 C 
ATOM     23  C   UNL     1       0.945  -1.038  -0.394  0.00  0.00    +0.012 C 
ENDBRANCH  15  22
ENDBRANCH  14  18
ENDBRANCH   1  14
TORSDOF 5
