REMARK  Name = ZINC36476352
REMARK  6 active torsions:
REMARK  status: ('A' for Active; 'I' for Inactive)
REMARK    1  A    between atoms: C_4  and  C_7
REMARK    2  A    between atoms: C_7  and  C_8
REMARK    3  A    between atoms: C_10  and  C_18
REMARK    4  A    between atoms: C_11  and  O_17
REMARK    5  A    between atoms: C_12  and  N_14
REMARK    6  A    between atoms: N_19  and  N_20
REMARK                            x       y       z     vdW  Elec       q    Type
REMARK                         _______ _______ _______ _____ _____    ______ ____
ROOT
ATOM      1  C   UNL     1       4.164  -0.959   1.377  0.00  0.00    -0.040 A 
ATOM      2  C   UNL     1       4.950  -0.028   2.023  0.00  0.00    +0.017 A 
ATOM      3  C   UNL     1       5.370  -0.261   3.334  0.00  0.00    +0.039 A 
ATOM      4  C   UNL     1       4.989  -1.442   3.985  0.00  0.00    +0.156 A 
ATOM      5  C   UNL     1       4.200  -2.367   3.322  0.00  0.00    +0.168 A 
ATOM      6  C   UNL     1       3.786  -2.122   2.025  0.00  0.00    +0.040 A 
ENDROOT
BRANCH   5   7
ATOM      7  N   UNL     1       3.794  -3.616   4.004  0.00  0.00    +0.060 N 
ATOM      8  O   UNL     1       3.105  -4.424   3.425  0.00  0.00    -0.126 OA
ATOM      9  O   UNL     1       4.151  -3.829   5.139  0.00  0.00    -0.126 OA
ENDBRANCH   5   7
BRANCH   4  10
ATOM     10  O   UNL     1       5.392  -1.680   5.260  0.00  0.00    -0.504 OA
ATOM     11  H   UNL     1       4.783  -1.347   5.933  0.00  0.00    +0.292 HD
ENDBRANCH   4  10
BRANCH   3  12
ATOM     12  C   UNL     1       6.210   0.730   4.030  0.00  0.00    +0.142 C 
ATOM     13  N   UNL     1       6.599   0.510   5.250  0.00  0.00    -0.188 NA
BRANCH  13  14
ATOM     14  N   UNL     1       7.398   1.452   5.911  0.00  0.00    -0.215 N 
ATOM     15  C   UNL     1       7.811   1.218   7.207  0.00  0.00    +0.179 A 
ATOM     16  N   UNL     1       7.565   0.181   7.976  0.00  0.00    -0.224 NA
ATOM     17  C   UNL     1       8.039   0.084   9.237  0.00  0.00    +0.080 A 
ATOM     18  C   UNL     1       7.849  -0.968  10.162  0.00  0.00    +0.029 A 
ATOM     19  C   UNL     1       8.404  -0.908  11.414  0.00  0.00    +0.002 A 
ATOM     20  C   UNL     1       9.165   0.179  11.818  0.00  0.00    +0.001 A 
ATOM     21  C   UNL     1       9.371   1.227  10.938  0.00  0.00    +0.017 A 
ATOM     22  C   UNL     1       8.820   1.175   9.682  0.00  0.00    +0.041 A 
ATOM     23  S   UNL     1       8.822   2.245   8.264  0.00  0.00    -0.051 S 
ATOM     24  H   UNL     1       7.660   2.269   5.459  0.00  0.00    +0.176 HD
ENDBRANCH  13  14
ENDBRANCH   3  12
BRANCH   1  25
ATOM     25  C   UNL     1       3.711  -0.707  -0.038  0.00  0.00    +0.070 C 
BRANCH  25  29
ATOM     26  C   UNL     1      -0.017   1.378   0.010  0.00  0.00    +0.000 A 
ATOM     27  C   UNL     1       1.171   2.086   0.002  0.00  0.00    +0.000 A 
ATOM     28  C   UNL     1       2.377   1.411  -0.013  0.00  0.00    +0.004 A 
ATOM     29  C   UNL     1       2.396   0.029  -0.020  0.00  0.00    -0.043 A 
ATOM     30  C   UNL     1       1.208  -0.679  -0.012  0.00  0.00    +0.004 A 
ATOM     31  C   UNL     1       0.002  -0.004   0.002  0.00  0.00    +0.000 A 
ENDBRANCH  25  29
ENDBRANCH   1  25
TORSDOF 6
