REMARK  Name = ZINC13729738
REMARK  6 active torsions:
REMARK  status: ('A' for Active; 'I' for Inactive)
REMARK    1  A    between atoms: C_1  and  C_2
REMARK    2  A    between atoms: C_3  and  C_26
REMARK    3  A    between atoms: C_9  and  O_13
REMARK    4  A    between atoms: O_13  and  C_14
REMARK    5  A    between atoms: C_14  and  C_15
REMARK    6  A    between atoms: N_17  and  C_18
REMARK                            x       y       z     vdW  Elec       q    Type
REMARK                         _______ _______ _______ _____ _____    ______ ____
ROOT
ATOM      1  C   UNL     1       1.028  -2.226  -0.020  0.00  0.00    +0.087 C 
ATOM      2  C   UNL     1       1.128  -0.722  -0.013  0.00  0.00    +0.114 A 
ATOM      3  C   UNL     1       2.360  -0.150  -0.021  0.00  0.00    +0.067 A 
ATOM      4  C   UNL     1       2.457   1.320  -0.014  0.00  0.00    +0.200 A 
ATOM      5  O   UNL     1       3.535   1.889  -0.020  0.00  0.00    -0.286 OA
ATOM      6  C   UNL     1       1.188   2.069   0.002  0.00  0.00    +0.065 A 
ATOM      7  C   UNL     1       1.171   3.465   0.010  0.00  0.00    +0.019 A 
ATOM      8  C   UNL     1      -0.023   4.128   0.025  0.00  0.00    +0.046 A 
ATOM      9  C   UNL     1      -1.222   3.418   0.033  0.00  0.00    +0.125 A 
ATOM     10  C   UNL     1      -1.221   2.034   0.030  0.00  0.00    +0.092 A 
ATOM     11  C   UNL     1      -0.016   1.343   0.009  0.00  0.00    +0.142 A 
ATOM     12  O   UNL     1       0.002  -0.004   0.002  0.00  0.00    -0.459 OA
ENDROOT
BRANCH   3  13
ATOM     13  C   UNL     1       3.583  -0.988  -0.037  0.00  0.00    -0.011 A 
ATOM     14  C   UNL     1       3.885  -1.806   1.051  0.00  0.00    +0.010 A 
ATOM     15  C   UNL     1       5.021  -2.588   1.028  0.00  0.00    +0.020 A 
ATOM     16  C   UNL     1       5.866  -2.554  -0.067  0.00  0.00    +0.041 A 
ATOM     17  C   UNL     1       5.574  -1.739  -1.148  0.00  0.00    +0.020 A 
ATOM     18  C   UNL     1       4.437  -0.957  -1.138  0.00  0.00    +0.010 A 
ATOM     19 CL   UNL     1       7.298  -3.536  -0.086  0.00  0.00    -0.084 Cl
ENDBRANCH   3  13
BRANCH   9  20
ATOM     20  O   UNL     1      -2.401   4.090   0.047  0.00  0.00    -0.483 OA
BRANCH  20  21
ATOM     21  C   UNL     1      -2.335   5.517   0.055  0.00  0.00    +0.324 C 
BRANCH  21  22
ATOM     22  C   UNL     1      -3.730   6.085   0.071  0.00  0.00    +0.251 C 
ATOM     23  O   UNL     1      -4.688   5.341   0.076  0.00  0.00    -0.272 OA
ATOM     24  N   UNL     1      -3.915   7.420   0.081  0.00  0.00    -0.305 N 
ATOM     25  H   UNL     1      -3.149   8.016   0.077  0.00  0.00    +0.149 HD
BRANCH  24  26
ATOM     26  C   UNL     1      -5.271   7.973   0.097  0.00  0.00    +0.119 C 
ATOM     27  C   UNL     1      -5.256   9.386  -0.544  0.00  0.00    +0.197 C 
ATOM     28  S   UNL     1      -5.143  10.391   0.994  0.00  0.00    -0.008 S 
ATOM     29  O   UNL     1      -6.095  11.446   0.986  0.00  0.00    -0.170 OA
ATOM     30  O   UNL     1      -3.789  10.616   1.361  0.00  0.00    -0.170 OA
ATOM     31  C   UNL     1      -5.766   9.180   2.146  0.00  0.00    +0.132 C 
ATOM     32  C   UNL     1      -5.760   8.040   1.508  0.00  0.00    +0.015 C 
ENDBRANCH  24  26
ENDBRANCH  21  22
ENDBRANCH  20  21
ENDBRANCH   9  20
TORSDOF 5
