REMARK  Name = ZINC14159311
REMARK  8 active torsions:
REMARK  status: ('A' for Active; 'I' for Inactive)
REMARK    1  A    between atoms: C_1  and  C_2
REMARK    2  A    between atoms: C_4  and  C_33
REMARK    3  A    between atoms: C_6  and  N_8
REMARK    4  A    between atoms: N_8  and  C_9
REMARK    5  A    between atoms: C_9  and  N_11
REMARK    6  A    between atoms: N_13  and  C_14
REMARK    7  A    between atoms: C_27  and  C_32
REMARK    8  A    between atoms: C_29  and  C_31
REMARK                            x       y       z     vdW  Elec       q    Type
REMARK                         _______ _______ _______ _____ _____    ______ ____
ROOT
ATOM      1  N   UNL     1       4.390   4.159   1.093  0.00  0.00    -0.159 NA
ATOM      2  C   UNL     1       4.550   5.272   0.398  0.00  0.00    +0.200 C 
ATOM      3  N   UNL     1       5.739   5.521  -0.229  0.00  0.00    -0.326 N 
ATOM      4  N   UNL     1       3.525   6.175   0.307  0.00  0.00    -0.297 N 
ATOM      5  C   UNL     1       3.631   7.260  -0.553  0.00  0.00    +0.231 A 
ATOM      6  N   UNL     1       4.667   7.335  -1.375  0.00  0.00    -0.217 NA
ATOM      7  C   UNL     1       4.795   8.353  -2.209  0.00  0.00    +0.044 A 
ATOM      8  C   UNL     1       3.835   9.353  -2.210  0.00  0.00    +0.046 A 
ATOM      9  C   UNL     1       2.767   9.245  -1.333  0.00  0.00    +0.044 A 
ATOM     10  N   UNL     1       2.696   8.198  -0.528  0.00  0.00    -0.217 NA
ATOM     11  C   UNL     1       1.698  10.307  -1.298  0.00  0.00    +0.066 C 
ATOM     12  C   UNL     1       5.974   8.428  -3.145  0.00  0.00    +0.066 C 
ATOM     13  H   UNL     1       5.897   6.383  -0.643  0.00  0.00    +0.169 HD
ATOM     14  H   UNL     1       2.725   6.057   0.843  0.00  0.00    +0.172 HD
ENDROOT
BRANCH   3  15
ATOM     15  C   UNL     1       6.726   4.531  -0.275  0.00  0.00    +0.061 A 
ATOM     16  C   UNL     1       8.062   4.883  -0.289  0.00  0.00    +0.037 A 
ATOM     17  C   UNL     1       9.017   3.852  -0.335  0.00  0.00    +0.002 A 
ATOM     18  C   UNL     1      10.394   4.132  -0.352  0.00  0.00    +0.010 A 
ATOM     19  C   UNL     1      11.288   3.107  -0.396  0.00  0.00    +0.001 A 
ATOM     20  C   UNL     1      10.857   1.782  -0.425  0.00  0.00    +0.002 A 
ATOM     21  C   UNL     1       9.531   1.475  -0.409  0.00  0.00    +0.028 A 
ATOM     22  C   UNL     1       8.575   2.505  -0.364  0.00  0.00    +0.071 A 
ATOM     23  N   UNL     1       7.268   2.229  -0.348  0.00  0.00    -0.253 NA
ATOM     24  C   UNL     1       6.367   3.179  -0.300  0.00  0.00    +0.137 A 
ENDBRANCH   3  15
BRANCH   1  25
ATOM     25  C   UNL     1       3.187   3.850   1.597  0.00  0.00    +0.161 C 
ATOM     26  S   UNL     1       1.827   3.746   0.562  0.00  0.00    -0.016 S 
BRANCH  25  27
ATOM     27  N   UNL     1       3.047   3.622   2.918  0.00  0.00    -0.295 N 
ATOM     28  H   UNL     1       2.602   4.276   3.478  0.00  0.00    +0.154 HD
BRANCH  27  34
ATOM     29  C   UNL     1       5.508  -0.602   2.400  0.00  0.00    +0.044 C 
ATOM     30  C   UNL     1       4.739   0.375   3.251  0.00  0.00    -0.048 A 
ATOM     31  C   UNL     1       4.531   0.108   4.592  0.00  0.00    +0.006 A 
ATOM     32  C   UNL     1       3.830   1.005   5.378  0.00  0.00    -0.048 A 
ATOM     33  C   UNL     1       3.337   2.171   4.826  0.00  0.00    +0.026 A 
ATOM     34  C   UNL     1       3.545   2.442   3.480  0.00  0.00    +0.033 A 
ATOM     35  C   UNL     1       4.249   1.540   2.693  0.00  0.00    +0.026 A 
ATOM     36  C   UNL     1       3.605   0.709   6.838  0.00  0.00    +0.044 C 
ENDBRANCH  27  34
ENDBRANCH  25  27
ENDBRANCH   1  25
TORSDOF 4
