REMARK  Name = ZINC41585979
REMARK  8 active torsions:
REMARK  status: ('A' for Active; 'I' for Inactive)
REMARK    1  A    between atoms: C_1  and  C_2
REMARK    2  A    between atoms: C_2  and  O_3
REMARK    3  A    between atoms: O_3  and  C_4
REMARK    4  A    between atoms: C_9  and  O_10
REMARK    5  A    between atoms: O_10  and  C_11
REMARK    6  A    between atoms: C_20  and  O_35
REMARK    7  A    between atoms: C_21  and  C_22
REMARK    8  A    between atoms: C_22  and  N_23
REMARK                            x       y       z     vdW  Elec       q    Type
REMARK                         _______ _______ _______ _____ _____    ______ ____
ROOT
ATOM      1  C   UNL     1       2.627  -2.071   4.447  0.00  0.00    +0.210 A 
ATOM      2  C   UNL     1       2.848  -3.392   4.593  0.00  0.00    +0.245 A 
ATOM      3  O   UNL     1       3.539  -3.902   5.620  0.00  0.00    -0.459 OA
ATOM      4  C   UNL     1       4.069  -3.129   6.590  0.00  0.00    +0.147 A 
ATOM      5  C   UNL     1       3.901  -1.734   6.540  0.00  0.00    +0.068 A 
ATOM      6  C   UNL     1       3.147  -1.161   5.412  0.00  0.00    +0.235 A 
ATOM      7  O   UNL     1       2.971   0.042   5.310  0.00  0.00    -0.283 OA
ATOM      8  C   UNL     1       4.445  -0.924   7.537  0.00  0.00    +0.019 A 
ATOM      9  C   UNL     1       5.143  -1.491   8.565  0.00  0.00    +0.046 A 
ATOM     10  C   UNL     1       5.314  -2.872   8.623  0.00  0.00    +0.125 A 
ATOM     11  C   UNL     1       4.780  -3.690   7.641  0.00  0.00    +0.051 A 
ENDROOT
BRANCH  10  12
ATOM     12  O   UNL     1       6.010  -3.421   9.650  0.00  0.00    -0.506 OA
ATOM     13  H   UNL     1       5.466  -3.654  10.415  0.00  0.00    +0.292 HD
ENDBRANCH  10  12
BRANCH   1  14
ATOM     14  O   UNL     1       1.918  -1.608   3.381  0.00  0.00    -0.445 OA
BRANCH  14  20
ATOM     15  C   UNL     1      -0.002  -0.445   2.580  0.00  0.00    +0.163 A 
ATOM     16  C   UNL     1      -1.240   0.127   2.827  0.00  0.00    +0.049 A 
ATOM     17  C   UNL     1      -1.767   0.109   4.105  0.00  0.00    +0.004 A 
ATOM     18  C   UNL     1      -1.062  -0.479   5.139  0.00  0.00    +0.004 A 
ATOM     19  C   UNL     1       0.174  -1.051   4.899  0.00  0.00    +0.050 A 
ATOM     20  C   UNL     1       0.705  -1.041   3.619  0.00  0.00    +0.170 A 
BRANCH  15  21
ATOM     21  O   UNL     1       0.517  -0.428   1.323  0.00  0.00    -0.489 OA
BRANCH  21  23
ATOM     22  C   UNL     1       0.477   0.122  -1.030  0.00  0.00    +0.048 C 
ATOM     23  C   UNL     1      -0.265   0.201   0.306  0.00  0.00    +0.226 C 
ENDBRANCH  21  23
ENDBRANCH  15  21
ENDBRANCH  14  20
ENDBRANCH   1  14
BRANCH  11  24
ATOM     24  C   UNL     1       4.971  -5.183   7.714  0.00  0.00    +0.127 C 
BRANCH  24  25
ATOM     25  N   UNL     1       6.204  -5.554   7.006  0.00  0.00    -0.295 NA
ATOM     26  C   UNL     1       6.088  -5.279   5.568  0.00  0.00    +0.103 C 
ATOM     27  C   UNL     1       7.447  -5.507   4.896  0.00  0.00    +0.122 C 
ATOM     28  N   UNL     1       7.915  -6.859   5.235  0.00  0.00    -0.314 N 
ATOM     29  C   UNL     1       7.928  -7.257   6.651  0.00  0.00    +0.122 C 
ATOM     30  C   UNL     1       6.551  -6.960   7.253  0.00  0.00    +0.103 C 
ATOM     31  C   UNL     1       8.333  -7.739   4.244  0.00  0.00    +0.099 A 
ATOM     32  C   UNL     1       8.434  -7.297   2.928  0.00  0.00    +0.042 A 
ATOM     33  C   UNL     1       8.851  -8.183   1.951  0.00  0.00    +0.005 A 
ATOM     34  C   UNL     1       9.155  -9.486   2.324  0.00  0.00    +0.018 A 
ATOM     35  C   UNL     1       9.032  -9.856   3.648  0.00  0.00    +0.084 A 
ATOM     36  N   UNL     1       8.637  -8.988   4.560  0.00  0.00    -0.350 N 
ATOM     37  H   UNL     1       8.563  -9.273   5.484  0.00  0.00    +0.166 HD
ENDBRANCH  24  25
ENDBRANCH  11  24
TORSDOF 7
