REMARK  Name = ZINC15301600
REMARK  7 active torsions:
REMARK  status: ('A' for Active; 'I' for Inactive)
REMARK    1  A    between atoms: C_1  and  C_2
REMARK    2  A    between atoms: C_2  and  C_3
REMARK    3  A    between atoms: C_2  and  C_4
REMARK    4  A    between atoms: C_2  and  C_5
REMARK    5  A    between atoms: C_10  and  N_11
REMARK    6  A    between atoms: C_12  and  C_14
REMARK    7  A    between atoms: C_14  and  N_15
REMARK                            x       y       z     vdW  Elec       q    Type
REMARK                         _______ _______ _______ _____ _____    ______ ____
ROOT
ATOM      1  N   UNL     1       0.187  -2.720  -0.756  0.00  0.00    -0.284 N 
ATOM      2  C   UNL     1       0.165  -4.016  -1.128  0.00  0.00    +0.235 C 
ATOM      3  O   UNL     1       0.714  -4.362  -2.153  0.00  0.00    -0.274 OA
ATOM      4  H   UNL     1      -0.218  -2.450   0.083  0.00  0.00    +0.155 HD
ENDROOT
BRANCH   1  10
ATOM      5  C   UNL     1       0.408  -0.434  -1.501  0.00  0.00    -0.021 A 
ATOM      6  C   UNL     1       1.011   0.507  -2.312  0.00  0.00    +0.006 A 
ATOM      7  C   UNL     1       1.993   0.123  -3.207  0.00  0.00    +0.000 A 
ATOM      8  C   UNL     1       2.374  -1.204  -3.292  0.00  0.00    +0.002 A 
ATOM      9  C   UNL     1       1.775  -2.149  -2.484  0.00  0.00    +0.023 A 
ATOM     10  C   UNL     1       0.792  -1.766  -1.581  0.00  0.00    +0.037 A 
BRANCH   5  12
ATOM     11  C   UNL     1      -1.018   1.455  -0.760  0.00  0.00    +0.015 C 
ATOM     12  C   UNL     1      -0.662  -0.014  -0.526  0.00  0.00    -0.011 C 
ATOM     13  C   UNL     1      -0.148  -0.193   0.904  0.00  0.00    +0.015 C 
ATOM     14  C   UNL     1      -1.907  -0.879  -0.732  0.00  0.00    +0.015 C 
ENDBRANCH   5  12
ENDBRANCH   1  10
BRANCH   2  15
ATOM     15  C   UNL     1      -0.542  -5.034  -0.271  0.00  0.00    +0.212 C 
BRANCH  15  16
ATOM     16  N   UNL     1      -0.422  -6.358  -0.887  0.00  0.00    -0.233 N 
ATOM     17  C   UNL     1      -1.324  -6.863  -1.794  0.00  0.00    +0.227 C 
ATOM     18  O   UNL     1      -2.150  -6.252  -2.437  0.00  0.00    -0.275 OA
ATOM     19  C   UNL     1      -1.057  -8.343  -1.809  0.00  0.00    +0.095 C 
ATOM     20  C   UNL     1      -1.104  -9.173  -3.097  0.00  0.00    +0.025 C 
ATOM     21  C   UNL     1      -0.170 -10.344  -2.544  0.00  0.00    +0.016 C 
ATOM     22  C   UNL     1       1.083  -9.390  -2.373  0.00  0.00    +0.025 C 
ATOM     23  C   UNL     1       0.513  -8.153  -1.730  0.00  0.00    +0.095 C 
ATOM     24  C   UNL     1       0.616  -7.238  -0.626  0.00  0.00    +0.227 C 
ATOM     25  O   UNL     1       1.404  -7.238   0.295  0.00  0.00    -0.275 OA
ATOM     26  C   UNL     1       1.107  -8.861  -3.843  0.00  0.00    -0.027 C 
ATOM     27  C   UNL     1      -0.174  -8.664  -4.181  0.00  0.00    -0.027 C 
ENDBRANCH  15  16
ENDBRANCH   2  15
TORSDOF 4
