REMARK  Name = ZINC12339408
REMARK  2 active torsions:
REMARK  status: ('A' for Active; 'I' for Inactive)
REMARK    1  A    between atoms: C_17  and  N_87
REMARK    2  A    between atoms: C_20  and  N_87
REMARK                            x       y       z     vdW  Elec       q    Type
REMARK                         _______ _______ _______ _____ _____    ______ ____
ROOT
ATOM      1  N   UNL     1      -0.354   2.992  -1.499  0.00  0.00    +0.413 N 
ATOM      2  H   UNL     1       0.533   3.195  -1.022  0.00  0.00    -0.078 HD
ATOM      3  H   UNL     1      -1.085   3.620  -1.144  0.00  0.00    -0.078 HD
ENDROOT
BRANCH   1  18
ATOM      4  C   UNL     1      -6.862   3.062   2.918  0.00  0.00    +0.000 C 
ATOM      5  C   UNL     1      -6.718   4.379   2.152  0.00  0.00    +0.000 C 
ATOM      6  C   UNL     1      -6.391   4.091   0.686  0.00  0.00    +0.000 C 
ATOM      7  C   UNL     1      -5.036   4.703   0.330  0.00  0.00    +0.000 C 
ATOM      8  C   UNL     1      -4.242   3.726  -0.539  0.00  0.00    +0.003 C 
ATOM      9  C   UNL     1      -3.019   3.233   0.238  0.00  0.00    +0.032 C 
ATOM     10  C   UNL     1      -2.852   1.730   0.029  0.00  0.00    +0.119 C 
ATOM     11  C   UNL     1      -2.166   1.099   1.238  0.00  0.00    +0.018 C 
ATOM     12  C   UNL     1      -2.880   1.484   2.531  0.00  0.00    +0.006 C 
ATOM     13  C   UNL     1      -4.393   1.366   2.344  0.00  0.00    +0.000 C 
ATOM     14  C   UNL     1      -5.090   1.479   3.701  0.00  0.00    +0.000 C 
ATOM     15  C   UNL     1      -5.672   2.884   3.863  0.00  0.00    +0.000 C 
ATOM     16  C   UNL     1      -0.710   1.573   1.281  0.00  0.00    +0.006 C 
ATOM     17  C   UNL     1      -0.013   1.089   0.009  0.00  0.00    +0.012 C 
ATOM     18  C   UNL     1      -0.742   1.594  -1.231  0.00  0.00    +0.067 C 
ATOM     19  O   UNL     1      -2.142   1.453  -1.162  0.00  0.00    -0.391 OA
ENDBRANCH   1  18
BRANCH   1  20
ATOM     20  C   UNL     1      -0.188   3.209  -2.949  0.00  0.00    +0.067 C 
ATOM     21  C   UNL     1       1.028   4.107  -3.187  0.00  0.00    +0.012 C 
ATOM     22  C   UNL     1       1.161   4.402  -4.682  0.00  0.00    +0.006 C 
ATOM     23  C   UNL     1      -0.142   5.016  -5.198  0.00  0.00    +0.018 C 
ATOM     24  C   UNL     1      -0.373   6.366  -4.515  0.00  0.00    +0.006 C 
ATOM     25  C   UNL     1       0.381   7.458  -5.277  0.00  0.00    +0.000 C 
ATOM     26  C   UNL     1      -0.528   8.675  -5.457  0.00  0.00    +0.000 C 
ATOM     27  C   UNL     1      -0.781   8.906  -6.948  0.00  0.00    +0.000 C 
ATOM     28  C   UNL     1      -2.244   9.303  -7.161  0.00  0.00    +0.000 C 
ATOM     29  C   UNL     1      -2.934   8.257  -8.038  0.00  0.00    +0.000 C 
ATOM     30  C   UNL     1      -3.948   7.477  -7.200  0.00  0.00    +0.000 C 
ATOM     31  C   UNL     1      -3.613   5.985  -7.250  0.00  0.00    +0.000 C 
ATOM     32  C   UNL     1      -2.331   5.723  -6.456  0.00  0.00    +0.003 C 
ATOM     33  C   UNL     1      -2.619   4.719  -5.338  0.00  0.00    +0.032 C 
ATOM     34  C   UNL     1      -1.308   4.078  -4.880  0.00  0.00    +0.119 C 
ATOM     35  O   UNL     1      -1.358   3.841  -3.471  0.00  0.00    -0.391 OA
ENDBRANCH   1  20
TORSDOF 2
