REMARK  Name = ZINC35074100
REMARK  11 active torsions:
REMARK  status: ('A' for Active; 'I' for Inactive)
REMARK    1  A    between atoms: C_1  and  C_2
REMARK    2  A    between atoms: C_5  and  N_9
REMARK    3  A    between atoms: C_6  and  C_8
REMARK    4  A    between atoms: C_10  and  C_12
REMARK    5  A    between atoms: C_14  and  C_35
REMARK    6  A    between atoms: C_16  and  C_24
REMARK    7  A    between atoms: C_18  and  C_22
REMARK    8  A    between atoms: C_18  and  O_23
REMARK    9  A    between atoms: N_26  and  C_27
REMARK   10  A    between atoms: C_30  and  C_34
REMARK   11  A    between atoms: C_32  and  C_33
REMARK                            x       y       z     vdW  Elec       q    Type
REMARK                         _______ _______ _______ _____ _____    ______ ____
ROOT
ATOM      1  C   UNL     1       1.147  -6.665  -1.785  0.00  0.00    +0.149 C 
ATOM      2  C   UNL     1       0.658  -6.830  -3.228  0.00  0.00    +0.053 C 
ATOM      3  C   UNL     1      -0.713  -6.169  -3.379  0.00  0.00    +0.115 C 
ATOM      4  C   UNL     1      -1.734  -6.885  -2.494  0.00  0.00    +0.082 C 
ATOM      5  C   UNL     1      -1.335  -6.722  -1.023  0.00  0.00    +0.110 C 
ATOM      6  C   UNL     1       0.090  -7.211  -0.850  0.00  0.00    +0.148 C 
ATOM      7  O   UNL     1       0.375  -8.014   0.006  0.00  0.00    -0.296 OA
ATOM      8  C   UNL     1      -3.119  -6.276  -2.717  0.00  0.00    +0.042 C 
ENDROOT
BRANCH   2   9
ATOM      9  C   UNL     1       1.638  -6.176  -4.168  0.00  0.00    -0.039 A 
ATOM     10  C   UNL     1       1.688  -4.796  -4.294  0.00  0.00    +0.023 A 
ATOM     11  C   UNL     1       2.600  -4.232  -5.166  0.00  0.00    +0.111 A 
ATOM     12  N   UNL     1       3.415  -4.990  -5.873  0.00  0.00    -0.263 NA
ATOM     13  C   UNL     1       3.396  -6.306  -5.778  0.00  0.00    +0.111 A 
ATOM     14  C   UNL     1       2.516  -6.940  -4.922  0.00  0.00    +0.023 A 
ENDBRANCH   2   9
BRANCH   1  16
ATOM     15  N   UNL     1       0.903  -4.663  -0.353  0.00  0.00    -0.285 N 
ATOM     16  C   UNL     1       1.377  -5.205  -1.492  0.00  0.00    +0.228 C 
ATOM     17  O   UNL     1       1.990  -4.518  -2.281  0.00  0.00    -0.275 OA
ATOM     18  H   UNL     1       0.467  -5.226   0.307  0.00  0.00    +0.155 HD
BRANCH  15  23
ATOM     19  C   UNL     1       1.452   0.905   0.583  0.00  0.00    +0.044 C 
ATOM     20  C   UNL     1       1.306  -0.574   0.334  0.00  0.00    -0.050 A 
ATOM     21  C   UNL     1       2.184  -1.221  -0.516  0.00  0.00    +0.005 A 
ATOM     22  C   UNL     1       2.054  -2.576  -0.746  0.00  0.00    +0.024 A 
ATOM     23  C   UNL     1       1.038  -3.290  -0.122  0.00  0.00    +0.036 A 
ATOM     24  C   UNL     1       0.158  -2.638   0.732  0.00  0.00    -0.029 A 
ATOM     25  C   UNL     1       0.298  -1.283   0.961  0.00  0.00    +0.008 A 
ATOM     26  C   UNL     1      -0.945  -3.408   1.411  0.00  0.00    +0.045 C 
ENDBRANCH  15  23
ENDBRANCH   1  16
BRANCH   3  27
ATOM     27  C   UNL     1      -0.620  -4.723  -2.965  0.00  0.00    +0.224 C 
ATOM     28  O   UNL     1      -0.559  -4.431  -1.789  0.00  0.00    -0.275 OA
ATOM     29  N   UNL     1      -0.603  -3.754  -3.901  0.00  0.00    -0.285 N 
ATOM     30  H   UNL     1      -0.713  -3.982  -4.838  0.00  0.00    +0.155 HD
BRANCH  29  31
ATOM     31  C   UNL     1      -0.429  -2.418  -3.523  0.00  0.00    +0.036 A 
ATOM     32  C   UNL     1      -0.672  -2.029  -2.212  0.00  0.00    +0.024 A 
ATOM     33  C   UNL     1      -0.498  -0.710  -1.841  0.00  0.00    +0.005 A 
ATOM     34  C   UNL     1      -0.084   0.223  -2.774  0.00  0.00    -0.050 A 
ATOM     35  C   UNL     1       0.159  -0.161  -4.080  0.00  0.00    +0.008 A 
ATOM     36  C   UNL     1      -0.006  -1.480  -4.455  0.00  0.00    -0.029 A 
ATOM     37  C   UNL     1       0.265  -1.899  -5.877  0.00  0.00    +0.045 C 
ATOM     38  C   UNL     1       0.104   1.662  -2.367  0.00  0.00    +0.044 C 
ENDBRANCH  29  31
ENDBRANCH   3  27
BRANCH   4  39
ATOM     39  O   UNL     1      -1.764  -8.274  -2.828  0.00  0.00    -0.388 OA
ATOM     40  H   UNL     1      -2.392  -8.791  -2.305  0.00  0.00    +0.210 HD
ENDBRANCH   4  39
TORSDOF 6
