REMARK  Name = ZINC21218610
REMARK  6 active torsions:
REMARK  status: ('A' for Active; 'I' for Inactive)
REMARK    1  A    between atoms: C_1  and  C_2
REMARK    2  A    between atoms: C_2  and  O_3
REMARK    3  A    between atoms: O_3  and  C_4
REMARK    4  A    between atoms: C_7  and  C_11
REMARK    5  A    between atoms: C_22  and  C_25
REMARK    6  A    between atoms: C_28  and  C_31
REMARK                            x       y       z     vdW  Elec       q    Type
REMARK                         _______ _______ _______ _____ _____    ______ ____
ROOT
ATOM      1  C   UNL     1      -1.351   2.109   0.033  0.00  0.00    +0.063 C 
ATOM      2  C   UNL     1      -1.238   3.387   0.858  0.00  0.00    +0.109 C 
ATOM      3  C   UNL     1      -0.012   4.150   0.426  0.00  0.00    +0.218 C 
ATOM      4  O   UNL     1      -0.015   5.362   0.449  0.00  0.00    -0.275 OA
ATOM      5  N   UNL     1       1.085   3.490   0.016  0.00  0.00    -0.289 N 
ATOM      6  C   UNL     1       1.125   2.119   0.003  0.00  0.00    +0.018 C 
ATOM      7  C   UNL     1      -0.017   1.401   0.010  0.00  0.00    +0.020 C 
ATOM      8  C   UNL     1       0.002  -0.004   0.002  0.00  0.00    +0.162 C 
ATOM      9  O   UNL     1      -1.047  -0.616  -0.006  0.00  0.00    -0.292 OA
ATOM     10  C   UNL     1       1.302  -0.762   0.004  0.00  0.00    +0.088 C 
ATOM     11  C   UNL     1       2.372   0.087   0.699  0.00  0.00    +0.032 C 
ATOM     12  C   UNL     1       2.469   1.434  -0.020  0.00  0.00    +0.059 C 
ATOM     13  H   UNL     1       1.971   4.050  -0.317  0.00  0.00    +0.155 HD
ENDROOT
BRANCH   1  17
ATOM     14  C   UNL     1      -2.503   3.109  -3.960  0.00  0.00    +0.139 A 
ATOM     15  C   UNL     1      -1.324   3.612  -3.430  0.00  0.00    +0.047 A 
ATOM     16  C   UNL     1      -0.957   3.291  -2.138  0.00  0.00    +0.008 A 
ATOM     17  C   UNL     1      -1.758   2.461  -1.375  0.00  0.00    -0.038 A 
ATOM     18  C   UNL     1      -2.933   1.958  -1.900  0.00  0.00    +0.028 A 
ATOM     19  C   UNL     1      -3.309   2.280  -3.191  0.00  0.00    +0.083 A 
ATOM     20 CL   UNL     1      -4.785   1.648  -3.850  0.00  0.00    -0.080 Cl
BRANCH  14  21
ATOM     21  O   UNL     1      -2.870   3.428  -5.229  0.00  0.00    -0.491 OA
BRANCH  21  23
ATOM     22  C   UNL     1      -2.567   4.530  -7.359  0.00  0.00    +0.048 C 
ATOM     23  C   UNL     1      -1.992   4.286  -5.962  0.00  0.00    +0.226 C 
ENDBRANCH  21  23
ENDBRANCH  14  21
ENDBRANCH   1  17
BRANCH  11  24
ATOM     24  C   UNL     1       3.701  -0.620   0.632  0.00  0.00    -0.043 A 
ATOM     25  C   UNL     1       4.260  -0.926  -0.594  0.00  0.00    +0.004 A 
ATOM     26  C   UNL     1       5.482  -1.570  -0.655  0.00  0.00    +0.003 A 
ATOM     27  C   UNL     1       6.140  -1.917   0.510  0.00  0.00    -0.050 A 
ATOM     28  C   UNL     1       5.579  -1.614   1.736  0.00  0.00    +0.003 A 
ATOM     29  C   UNL     1       4.359  -0.966   1.798  0.00  0.00    +0.004 A 
ATOM     30  C   UNL     1       7.469  -2.624   0.443  0.00  0.00    +0.044 C 
ENDBRANCH  11  24
TORSDOF 4
