REMARK  Name = ZINC46477944
REMARK  5 active torsions:
REMARK  status: ('A' for Active; 'I' for Inactive)
REMARK    1  A    between atoms: C_1  and  C_2
REMARK    2  A    between atoms: N_8  and  C_9
REMARK    3  A    between atoms: C_9  and  N_10
REMARK    4  A    between atoms: C_13  and  C_17
REMARK    5  A    between atoms: C_13  and  C_18
REMARK                            x       y       z     vdW  Elec       q    Type
REMARK                         _______ _______ _______ _____ _____    ______ ____
ROOT
ATOM      1  N   UNL     1       2.803  -0.046   2.385  0.00  0.00    -0.210 N 
ATOM      2  C   UNL     1       2.736   0.921   3.321  0.00  0.00    +0.252 C 
ATOM      3  O   UNL     1       2.169   1.989   3.232  0.00  0.00    -0.272 OA
ATOM      4  C   UNL     1       3.515   0.395   4.510  0.00  0.00    +0.135 C 
ATOM      5  N   UNL     1       3.974  -0.932   4.064  0.00  0.00    -0.281 N 
ATOM      6  C   UNL     1       3.505  -1.101   2.814  0.00  0.00    +0.311 C 
ATOM      7  O   UNL     1       3.700  -2.099   2.149  0.00  0.00    -0.252 OA
ATOM      8  C   UNL     1       4.708   1.302   4.816  0.00  0.00    +0.047 C 
ATOM      9  H   UNL     1       4.508  -1.562   4.573  0.00  0.00    +0.152 HD
ENDROOT
BRANCH   4  10
ATOM     10  C   UNL     1       2.621   0.268   5.716  0.00  0.00    -0.015 A 
ATOM     11  C   UNL     1       1.536   1.132   5.860  0.00  0.00    +0.007 A 
ATOM     12  C   UNL     1       0.709   1.044   6.938  0.00  0.00    +0.009 A 
ATOM     13  C   UNL     1       0.949   0.070   7.921  0.00  0.00    -0.018 A 
ATOM     14  C   UNL     1       0.117  -0.051   9.048  0.00  0.00    +0.008 A 
ATOM     15  C   UNL     1       0.380  -1.006   9.980  0.00  0.00    +0.001 A 
ATOM     16  C   UNL     1       1.465  -1.870   9.836  0.00  0.00    +0.001 A 
ATOM     17  C   UNL     1       2.292  -1.782   8.759  0.00  0.00    +0.008 A 
ATOM     18  C   UNL     1       2.052  -0.808   7.775  0.00  0.00    -0.018 A 
ATOM     19  C   UNL     1       2.881  -0.691   6.646  0.00  0.00    +0.014 A 
ENDBRANCH   4  10
BRANCH   1  20
ATOM     20  C   UNL     1       2.179   0.044   1.062  0.00  0.00    +0.205 C 
BRANCH  20  27
ATOM     21  C   UNL     1      -0.042   1.609   0.198  0.00  0.00    +0.026 C 
ATOM     22  C   UNL     1      -0.029   0.085   0.069  0.00  0.00    +0.081 C 
ATOM     23  C   UNL     1      -1.456  -0.452   0.210  0.00  0.00    +0.178 C 
ATOM     24  O   UNL     1      -1.429  -1.881   0.164  0.00  0.00    -0.377 OA
ATOM     25  C   UNL     1      -0.620  -2.475   1.182  0.00  0.00    +0.175 C 
ATOM     26  C   UNL     1       0.816  -1.958   1.052  0.00  0.00    +0.114 C 
ATOM     27  N   UNL     1       0.813  -0.490   1.128  0.00  0.00    -0.279 NA
ENDBRANCH  20  27
ENDBRANCH   1  20
TORSDOF 3
