REMARK  Name = ZINC14990659
REMARK  10 active torsions:
REMARK  status: ('A' for Active; 'I' for Inactive)
REMARK    1  A    between atoms: C_1  and  O_2
REMARK    2  A    between atoms: O_2  and  C_3
REMARK    3  A    between atoms: C_5  and  C_12
REMARK    4  A    between atoms: C_12  and  N_64
REMARK    5  A    between atoms: C_15  and  C_18
REMARK    6  A    between atoms: C_21  and  S_26
REMARK    7  A    between atoms: N_22  and  C_23
REMARK    8  A    between atoms: C_23  and  C_24
REMARK    9  A    between atoms: S_26  and  C_27
REMARK   10  A    between atoms: C_27  and  C_28
REMARK                            x       y       z     vdW  Elec       q    Type
REMARK                         _______ _______ _______ _____ _____    ______ ____
ROOT
ATOM      1  C   UNL     1       1.694  -2.588   4.930  0.00  0.00    -0.078 C 
ATOM      2  C   UNL     1       1.187  -4.030   4.848  0.00  0.00    -0.008 C 
ATOM      3  C   UNL     1       2.376  -4.972   4.636  0.00  0.00    +0.054 C 
ATOM      4  C   UNL     1       3.122  -4.562   3.364  0.00  0.00    -0.008 C 
ATOM      5  C   UNL     1       3.572  -3.105   3.489  0.00  0.00    -0.078 C 
ATOM      6  N   UNL     1       2.381  -2.248   3.666  0.00  0.00    +0.382 N 
ATOM      7  H   UNL     1       1.737  -2.408   2.883  0.00  0.00    -0.081 HD
ENDROOT
BRANCH   3   8
ATOM      8  C   UNL     1       1.877  -6.387   4.494  0.00  0.00    +0.137 A 
ATOM      9  N   UNL     1       1.055  -6.828   3.585  0.00  0.00    -0.133 NA
ATOM     10  N   UNL     1       0.842  -8.084   3.755  0.00  0.00    -0.122 NA
ATOM     11  C   UNL     1       1.522  -8.516   4.791  0.00  0.00    +0.192 A 
ATOM     12  N   UNL     1       2.208  -7.447   5.292  0.00  0.00    -0.302 N 
BRANCH  12  13
ATOM     13  C   UNL     1       3.110  -7.437   6.447  0.00  0.00    +0.152 C 
BRANCH  13  14
ATOM     14  C   UNL     1       2.324  -7.134   7.696  0.00  0.00    -0.013 C 
ATOM     15  C   UNL     1       2.376  -7.952   8.718  0.00  0.00    +0.005 C 
ENDBRANCH  13  14
ENDBRANCH  12  13
BRANCH  11  16
ATOM     16  S   UNL     1       1.551 -10.164   5.414  0.00  0.00    -0.081 S 
BRANCH  16  17
ATOM     17  C   UNL     1       0.426 -10.962   4.241  0.00  0.00    +0.112 C 
BRANCH  17  18
ATOM     18  C   UNL     1       0.293 -12.423   4.587  0.00  0.00    -0.036 A 
ATOM     19  C   UNL     1      -0.694 -12.838   5.461  0.00  0.00    +0.004 A 
ATOM     20  C   UNL     1      -0.818 -14.178   5.779  0.00  0.00    +0.002 A 
ATOM     21  C   UNL     1       0.046 -15.103   5.223  0.00  0.00    +0.020 A 
ATOM     22  C   UNL     1       1.035 -14.688   4.349  0.00  0.00    +0.041 A 
ATOM     23  C   UNL     1       1.154 -13.347   4.027  0.00  0.00    +0.024 A 
ATOM     24 CL   UNL     1       2.120 -15.848   3.650  0.00  0.00    -0.084 Cl
ENDBRANCH  17  18
ENDBRANCH  16  17
ENDBRANCH  11  16
ENDBRANCH   3   8
BRANCH   6  25
ATOM     25  C   UNL     1       2.780  -0.825   3.676  0.00  0.00    -0.043 C 
BRANCH  25  28
ATOM     26  C   UNL     1      -0.148   1.182   2.381  0.00  0.00    +0.166 A 
ATOM     27  C   UNL     1       0.991   0.392   2.421  0.00  0.00    +0.051 A 
ATOM     28  C   UNL     1       1.538   0.027   3.636  0.00  0.00    -0.057 A 
ATOM     29  C   UNL     1       0.944   0.435   4.816  0.00  0.00    +0.051 A 
ATOM     30  C   UNL     1      -0.199   1.219   4.785  0.00  0.00    +0.170 A 
ATOM     31  C   UNL     1      -0.748   1.595   3.564  0.00  0.00    +0.208 A 
ATOM     32  O   UNL     1      -1.857   2.357   3.799  0.00  0.00    -0.449 OA
ATOM     33  C   UNL     1      -2.213   2.103   5.171  0.00  0.00    +0.467 C 
ATOM     34  O   UNL     1      -0.962   1.745   5.787  0.00  0.00    -0.452 OA
BRANCH  26  36
ATOM     35  C   UNL     1      -0.013   1.086   0.008  0.00  0.00    +0.277 C 
ATOM     36  O   UNL     1      -0.682   1.547   1.184  0.00  0.00    -0.491 OA
ENDBRANCH  26  36
ENDBRANCH  25  28
ENDBRANCH   6  25
TORSDOF 9
