REMARK  Name = ZINC63387512
REMARK  6 active torsions:
REMARK  status: ('A' for Active; 'I' for Inactive)
REMARK    1  A    between atoms: C_7  and  C_10
REMARK    2  A    between atoms: C_10  and  C_11
REMARK    3  A    between atoms: C_11  and  C_13
REMARK    4  A    between atoms: C_11  and  N_28
REMARK    5  A    between atoms: N_15  and  N_16
REMARK    6  A    between atoms: C_17  and  C_18
REMARK                            x       y       z     vdW  Elec       q    Type
REMARK                         _______ _______ _______ _____ _____    ______ ____
ROOT
ATOM      1  C   UNL     1       0.457  -3.653  -1.462  0.00  0.00    +0.018 C 
ENDROOT
BRANCH   1   2
ATOM      2  C   UNL     1      -0.578  -4.750  -1.471  0.00  0.00    +0.218 C 
ATOM      3  O   UNL     1      -0.231  -5.910  -1.548  0.00  0.00    -0.276 OA
ATOM      4  N   UNL     1      -1.887  -4.441  -1.394  0.00  0.00    -0.208 N 
ATOM      5  H   UNL     1      -2.164  -3.513  -1.333  0.00  0.00    +0.177 HD
BRANCH   4   6
ATOM      6  N   UNL     1      -2.849  -5.460  -1.403  0.00  0.00    -0.188 NA
ATOM      7  C   UNL     1      -4.110  -5.163  -1.329  0.00  0.00    +0.138 C 
BRANCH   7   8
ATOM      8  C   UNL     1      -5.122  -6.235  -1.338  0.00  0.00    -0.003 A 
ATOM      9  C   UNL     1      -4.714  -7.580  -1.422  0.00  0.00    +0.011 A 
ATOM     10  C   UNL     1      -5.627  -8.584  -1.432  0.00  0.00    +0.030 A 
ATOM     11  C   UNL     1      -7.001  -8.289  -1.359  0.00  0.00    +0.089 A 
ATOM     12  C   UNL     1      -7.425  -6.937  -1.274  0.00  0.00    +0.090 A 
ATOM     13  C   UNL     1      -6.467  -5.912  -1.259  0.00  0.00    +0.039 A 
ATOM     14  N   UNL     1      -8.732  -6.658  -1.203  0.00  0.00    -0.252 NA
ATOM     15  C   UNL     1      -9.609  -7.637  -1.212  0.00  0.00    +0.131 A 
ATOM     16  C   UNL     1      -9.191  -8.966  -1.296  0.00  0.00    +0.131 A 
ATOM     17  N   UNL     1      -7.913  -9.265  -1.367  0.00  0.00    -0.252 NA
ENDBRANCH   7   8
ENDBRANCH   4   6
ENDBRANCH   1   2
BRANCH   1  18
ATOM     18  N   UNL     1       1.715  -4.163  -2.022  0.00  0.00    +0.386 N 
ATOM     19  H   UNL     1       2.408  -3.429  -2.015  0.00  0.00    -0.089 HD
ATOM     20  H   UNL     1       2.042  -4.938  -1.465  0.00  0.00    -0.089 HD
ATOM     21  H   UNL     1       1.561  -4.471  -2.970  0.00  0.00    -0.089 HD
ENDBRANCH   1  18
BRANCH   1  22
ATOM     22  C   UNL     1       0.691  -3.186  -0.024  0.00  0.00    +0.026 C 
BRANCH  22  29
ATOM     23  C   UNL     1      -0.016   1.348   0.009  0.00  0.00    +0.001 A 
ATOM     24  C   UNL     1       1.166   2.101   0.002  0.00  0.00    +0.002 A 
ATOM     25  C   UNL     1       2.391   1.535  -0.013  0.00  0.00    +0.026 A 
ATOM     26  C   UNL     1       2.529   0.120  -0.022  0.00  0.00    +0.043 A 
ATOM     27  N   UNL     1       3.587  -0.654  -0.037  0.00  0.00    -0.380 N 
ATOM     28  C   UNL     1       3.143  -2.053  -0.041  0.00  0.00    +0.144 C 
ATOM     29  C   UNL     1       1.631  -2.008  -0.025  0.00  0.00    -0.043 C 
ATOM     30  C   UNL     1       1.295  -0.698  -0.014  0.00  0.00    -0.001 A 
ATOM     31  C   UNL     1       0.002  -0.004   0.002  0.00  0.00    +0.010 A 
ATOM     32  H   UNL     1       4.509  -0.353  -0.045  0.00  0.00    +0.160 HD
ENDBRANCH  22  29
ENDBRANCH   1  22
TORSDOF 6
