REMARK  Name = ZINC20028206
REMARK  3 active torsions:
REMARK  status: ('A' for Active; 'I' for Inactive)
REMARK    1  A    between atoms: C_1  and  O_2
REMARK    2  A    between atoms: O_2  and  C_3
REMARK    3  A    between atoms: C_8  and  N_9
REMARK                            x       y       z     vdW  Elec       q    Type
REMARK                         _______ _______ _______ _____ _____    ______ ____
ROOT
ATOM      1  N   UNL     1       0.743  -4.759  -1.286  0.00  0.00    -0.325 N 
ATOM      2  C   UNL     1       0.233  -4.150  -0.162  0.00  0.00    +0.180 C 
ATOM      3  N   UNL     1       0.174  -2.851  -0.095  0.00  0.00    -0.371 N 
ATOM      4  N   UNL     1      -0.215  -4.917   0.895  0.00  0.00    -0.298 N 
ATOM      5  C   UNL     1      -0.254  -6.286   0.783  0.00  0.00    +0.212 A 
ATOM      6  N   UNL     1       0.252  -6.863  -0.287  0.00  0.00    -0.175 NA
ATOM      7  C   UNL     1       0.222  -8.195  -0.417  0.00  0.00    +0.278 A 
ATOM      8  O   UNL     1       0.692  -8.723  -1.413  0.00  0.00    -0.265 OA
ATOM      9  C   UNL     1      -0.358  -8.995   0.608  0.00  0.00    +0.038 A 
ATOM     10  C   UNL     1      -0.862  -8.389   1.694  0.00  0.00    +0.027 A 
ATOM     11  N   UNL     1      -0.808  -7.022   1.778  0.00  0.00    -0.329 N 
ATOM     12  C   UNL     1      -1.475  -9.144   2.843  0.00  0.00    +0.054 C 
ATOM     13  C   UNL     1      -1.843 -10.565   2.418  0.00  0.00    +0.006 C 
ATOM     14  C   UNL     1      -0.619 -11.198   1.745  0.00  0.00    +0.005 C 
ATOM     15  C   UNL     1      -0.382 -10.487   0.414  0.00  0.00    +0.042 C 
ATOM     16  H   UNL     1       0.708  -5.724  -1.372  0.00  0.00    +0.169 HD
ATOM     17  H   UNL     1      -0.116  -2.420   0.724  0.00  0.00    +0.159 HD
ATOM     18  H   UNL     1       0.419  -2.314  -0.865  0.00  0.00    +0.159 HD
ATOM     19  H   UNL     1      -0.503  -4.489   1.716  0.00  0.00    +0.172 HD
ATOM     20  H   UNL     1      -1.174  -6.575   2.557  0.00  0.00    +0.168 HD
ENDROOT
BRANCH   1  26
ATOM     21  C   UNL     1       2.473  -3.255  -2.063  0.00  0.00    +0.143 A 
ATOM     22  C   UNL     1       3.035  -2.495  -3.075  0.00  0.00    +0.049 A 
ATOM     23  C   UNL     1       2.438  -2.455  -4.322  0.00  0.00    +0.024 A 
ATOM     24  C   UNL     1       1.281  -3.174  -4.563  0.00  0.00    +0.043 A 
ATOM     25  C   UNL     1       0.715  -3.935  -3.557  0.00  0.00    +0.049 A 
ATOM     26  C   UNL     1       1.311  -3.984  -2.305  0.00  0.00    +0.085 A 
ATOM     27 CL   UNL     1       0.536  -3.119  -6.130  0.00  0.00    -0.083 Cl
BRANCH  21  29
ATOM     28  C   UNL     1       4.248  -2.522  -0.659  0.00  0.00    +0.277 C 
ATOM     29  O   UNL     1       3.059  -3.294  -0.836  0.00  0.00    -0.493 OA
ENDBRANCH  21  29
ENDBRANCH   1  26
TORSDOF 2
