REMARK  Name = ZINC12459314
REMARK  6 active torsions:
REMARK  status: ('A' for Active; 'I' for Inactive)
REMARK    1  A    between atoms: C_1  and  N_2
REMARK    2  A    between atoms: N_2  and  S_3
REMARK    3  A    between atoms: S_3  and  C_6
REMARK    4  A    between atoms: C_9  and  C_12
REMARK    5  A    between atoms: C_13  and  C_14
REMARK    6  A    between atoms: N_16  and  C_17
REMARK                            x       y       z     vdW  Elec       q    Type
REMARK                         _______ _______ _______ _____ _____    ______ ____
ROOT
ATOM      1  C   UNL     1      -0.809  -2.215  -0.242  0.00  0.00    +0.013 C 
ATOM      2  C   UNL     1      -0.983  -0.891  -0.058  0.00  0.00    +0.068 C 
ENDROOT
BRANCH   1   6
ATOM      3  C   UNL     1      -4.113  -4.855   0.096  0.00  0.00    +0.105 A 
ATOM      4  C   UNL     1      -2.858  -5.357  -0.203  0.00  0.00    +0.029 A 
ATOM      5  C   UNL     1      -1.780  -4.505  -0.315  0.00  0.00    +0.010 A 
ATOM      6  C   UNL     1      -1.956  -3.131  -0.124  0.00  0.00    -0.025 A 
ATOM      7  C   UNL     1      -3.225  -2.632   0.183  0.00  0.00    +0.010 A 
ATOM      8  C   UNL     1      -4.295  -3.496   0.286  0.00  0.00    +0.029 A 
BRANCH   3   9
ATOM      9  S   UNL     1      -5.485  -5.951   0.237  0.00  0.00    +0.058 S 
ATOM     10  O   UNL     1      -6.650  -5.178  -0.014  0.00  0.00    -0.153 OA
ATOM     11  O   UNL     1      -5.160  -7.108  -0.521  0.00  0.00    -0.153 OA
BRANCH   9  13
ATOM     12  C   UNL     1      -5.864  -5.450   2.868  0.00  0.00    +0.127 C 
ATOM     13  N   UNL     1      -5.568  -6.431   1.820  0.00  0.00    -0.193 NA
ATOM     14  H   UNL     1      -5.421  -7.360   2.054  0.00  0.00    +0.148 HD
ENDBRANCH   9  13
ENDBRANCH   3   9
ENDBRANCH   1   6
BRANCH   2  15
ATOM     15  C   UNL     1       0.157   0.020  -0.174  0.00  0.00    +0.241 C 
ATOM     16  O   UNL     1       1.262  -0.418  -0.438  0.00  0.00    -0.270 OA
ATOM     17  N   UNL     1      -0.016   1.344   0.009  0.00  0.00    -0.282 N 
ATOM     18  H   UNL     1      -0.908   1.702   0.139  0.00  0.00    +0.155 HD
BRANCH  17  19
ATOM     19  C   UNL     1       1.089   2.200   0.007  0.00  0.00    +0.035 A 
ATOM     20  C   UNL     1       0.966   3.494  -0.485  0.00  0.00    +0.023 A 
ATOM     21  C   UNL     1       2.058   4.338  -0.485  0.00  0.00    +0.003 A 
ATOM     22  C   UNL     1       3.275   3.898   0.004  0.00  0.00    +0.015 A 
ATOM     23  C   UNL     1       3.401   2.610   0.495  0.00  0.00    +0.020 A 
ATOM     24  C   UNL     1       2.310   1.762   0.503  0.00  0.00    +0.038 A 
ATOM     25 BR   UNL     1       5.066   2.014   1.164  0.00  0.00    -0.050 Br
ENDBRANCH  17  19
ENDBRANCH   2  15
TORSDOF 5
