REMARK  Name = ZINC60320305
REMARK  6 active torsions:
REMARK  status: ('A' for Active; 'I' for Inactive)
REMARK    1  A    between atoms: C_4  and  O_29
REMARK    2  A    between atoms: C_5  and  C_7
REMARK    3  A    between atoms: C_7  and  N_8
REMARK    4  A    between atoms: N_11  and  S_14
REMARK    5  A    between atoms: S_14  and  C_17
REMARK    6  A    between atoms: O_29  and  C_30
REMARK                            x       y       z     vdW  Elec       q    Type
REMARK                         _______ _______ _______ _____ _____    ______ ____
ROOT
ATOM      1  N   UNL     1       1.361  -2.245   1.679  0.00  0.00    -0.296 NA
ATOM      2  C   UNL     1       0.174  -1.687   2.339  0.00  0.00    +0.102 C 
ATOM      3  C   UNL     1       0.422  -1.612   3.850  0.00  0.00    +0.125 C 
ATOM      4  N   UNL     1       0.830  -2.943   4.323  0.00  0.00    -0.174 NA
ATOM      5  C   UNL     1       1.926  -3.626   3.620  0.00  0.00    +0.125 C 
ATOM      6  C   UNL     1       1.619  -3.622   2.119  0.00  0.00    +0.102 C 
ENDROOT
BRANCH   4   7
ATOM      7  S   UNL     1       0.075  -3.655   5.614  0.00  0.00    +0.061 S 
ATOM      8  O   UNL     1       0.996  -4.590   6.158  0.00  0.00    -0.153 OA
ATOM      9  O   UNL     1      -0.488  -2.602   6.385  0.00  0.00    -0.153 OA
BRANCH   7  10
ATOM     10  C   UNL     1      -1.276  -4.590   4.977  0.00  0.00    +0.108 A 
ATOM     11  C   UNL     1      -2.518  -3.996   4.832  0.00  0.00    +0.030 A 
ATOM     12  C   UNL     1      -3.583  -4.721   4.333  0.00  0.00    +0.030 A 
ATOM     13  C   UNL     1      -3.406  -6.050   3.977  0.00  0.00    +0.067 A 
ATOM     14  C   UNL     1      -2.154  -6.649   4.123  0.00  0.00    +0.069 A 
ATOM     15  C   UNL     1      -1.089  -5.911   4.619  0.00  0.00    +0.056 A 
ATOM     16  N   UNL     1      -2.284  -7.966   3.689  0.00  0.00    -0.306 N 
ATOM     17  H   UNL     1      -1.577  -8.630   3.672  0.00  0.00    +0.170 HD
ATOM     18  C   UNL     1      -3.557  -8.159   3.297  0.00  0.00    +0.325 A 
ATOM     19  O   UNL     1      -4.005  -9.204   2.862  0.00  0.00    -0.247 OA
ATOM     20  N   UNL     1      -4.259  -7.021   3.458  0.00  0.00    -0.306 N 
ATOM     21  H   UNL     1      -5.198  -6.899   3.249  0.00  0.00    +0.170 HD
ENDBRANCH   7  10
ENDBRANCH   4   7
BRANCH   1  22
ATOM     22  C   UNL     1       1.232  -2.175   0.217  0.00  0.00    +0.123 C 
BRANCH  22  27
ATOM     23  C   UNL     1       0.000   1.212  -0.909  0.00  0.00    +0.001 A 
ATOM     24  C   UNL     1       1.184   1.919  -1.016  0.00  0.00    +0.004 A 
ATOM     25  C   UNL     1       2.385   1.304  -0.724  0.00  0.00    +0.046 A 
ATOM     26  C   UNL     1       2.404  -0.024  -0.323  0.00  0.00    +0.133 A 
ATOM     27  C   UNL     1       1.216  -0.731  -0.217  0.00  0.00    +0.009 A 
ATOM     28  C   UNL     1       0.016  -0.112  -0.510  0.00  0.00    +0.008 A 
BRANCH  26  29
ATOM     29  O   UNL     1       3.586  -0.632  -0.036  0.00  0.00    -0.454 OA
BRANCH  29  30
ATOM     30  C   UNL     1       4.724   0.102  -0.148  0.00  0.00    +0.146 A 
ATOM     31  C   UNL     1       5.210   0.820   0.940  0.00  0.00    +0.049 A 
ATOM     32  C   UNL     1       6.375   1.553   0.777  0.00  0.00    +0.023 A 
ATOM     33  C   UNL     1       7.011   1.546  -0.450  0.00  0.00    +0.111 A 
ATOM     34  N   UNL     1       6.524   0.854  -1.461  0.00  0.00    -0.260 NA
ATOM     35  C   UNL     1       5.421   0.140  -1.347  0.00  0.00    +0.156 A 
ENDBRANCH  29  30
ENDBRANCH  26  29
ENDBRANCH  22  27
ENDBRANCH   1  22
TORSDOF 6
