REMARK  Name = ZINC16376171
REMARK  9 active torsions:
REMARK  status: ('A' for Active; 'I' for Inactive)
REMARK    1  A    between atoms: C_1  and  C_2
REMARK    2  A    between atoms: C_2  and  N_62
REMARK    3  A    between atoms: C_3  and  C_4
REMARK    4  A    between atoms: C_3  and  N_62
REMARK    5  A    between atoms: N_6  and  C_7
REMARK    6  A    between atoms: C_12  and  C_13
REMARK    7  A    between atoms: C_17  and  C_18
REMARK    8  A    between atoms: C_17  and  N_62
REMARK    9  A    between atoms: C_29  and  C_31
REMARK                            x       y       z     vdW  Elec       q    Type
REMARK                         _______ _______ _______ _____ _____    ______ ____
ROOT
ATOM      1  C   UNL     1       1.054   2.240   0.730  0.00  0.00    +0.020 C 
ENDROOT
BRANCH   1   2
ATOM      2  C   UNL     1      -0.272   1.529   0.832  0.00  0.00    +0.204 C 
ATOM      3  O   UNL     1      -0.359   0.362   0.514  0.00  0.00    -0.277 OA
ATOM      4  N   UNL     1      -1.360   2.192   1.270  0.00  0.00    -0.259 N 
ATOM      5  C   UNL     1      -2.584   1.530   1.468  0.00  0.00    +0.079 A 
ATOM      6  C   UNL     1      -2.629   0.145   1.492  0.00  0.00    +0.027 A 
ATOM      7  C   UNL     1      -3.835  -0.501   1.685  0.00  0.00    +0.002 A 
ATOM      8  C   UNL     1      -4.995   0.232   1.855  0.00  0.00    +0.004 A 
ATOM      9  C   UNL     1      -4.956   1.613   1.833  0.00  0.00    +0.047 A 
ATOM     10  C   UNL     1      -3.750   2.271   1.641  0.00  0.00    +0.142 A 
ATOM     11  O   UNL     1      -3.719   3.630   1.626  0.00  0.00    -0.488 OA
ATOM     12  C   UNL     1      -2.598   4.264   1.008  0.00  0.00    +0.256 C 
ATOM     13  C   UNL     1      -1.307   3.635   1.563  0.00  0.00    +0.149 C 
BRANCH  13  14
ATOM     14  C   UNL     1      -1.227   3.851   3.052  0.00  0.00    -0.023 A 
ATOM     15  C   UNL     1      -1.980   3.068   3.906  0.00  0.00    +0.005 A 
ATOM     16  C   UNL     1      -1.903   3.263   5.273  0.00  0.00    +0.000 A 
ATOM     17  C   UNL     1      -1.080   4.249   5.784  0.00  0.00    +0.000 A 
ATOM     18  C   UNL     1      -0.331   5.037   4.930  0.00  0.00    +0.000 A 
ATOM     19  C   UNL     1      -0.405   4.838   3.564  0.00  0.00    +0.005 A 
ENDBRANCH  13  14
ENDBRANCH   1   2
BRANCH   1  20
ATOM     20  N   UNL     1       2.094   1.258   0.360  0.00  0.00    +0.391 N 
ATOM     21  H   UNL     1       1.783   0.739  -0.470  0.00  0.00    -0.080 HD
BRANCH  20  23
ATOM     22  C   UNL     1       3.078  -0.904   0.937  0.00  0.00    -0.017 C 
ATOM     23  C   UNL     1       2.307   0.305   1.470  0.00  0.00    -0.081 C 
ENDBRANCH  20  23
BRANCH  20  24
ATOM     24  C   UNL     1       3.358   1.956   0.044  0.00  0.00    +0.020 C 
BRANCH  24  25
ATOM     25  C   UNL     1       3.255   2.535  -1.344  0.00  0.00    +0.201 C 
ATOM     26  O   UNL     1       2.231   2.407  -1.980  0.00  0.00    -0.278 OA
ATOM     27  N   UNL     1       4.302   3.196  -1.877  0.00  0.00    -0.287 N 
ATOM     28  H   UNL     1       5.145   3.237  -1.399  0.00  0.00    +0.155 HD
BRANCH  27  29
ATOM     29  C   UNL     1       4.173   3.823  -3.121  0.00  0.00    +0.045 A 
ATOM     30  C   UNL     1       2.941   4.324  -3.524  0.00  0.00    +0.024 A 
ATOM     31  C   UNL     1       2.818   4.947  -4.750  0.00  0.00    +0.002 A 
ATOM     32  C   UNL     1       3.917   5.063  -5.582  0.00  0.00    +0.001 A 
ATOM     33  C   UNL     1       5.143   4.560  -5.187  0.00  0.00    +0.014 A 
ATOM     34  C   UNL     1       5.274   3.941  -3.959  0.00  0.00    +0.076 A 
BRANCH  34  35
ATOM     35  C   UNL     1       6.611   3.393  -3.529  0.00  0.00    +0.419 C 
ATOM     36  F   UNL     1       7.556   3.630  -4.532  0.00  0.00    -0.166 F 
ATOM     37  F   UNL     1       7.015   4.026  -2.348  0.00  0.00    -0.166 F 
ATOM     38  F   UNL     1       6.501   2.017  -3.307  0.00  0.00    -0.166 F 
ENDBRANCH  34  35
ENDBRANCH  27  29
ENDBRANCH  24  25
ENDBRANCH  20  24
ENDBRANCH   1  20
TORSDOF 8
