REMARK  Name = ZINC17198128
REMARK  6 active torsions:
REMARK  status: ('A' for Active; 'I' for Inactive)
REMARK    1  A    between atoms: C_1  and  C_2
REMARK    2  A    between atoms: C_5  and  C_8
REMARK    3  A    between atoms: N_10  and  C_15
REMARK    4  A    between atoms: C_16  and  C_28
REMARK    5  A    between atoms: N_17  and  C_27
REMARK    6  A    between atoms: N_18  and  C_21
REMARK                            x       y       z     vdW  Elec       q    Type
REMARK                         _______ _______ _______ _____ _____    ______ ____
ROOT
ATOM      1  C   UNL     1       0.407  -2.020   0.703  0.00  0.00    +0.125 A 
ATOM      2  C   UNL     1      -0.304  -0.944   1.110  0.00  0.00    +0.060 A 
ATOM      3  N   UNL     1      -0.594  -0.172   0.015  0.00  0.00    -0.282 N 
ATOM      4  N   UNL     1      -0.057  -0.776  -1.127  0.00  0.00    -0.216 N 
ATOM      5  C   UNL     1       0.570  -1.909  -0.747  0.00  0.00    +0.294 A 
ATOM      6  O   UNL     1       1.157  -2.691  -1.472  0.00  0.00    -0.264 OA
ATOM      7  C   UNL     1      -1.351   1.082   0.037  0.00  0.00    +0.171 C 
ATOM      8  C   UNL     1      -0.711  -0.644   2.529  0.00  0.00    +0.067 C 
ENDROOT
BRANCH   1  10
ATOM      9  C   UNL     1      -0.020  -3.828   2.380  0.00  0.00    +0.170 C 
ATOM     10  N   UNL     1       0.898  -3.055   1.523  0.00  0.00    -0.248 N 
ATOM     11  C   UNL     1       2.194  -3.341   1.538  0.00  0.00    +0.231 C 
ATOM     12  O   UNL     1       2.982  -2.722   0.855  0.00  0.00    -0.274 OA
ATOM     13  C   UNL     1       2.654  -4.474   2.441  0.00  0.00    +0.167 C 
ATOM     14  S   UNL     1       1.036  -5.274   2.828  0.00  0.00    -0.124 S 
BRANCH   9  19
ATOM     15  C   UNL     1      -4.691  -5.512  -0.577  0.00  0.00    +0.044 C 
ATOM     16  C   UNL     1      -3.473  -5.073   0.194  0.00  0.00    -0.050 A 
ATOM     17  C   UNL     1      -3.564  -4.833   1.553  0.00  0.00    +0.004 A 
ATOM     18  C   UNL     1      -2.447  -4.430   2.260  0.00  0.00    +0.006 A 
ATOM     19  C   UNL     1      -1.238  -4.268   1.609  0.00  0.00    -0.017 A 
ATOM     20  C   UNL     1      -1.149  -4.503   0.249  0.00  0.00    +0.006 A 
ATOM     21  C   UNL     1      -2.265  -4.911  -0.457  0.00  0.00    +0.004 A 
ENDBRANCH   9  19
ENDBRANCH   1  10
BRANCH   4  22
ATOM     22  C   UNL     1      -0.151  -0.289  -2.435  0.00  0.00    +0.067 A 
ATOM     23  C   UNL     1      -0.536  -1.135  -3.467  0.00  0.00    +0.028 A 
ATOM     24  C   UNL     1      -0.633  -0.650  -4.756  0.00  0.00    +0.002 A 
ATOM     25  C   UNL     1      -0.337   0.675  -5.022  0.00  0.00    +0.000 A 
ATOM     26  C   UNL     1       0.052   1.518  -3.997  0.00  0.00    +0.002 A 
ATOM     27  C   UNL     1       0.146   1.041  -2.705  0.00  0.00    +0.028 A 
ENDBRANCH   4  22
TORSDOF 3
