REMARK  Name = ZINC20214633
REMARK  13 active torsions:
REMARK  status: ('A' for Active; 'I' for Inactive)
REMARK    1  A    between atoms: C_1  and  C_2
REMARK    2  A    between atoms: C_2  and  O_3
REMARK    3  A    between atoms: O_3  and  C_4
REMARK    4  A    between atoms: C_4  and  C_6
REMARK    5  A    between atoms: C_7  and  C_24
REMARK    6  A    between atoms: C_12  and  C_14
REMARK    7  A    between atoms: C_17  and  O_20
REMARK    8  A    between atoms: O_20  and  C_21
REMARK    9  A    between atoms: C_21  and  C_22
REMARK   10  A    between atoms: C_21  and  C_23
REMARK   11  A    between atoms: C_24  and  N_25
REMARK   12  A    between atoms: C_28  and  C_31
REMARK   13  A    between atoms: C_34  and  C_37
REMARK                            x       y       z     vdW  Elec       q    Type
REMARK                         _______ _______ _______ _____ _____    ______ ____
ROOT
ATOM      1  C   UNL     1      -1.174   2.020   1.075  0.00  0.00    +0.079 C 
ATOM      2  C   UNL     1      -0.598   2.774   2.035  0.00  0.00    +0.038 C 
ATOM      3  N   UNL     1       0.744   3.030   2.021  0.00  0.00    -0.271 N 
ATOM      4  C   UNL     1       1.577   2.570   1.080  0.00  0.00    +0.304 C 
ATOM      5  O   UNL     1       2.758   2.851   1.151  0.00  0.00    -0.252 OA
ATOM      6  N   UNL     1       1.151   1.803   0.057  0.00  0.00    -0.288 N 
ATOM      7  C   UNL     1      -0.281   1.468  -0.018  0.00  0.00    +0.144 C 
ATOM      8  H   UNL     1       1.195   3.647   2.812  0.00  0.00    +0.156 HD
ATOM      9  H   UNL     1       1.844   1.429  -0.711  0.00  0.00    +0.151 HD
ENDROOT
BRANCH   7  10
ATOM     10  C   UNL     1      -0.806   1.966  -1.341  0.00  0.00    -0.022 A 
ATOM     11  C   UNL     1      -0.450   3.222  -1.795  0.00  0.00    +0.009 A 
ATOM     12  C   UNL     1      -0.925   3.679  -3.010  0.00  0.00    +0.046 A 
ATOM     13  C   UNL     1      -1.769   2.880  -3.768  0.00  0.00    +0.121 A 
ATOM     14  C   UNL     1      -2.129   1.622  -3.306  0.00  0.00    +0.046 A 
ATOM     15  C   UNL     1      -1.647   1.168  -2.094  0.00  0.00    +0.009 A 
BRANCH  13  16
ATOM     16  O   UNL     1      -2.242   3.329  -4.960  0.00  0.00    -0.489 OA
BRANCH  16  17
ATOM     17  C   UNL     1      -2.988   2.402  -5.752  0.00  0.00    +0.167 C 
ATOM     18  C   UNL     1      -4.475   2.526  -5.416  0.00  0.00    +0.051 C 
ATOM     19  C   UNL     1      -2.772   2.711  -7.235  0.00  0.00    +0.051 C 
ENDBRANCH  16  17
ENDBRANCH  13  16
ENDBRANCH   7  10
BRANCH   1  20
ATOM     20  C   UNL     1      -2.563   1.753   1.089  0.00  0.00    +0.339 C 
ATOM     21  O   UNL     1      -3.273   2.272   1.930  0.00  0.00    -0.245 OA
BRANCH  20  22
ATOM     22  O   UNL     1      -3.100   0.924   0.170  0.00  0.00    -0.462 OA
BRANCH  22  24
ATOM     23  C   UNL     1      -4.933  -0.258  -0.871  0.00  0.00    +0.048 C 
ATOM     24  C   UNL     1      -4.510   0.701   0.243  0.00  0.00    +0.229 C 
ENDBRANCH  22  24
ENDBRANCH  20  22
ENDBRANCH   1  20
BRANCH   2  25
ATOM     25  C   UNL     1      -1.448   3.342   3.142  0.00  0.00    +0.135 C 
BRANCH  25  26
ATOM     26  N   UNL     1      -1.513   2.382   4.252  0.00  0.00    -0.296 NA
ATOM     27  C   UNL     1      -0.255   2.387   5.030  0.00  0.00    +0.085 C 
ATOM     28  C   UNL     1      -0.019   0.945   5.516  0.00  0.00    +0.025 C 
ATOM     29  C   UNL     1      -1.198   0.127   4.940  0.00  0.00    +0.034 C 
ATOM     30  C   UNL     1      -1.671   0.994   3.747  0.00  0.00    +0.093 C 
BRANCH  29  31
ATOM     31  C   UNL     1      -0.729  -1.225   4.468  0.00  0.00    -0.043 A 
ATOM     32  C   UNL     1       0.249  -1.317   3.495  0.00  0.00    +0.004 A 
ATOM     33  C   UNL     1       0.683  -2.557   3.065  0.00  0.00    +0.003 A 
ATOM     34  C   UNL     1       0.132  -3.706   3.601  0.00  0.00    -0.050 A 
ATOM     35  C   UNL     1      -0.850  -3.614   4.571  0.00  0.00    +0.003 A 
ATOM     36  C   UNL     1      -1.280  -2.374   5.004  0.00  0.00    +0.004 A 
ATOM     37  C   UNL     1       0.601  -5.058   3.129  0.00  0.00    +0.044 C 
ENDBRANCH  29  31
ENDBRANCH  25  26
ENDBRANCH   2  25
TORSDOF 9
