REMARK  Name = ZINC12494303
REMARK  9 active torsions:
REMARK  status: ('A' for Active; 'I' for Inactive)
REMARK    1  A    between atoms: C_10  and  O_11
REMARK    2  A    between atoms: O_11  and  C_12
REMARK    3  A    between atoms: C_12  and  C_13
REMARK    4  A    between atoms: N_15  and  N_16
REMARK    5  A    between atoms: C_17  and  C_19
REMARK    6  A    between atoms: C_19  and  S_20
REMARK    7  A    between atoms: S_20  and  C_21
REMARK    8  A    between atoms: C_23  and  C_32
REMARK    9  A    between atoms: C_24  and  C_27
REMARK                            x       y       z     vdW  Elec       q    Type
REMARK                         _______ _______ _______ _____ _____    ______ ____
ROOT
ATOM      1  N   UNL     1      -4.948   8.277   2.055  0.00  0.00    -0.234 N 
ATOM      2  C   UNL     1      -5.209   7.181   1.317  0.00  0.00    +0.239 C 
ATOM      3  O   UNL     1      -6.298   7.041   0.802  0.00  0.00    -0.273 OA
ATOM      4  H   UNL     1      -4.077   8.389   2.467  0.00  0.00    +0.173 HD
ENDROOT
BRANCH   1   7
ATOM      5  C   UNL     1      -5.675  10.353   2.967  0.00  0.00    +0.267 C 
ATOM      6  O   UNL     1      -4.585  10.493   3.481  0.00  0.00    -0.271 OA
ATOM      7  N   UNL     1      -5.935   9.256   2.228  0.00  0.00    -0.232 N 
ATOM      8  H   UNL     1      -6.806   9.145   1.817  0.00  0.00    +0.173 HD
BRANCH   5   9
ATOM      9  C   UNL     1      -6.736  11.406   3.153  0.00  0.00    +0.326 C 
BRANCH   9  10
ATOM     10  O   UNL     1      -6.223  12.462   3.968  0.00  0.00    -0.482 OA
BRANCH  10  20
ATOM     11  C   UNL     1      -5.812  16.719   6.594  0.00  0.00    +0.001 A 
ATOM     12  C   UNL     1      -4.939  15.665   6.333  0.00  0.00    +0.001 A 
ATOM     13  C   UNL     1      -5.326  14.608   5.568  0.00  0.00    +0.012 A 
ATOM     14  C   UNL     1      -6.625  14.573   5.036  0.00  0.00    +0.024 A 
ATOM     15  C   UNL     1      -7.512  15.647   5.297  0.00  0.00    -0.014 A 
ATOM     16  C   UNL     1      -7.077  16.722   6.091  0.00  0.00    +0.008 A 
ATOM     17  C   UNL     1      -8.810  15.614   4.761  0.00  0.00    +0.009 A 
ATOM     18  C   UNL     1      -9.199  14.558   3.995  0.00  0.00    +0.004 A 
ATOM     19  C   UNL     1      -8.330  13.503   3.731  0.00  0.00    +0.046 A 
ATOM     20  C   UNL     1      -7.059  13.498   4.234  0.00  0.00    +0.129 A 
ENDBRANCH  10  20
ENDBRANCH   9  10
ENDBRANCH   5   9
ENDBRANCH   1   7
BRANCH   2  21
ATOM     21  C   UNL     1      -4.147   6.128   1.131  0.00  0.00    +0.174 C 
BRANCH  21  22
ATOM     22  S   UNL     1      -4.798   4.791   0.099  0.00  0.00    -0.075 S 
BRANCH  22  23
ATOM     23  C   UNL     1      -3.390   3.732   0.047  0.00  0.00    +0.210 A 
ATOM     24  N   UNL     1      -3.454   2.596  -0.636  0.00  0.00    -0.215 NA
ATOM     25  C   UNL     1      -2.388   1.795  -0.675  0.00  0.00    +0.139 A 
ATOM     26  C   UNL     1      -1.221   2.192   0.020  0.00  0.00    +0.157 A 
ATOM     27  N   UNL     1      -1.232   3.343   0.687  0.00  0.00    -0.141 NA
ATOM     28  N   UNL     1      -2.284   4.085   0.691  0.00  0.00    -0.122 NA
BRANCH  26  29
ATOM     29  C   UNL     1      -0.016   1.343   0.009  0.00  0.00    +0.157 A 
ATOM     30  C   UNL     1       1.272   1.784  -0.001  0.00  0.00    +0.051 A 
ATOM     31  C   UNL     1       2.092   0.639  -0.015  0.00  0.00    +0.042 A 
ATOM     32  C   UNL     1       1.275  -0.433  -0.012  0.00  0.00    +0.196 A 
ATOM     33  O   UNL     1       0.002  -0.004   0.002  0.00  0.00    -0.461 OA
ENDBRANCH  26  29
BRANCH  25  34
ATOM     34  C   UNL     1      -2.425   0.526  -1.423  0.00  0.00    +0.155 A 
ATOM     35  C   UNL     1      -3.504  -0.296  -1.550  0.00  0.00    +0.051 A 
ATOM     36  C   UNL     1      -3.093  -1.383  -2.343  0.00  0.00    +0.042 A 
ATOM     37  C   UNL     1      -1.796  -1.179  -2.653  0.00  0.00    +0.196 A 
ATOM     38  O   UNL     1      -1.397  -0.026  -2.096  0.00  0.00    -0.461 OA
ENDBRANCH  25  34
ENDBRANCH  22  23
ENDBRANCH  21  22
ENDBRANCH   2  21
TORSDOF 9
