REMARK  Name = ZINC37051514
REMARK  4 active torsions:
REMARK  status: ('A' for Active; 'I' for Inactive)
REMARK    1  A    between atoms: C_1  and  C_2
REMARK    2  A    between atoms: C_7  and  N_8
REMARK    3  A    between atoms: N_8  and  C_9
REMARK    4  A    between atoms: N_18  and  C_19
REMARK                            x       y       z     vdW  Elec       q    Type
REMARK                         _______ _______ _______ _____ _____    ______ ____
ROOT
ATOM      1  N   UNL     1       0.026  -0.016   2.415  0.00  0.00    -0.337 N 
ATOM      2  H   UNL     1       0.013   0.954   2.422  0.00  0.00    +0.147 HD
ENDROOT
BRANCH   1   3
ATOM      3  C   UNL     1       0.048  -0.757   3.679  0.00  0.00    +0.104 C 
ATOM      4  C   UNL     1       0.645   0.123   4.784  0.00  0.00    +0.027 C 
ATOM      5  C   UNL     1       0.433  -0.548   6.143  0.00  0.00    +0.008 C 
ATOM      6  C   UNL     1      -1.055  -0.502   6.510  0.00  0.00    +0.055 C 
ATOM      7  C   UNL     1      -1.851  -1.013   5.335  0.00  0.00    +0.044 A 
ATOM      8  C   UNL     1      -1.360  -1.129   4.074  0.00  0.00    +0.013 A 
ATOM      9  C   UNL     1      -2.372  -1.634   3.262  0.00  0.00    +0.140 A 
ATOM     10  N   UNL     1      -3.436  -1.817   4.004  0.00  0.00    -0.179 NA
ATOM     11  N   UNL     1      -3.129  -1.428   5.318  0.00  0.00    -0.271 N 
ATOM     12  C   UNL     1      -4.038  -1.470   6.466  0.00  0.00    +0.172 C 
ENDBRANCH   1   3
BRANCH   1  19
ATOM     13  C   UNL     1      -0.018   1.503   0.010  0.00  0.00    +0.046 C 
ATOM     14  C   UNL     1       0.002  -0.004   0.002  0.00  0.00    -0.029 A 
ATOM     15  C   UNL     1       0.006  -0.689  -1.198  0.00  0.00    +0.020 A 
ATOM     16  C   UNL     1       0.024  -2.072  -1.206  0.00  0.00    +0.018 A 
ATOM     17  C   UNL     1       0.039  -2.774  -0.013  0.00  0.00    +0.017 A 
ATOM     18  C   UNL     1       0.035  -2.095   1.189  0.00  0.00    +0.024 A 
ATOM     19  C   UNL     1       0.023  -0.706   1.200  0.00  0.00    +0.031 A 
ATOM     20 BR   UNL     1       0.028  -3.006  -2.850  0.00  0.00    -0.050 Br
ENDBRANCH   1  19
TORSDOF 2
