REMARK  Name = ZINC39590457
REMARK  5 active torsions:
REMARK  status: ('A' for Active; 'I' for Inactive)
REMARK    1  A    between atoms: C_4  and  C_7
REMARK    2  A    between atoms: C_9  and  C_13
REMARK    3  A    between atoms: C_17  and  S_32
REMARK    4  A    between atoms: N_19  and  N_20
REMARK    5  A    between atoms: C_21  and  C_22
REMARK                            x       y       z     vdW  Elec       q    Type
REMARK                         _______ _______ _______ _____ _____    ______ ____
ROOT
ATOM      1  C   UNL     1       5.784  -2.998   1.173  0.00  0.00    +0.263 C 
ATOM      2  N   UNL     1       5.479  -2.226   2.379  0.00  0.00    -0.163 NA
ATOM      3  N   UNL     1       6.493  -1.962   3.021  0.00  0.00    -0.155 NA
ATOM      4  C   UNL     1       7.696  -2.501   2.384  0.00  0.00    +0.288 C 
ATOM      5  N   UNL     1       7.245  -3.190   1.161  0.00  0.00    -0.192 N 
ENDROOT
BRANCH   1   8
ATOM      6  C   UNL     1       3.715  -0.661  -0.044  0.00  0.00    +0.091 C 
ATOM      7  C   UNL     1       3.842  -2.002  -0.062  0.00  0.00    +0.035 C 
ATOM      8  C   UNL     1       5.344  -2.224  -0.072  0.00  0.00    +0.198 C 
ATOM      9  N   UNL     1       5.887  -0.856  -0.055  0.00  0.00    -0.176 NA
ATOM     10  N   UNL     1       4.938  -0.068  -0.047  0.00  0.00    -0.154 NA
BRANCH   6  14
ATOM     11  C   UNL     1       0.010   1.424  -0.001  0.00  0.00    +0.000 A 
ATOM     12  C   UNL     1       1.198   2.132  -0.002  0.00  0.00    +0.001 A 
ATOM     13  C   UNL     1       2.404   1.460  -0.015  0.00  0.00    +0.010 A 
ATOM     14  C   UNL     1       2.422   0.067  -0.029  0.00  0.00    +0.002 A 
ATOM     15  C   UNL     1       1.222  -0.641  -0.028  0.00  0.00    +0.010 A 
ATOM     16  C   UNL     1       0.022   0.041  -0.014  0.00  0.00    +0.001 A 
ENDBRANCH   6  14
ENDBRANCH   1   8
BRANCH   5  17
ATOM     17  N   UNL     1       8.020  -3.867   0.210  0.00  0.00    -0.187 NA
ATOM     18  C   UNL     1       9.309  -3.940   0.357  0.00  0.00    +0.138 C 
BRANCH  18  19
ATOM     19  C   UNL     1      10.124  -4.651  -0.640  0.00  0.00    +0.002 A 
ATOM     20  C   UNL     1      11.511  -4.644  -0.559  0.00  0.00    +0.010 A 
ATOM     21  C   UNL     1      12.277  -5.315  -1.502  0.00  0.00    +0.001 A 
ATOM     22  C   UNL     1      11.710  -6.000  -2.533  0.00  0.00    +0.008 A 
ATOM     23  C   UNL     1      10.313  -6.050  -2.677  0.00  0.00    -0.017 A 
ATOM     24  C   UNL     1       9.491  -5.384  -1.735  0.00  0.00    -0.009 A 
ATOM     25  C   UNL     1       8.099  -5.437  -1.872  0.00  0.00    +0.009 A 
ATOM     26  C   UNL     1       7.550  -6.133  -2.908  0.00  0.00    +0.001 A 
ATOM     27  C   UNL     1       8.355  -6.793  -3.833  0.00  0.00    +0.001 A 
ATOM     28  C   UNL     1       9.713  -6.752  -3.736  0.00  0.00    +0.008 A 
ENDBRANCH  18  19
ENDBRANCH   5  17
BRANCH   4  29
ATOM     29  S   UNL     1       8.833  -1.153   1.958  0.00  0.00    -0.130 S 
ATOM     30  H   UNL     1       9.134  -0.595   3.144  0.00  0.00    +0.105 HD
ENDBRANCH   4  29
TORSDOF 5
