REMARK  Name = ZINC39693492
REMARK  13 active torsions:
REMARK  status: ('A' for Active; 'I' for Inactive)
REMARK    1  A    between atoms: C_1  and  C_2
REMARK    2  A    between atoms: C_2  and  C_3
REMARK    3  A    between atoms: C_3  and  C_5
REMARK    4  A    between atoms: C_3  and  C_11
REMARK    5  A    between atoms: C_15  and  C_24
REMARK    6  A    between atoms: N_26  and  C_27
REMARK    7  A    between atoms: C_27  and  C_28
REMARK    8  A    between atoms: C_28  and  N_29
REMARK    9  A    between atoms: C_30  and  O_32
REMARK   10  A    between atoms: O_32  and  C_33
REMARK   11  A    between atoms: C_33  and  C_34
REMARK   12  A    between atoms: C_33  and  C_35
REMARK   13  A    between atoms: C_33  and  C_36
REMARK                            x       y       z     vdW  Elec       q    Type
REMARK                         _______ _______ _______ _____ _____    ______ ____
ROOT
ATOM      1  C   UNL     1       0.657  -2.161  -1.300  0.00  0.00    +0.223 C 
ATOM      2  O   UNL     1       1.654  -2.849  -1.365  0.00  0.00    -0.275 OA
ATOM      3  N   UNL     1      -0.562  -2.730  -1.386  0.00  0.00    -0.300 N 
ATOM      4  C   UNL     1      -1.883  -2.061  -1.333  0.00  0.00    +0.121 C 
ATOM      5  C   UNL     1      -2.737  -2.801  -2.386  0.00  0.00    +0.100 C 
ATOM      6  C   UNL     1      -2.078  -4.184  -2.525  0.00  0.00    -0.004 C 
ATOM      7  C   UNL     1      -0.883  -4.167  -1.561  0.00  0.00    +0.115 C 
ATOM      8  C   UNL     1      -3.062  -5.280  -2.130  0.00  0.00    -0.010 C 
ATOM      9  C   UNL     1      -2.403  -6.648  -2.332  0.00  0.00    -0.082 C 
ATOM     10  N   UNL     1      -2.008  -6.800  -3.738  0.00  0.00    +0.379 N 
ATOM     11  C   UNL     1      -0.992  -5.798  -4.083  0.00  0.00    -0.082 C 
ATOM     12  C   UNL     1      -1.591  -4.395  -3.956  0.00  0.00    -0.010 C 
ATOM     13  H   UNL     1      -1.629  -7.724  -3.881  0.00  0.00    -0.086 HD
ATOM     14  H   UNL     1      -2.816  -6.675  -4.328  0.00  0.00    -0.086 HD
ENDROOT
BRANCH   5  15
ATOM     15  C   UNL     1      -4.158  -2.941  -1.904  0.00  0.00    +0.218 C 
ATOM     16  O   UNL     1      -4.389  -3.034  -0.717  0.00  0.00    -0.275 OA
ATOM     17  N   UNL     1      -5.172  -2.963  -2.792  0.00  0.00    -0.314 N 
ATOM     18  H   UNL     1      -4.987  -2.889  -3.741  0.00  0.00    +0.149 HD
BRANCH  17  19
ATOM     19  C   UNL     1      -6.553  -3.099  -2.323  0.00  0.00    +0.123 C 
BRANCH  19  20
ATOM     20  C   UNL     1      -7.502  -3.097  -3.523  0.00  0.00    +0.126 C 
BRANCH  20  21
ATOM     21  N   UNL     1      -8.883  -3.233  -3.054  0.00  0.00    -0.280 N 
ATOM     22  C   UNL     1      -9.897  -3.255  -3.942  0.00  0.00    +0.401 C 
ATOM     23  O   UNL     1      -9.666  -3.162  -5.131  0.00  0.00    -0.226 OA
ATOM     24  H   UNL     1      -9.068  -3.307  -2.105  0.00  0.00    +0.152 HD
BRANCH  22  25
ATOM     25  O   UNL     1     -11.167  -3.380  -3.511  0.00  0.00    -0.445 OA
BRANCH  25  26
ATOM     26  C   UNL     1     -12.191  -3.396  -4.507  0.00  0.00    +0.107 C 
ATOM     27  C   UNL     1     -11.961  -4.574  -5.456  0.00  0.00    +0.055 C 
ATOM     28  C   UNL     1     -13.556  -3.544  -3.832  0.00  0.00    +0.055 C 
ATOM     29  C   UNL     1     -12.153  -2.087  -5.299  0.00  0.00    +0.055 C 
ENDBRANCH  25  26
ENDBRANCH  22  25
ENDBRANCH  20  21
ENDBRANCH  19  20
ENDBRANCH  17  19
ENDBRANCH   5  15
BRANCH   1  30
ATOM     30  C   UNL     1       0.781  -0.670  -1.121  0.00  0.00    +0.105 C 
BRANCH  30  31
ATOM     31  C   UNL     1       2.238  -0.292  -1.054  0.00  0.00    -0.036 A 
ATOM     32  C   UNL     1       3.045  -0.820  -0.063  0.00  0.00    +0.004 A 
ATOM     33  C   UNL     1       4.381  -0.473  -0.001  0.00  0.00    +0.000 A 
ATOM     34  C   UNL     1       4.912   0.402  -0.931  0.00  0.00    +0.000 A 
ATOM     35  C   UNL     1       4.106   0.929  -1.923  0.00  0.00    +0.000 A 
ATOM     36  C   UNL     1       2.770   0.579  -1.987  0.00  0.00    +0.004 A 
ENDBRANCH  30  31
BRANCH  30  38
ATOM     37  C   UNL     1       0.103   1.274   0.295  0.00  0.00    +0.005 C 
ATOM     38  C   UNL     1       0.085  -0.252   0.176  0.00  0.00    +0.014 C 
ENDBRANCH  30  38
ENDBRANCH   1  30
TORSDOF 9
