REMARK  Name = ZINC22172051
REMARK  10 active torsions:
REMARK  status: ('A' for Active; 'I' for Inactive)
REMARK    1  A    between atoms: C_1  and  C_2
REMARK    2  A    between atoms: C_2  and  C_3
REMARK    3  A    between atoms: C_3  and  C_4
REMARK    4  A    between atoms: C_4  and  N_5
REMARK    5  A    between atoms: C_9  and  S_29
REMARK    6  A    between atoms: C_13  and  C_14
REMARK    7  A    between atoms: C_14  and  S_15
REMARK    8  A    between atoms: S_15  and  C_16
REMARK    9  A    between atoms: N_21  and  C_22
REMARK   10  A    between atoms: S_29  and  N_32
REMARK                            x       y       z     vdW  Elec       q    Type
REMARK                         _______ _______ _______ _____ _____    ______ ____
ROOT
ATOM      1  N   UNL     1      -2.199   3.751  -4.878  0.00  0.00    -0.327 N 
ATOM      2  C   UNL     1      -2.074   3.046  -3.698  0.00  0.00    +0.069 A 
ATOM      3  C   UNL     1      -1.635   3.368  -2.421  0.00  0.00    +0.030 A 
ATOM      4  C   UNL     1      -1.642   2.406  -1.433  0.00  0.00    +0.030 A 
ATOM      5  C   UNL     1      -2.073   1.116  -1.711  0.00  0.00    +0.107 A 
ATOM      6  C   UNL     1      -2.508   0.781  -2.962  0.00  0.00    +0.058 A 
ATOM      7  C   UNL     1      -2.516   1.742  -3.977  0.00  0.00    +0.091 A 
ATOM      8  N   UNL     1      -2.879   1.719  -5.285  0.00  0.00    -0.231 NA
ATOM      9  C   UNL     1      -2.693   2.894  -5.811  0.00  0.00    +0.121 A 
ENDROOT
BRANCH   5  10
ATOM     10  S   UNL     1      -2.065  -0.099  -0.436  0.00  0.00    +0.056 S 
ATOM     11  O   UNL     1      -3.030  -1.077  -0.801  0.00  0.00    -0.153 OA
ATOM     12  O   UNL     1      -2.123   0.605   0.797  0.00  0.00    -0.153 OA
BRANCH  10  13
ATOM     13  N   UNL     1      -0.590  -0.850  -0.483  0.00  0.00    -0.204 NA
ATOM     14  H   UNL     1      -0.545  -1.620   0.301  0.00  0.00    +0.144 HD
ATOM     15  H   UNL     1       0.204  -0.108  -0.315  0.00  0.00    +0.144 HD
ENDBRANCH  10  13
ENDBRANCH   5  10
BRANCH   1  16
ATOM     16  C   UNL     1      -1.861   5.161  -5.087  0.00  0.00    +0.123 C 
BRANCH  16  17
ATOM     17  C   UNL     1      -3.086   6.029  -4.793  0.00  0.00    +0.021 C 
BRANCH  17  19
ATOM     18  C   UNL     1      -3.959   8.368  -4.718  0.00  0.00    +0.004 C 
ATOM     19  C   UNL     1      -2.733   7.501  -5.011  0.00  0.00    -0.002 C 
ENDBRANCH  17  19
ENDBRANCH  16  17
ENDBRANCH   1  16
BRANCH   9  20
ATOM     20  C   UNL     1      -2.983   3.253  -7.246  0.00  0.00    +0.150 C 
BRANCH  20  21
ATOM     21  S   UNL     1      -4.693   3.844  -7.387  0.00  0.00    -0.089 S 
BRANCH  21  22
ATOM     22  C   UNL     1      -4.874   4.219  -9.100  0.00  0.00    +0.160 A 
ATOM     23  N   UNL     1      -3.995   4.107 -10.077  0.00  0.00    -0.133 NA
ATOM     24  N   UNL     1      -4.350   4.459 -11.359  0.00  0.00    -0.125 NA
ATOM     25  C   UNL     1      -5.566   4.906 -11.605  0.00  0.00    +0.187 A 
ATOM     26  S   UNL     1      -6.299   4.843  -9.977  0.00  0.00    -0.024 S 
ATOM     27  N   UNL     1      -6.128   5.313 -12.809  0.00  0.00    -0.292 N 
ATOM     28  H   UNL     1      -7.136   5.755 -12.824  0.00  0.00    +0.154 HD
BRANCH  27  29
ATOM     29  C   UNL     1      -5.415   5.161 -14.001  0.00  0.00    +0.036 A 
ATOM     30  C   UNL     1      -4.447   4.169 -14.110  0.00  0.00    +0.023 A 
ATOM     31  C   UNL     1      -3.743   4.020 -15.289  0.00  0.00    +0.005 A 
ATOM     32  C   UNL     1      -3.999   4.856 -16.360  0.00  0.00    +0.038 A 
ATOM     33  C   UNL     1      -4.963   5.845 -16.256  0.00  0.00    +0.125 A 
ATOM     34  C   UNL     1      -5.675   5.996 -15.079  0.00  0.00    +0.061 A 
ATOM     35  F   UNL     1      -5.210   6.660 -17.304  0.00  0.00    -0.205 F 
ENDBRANCH  27  29
ENDBRANCH  21  22
ENDBRANCH  20  21
ENDBRANCH   9  20
TORSDOF 9
