REMARK  Name = ZINC43171698
REMARK  12 active torsions:
REMARK  status: ('A' for Active; 'I' for Inactive)
REMARK    1  A    between atoms: C_1  and  C_2
REMARK    2  A    between atoms: N_8  and  C_9
REMARK    3  A    between atoms: C_9  and  C_10
REMARK    4  A    between atoms: N_15  and  C_17
REMARK    5  A    between atoms: C_20  and  C_23
REMARK    6  A    between atoms: C_23  and  CA_24
REMARK    7  A    between atoms: CA_24  and  C_26
REMARK    8  A    between atoms: CA_24  and  N_29
REMARK    9  A    between atoms: C_30  and  C_32
REMARK   10  A    between atoms: C_33  and  C_40
REMARK   11  A    between atoms: C_35  and  C_39
REMARK   12  A    between atoms: C_37  and  C_38
REMARK                            x       y       z     vdW  Elec       q    Type
REMARK                         _______ _______ _______ _____ _____    ______ ____
ROOT
ATOM      1  C   UNL     1       0.851  -3.219   8.398  0.00  0.00    +0.036 A 
ATOM      2  C   UNL     1       0.050  -2.285   9.042  0.00  0.00    +0.024 A 
ATOM      3  C   UNL     1       0.030  -2.227  10.421  0.00  0.00    +0.005 A 
ATOM      4  C   UNL     1       0.808  -3.098  11.162  0.00  0.00    -0.045 A 
ATOM      5  C   UNL     1       1.608  -4.029  10.525  0.00  0.00    +0.005 A 
ATOM      6  C   UNL     1       1.627  -4.096   9.145  0.00  0.00    +0.024 A 
ENDROOT
BRANCH   1  11
ATOM      7  C   UNL     1       1.751  -3.574   4.789  0.00  0.00    +0.033 C 
ATOM      8  C   UNL     1       0.378  -2.864   4.748  0.00  0.00    +0.103 C 
ATOM      9  C   UNL     1       0.078  -2.553   6.197  0.00  0.00    +0.220 C 
ATOM     10  O   UNL     1      -0.759  -1.762   6.579  0.00  0.00    -0.275 OA
ATOM     11  N   UNL     1       0.873  -3.280   7.001  0.00  0.00    -0.271 N 
ATOM     12  C   UNL     1       1.768  -4.147   6.223  0.00  0.00    +0.119 C 
BRANCH   7  13
ATOM     13  C   UNL     1       1.819  -4.696   3.751  0.00  0.00    +0.108 C 
BRANCH  13  21
ATOM     14  C   UNL     1       2.044  -8.639   0.486  0.00  0.00    +0.044 C 
ATOM     15  C   UNL     1       2.005  -7.139   0.345  0.00  0.00    -0.046 A 
ATOM     16  C   UNL     1       2.030  -6.543  -0.909  0.00  0.00    +0.021 A 
ATOM     17  C   UNL     1       1.993  -5.167  -1.004  0.00  0.00    +0.084 A 
ATOM     18  N   UNL     1       1.934  -4.415   0.079  0.00  0.00    -0.350 N 
ATOM     19  C   UNL     1       1.909  -4.945   1.292  0.00  0.00    +0.096 A 
ATOM     20  C   UNL     1       1.938  -6.326   1.462  0.00  0.00    +0.045 A 
ATOM     21  N   UNL     1       1.847  -4.116   2.406  0.00  0.00    -0.330 N 
ATOM     22  H   UNL     1       1.823  -3.153   2.292  0.00  0.00    +0.147 HD
ATOM     23  H   UNL     1       1.909  -3.450  -0.015  0.00  0.00    +0.166 HD
ENDBRANCH  13  21
ENDBRANCH   7  13
ENDBRANCH   1  11
BRANCH   4  24
ATOM     24  C   UNL     1       0.785  -3.032  12.668  0.00  0.00    +0.069 C 
BRANCH  24  25
ATOM     25  CA  UNL     1      -0.309  -3.959  13.202  0.00  0.00    +0.191 C 
BRANCH  25  26
ATOM     26  N   UNL     1      -1.619  -3.466  12.772  0.00  0.00    -0.298 N 
ATOM     27  C   UNL     1      -2.658  -4.318  12.666  0.00  0.00    +0.245 C 
ATOM     28  O   UNL     1      -2.508  -5.496  12.927  0.00  0.00    -0.270 OA
ATOM     29  H   UNL     1      -1.740  -2.527  12.563  0.00  0.00    +0.150 HD
BRANCH  27  30
ATOM     30  C   UNL     1      -3.981  -3.821  12.232  0.00  0.00    +0.043 A 
ATOM     31  C   UNL     1      -4.315  -3.808  10.877  0.00  0.00    -0.038 A 
ATOM     32  C   UNL     1      -5.551  -3.343  10.479  0.00  0.00    +0.007 A 
ATOM     33  C   UNL     1      -6.459  -2.889  11.420  0.00  0.00    -0.050 A 
ATOM     34  C   UNL     1      -6.134  -2.899  12.765  0.00  0.00    +0.007 A 
ATOM     35  C   UNL     1      -4.904  -3.368  13.177  0.00  0.00    -0.038 A 
ATOM     36  C   UNL     1      -4.554  -3.384  14.642  0.00  0.00    +0.044 C 
ATOM     37  C   UNL     1      -7.808  -2.382  10.977  0.00  0.00    +0.044 C 
ATOM     38  C   UNL     1      -3.327  -4.300   9.851  0.00  0.00    +0.044 C 
ENDBRANCH  27  30
ENDBRANCH  25  26
BRANCH  25  39
ATOM     39  C   UNL     1      -0.252  -3.988  14.707  0.00  0.00    +0.376 C 
ATOM     40  O   UNL     1      -1.137  -3.464  15.361  0.00  0.00    -0.244 OA
ATOM     41  OXT UNL     1       0.680  -4.535  15.272  0.00  0.00    -0.244 OA
ENDBRANCH  25  39
ENDBRANCH  24  25
ENDBRANCH   4  24
TORSDOF 8
