REMARK  Name = ZINC12850563
REMARK  4 active torsions:
REMARK  status: ('A' for Active; 'I' for Inactive)
REMARK    1  A    between atoms: C_1  and  C_2
REMARK    2  A    between atoms: C_14  and  C_16
REMARK    3  A    between atoms: C_17  and  C_18
REMARK    4  A    between atoms: C_21  and  N_24
REMARK                            x       y       z     vdW  Elec       q    Type
REMARK                         _______ _______ _______ _____ _____    ______ ____
ROOT
ATOM      1  C   UNL     1      -2.915   3.196   2.272  0.00  0.00    +0.068 C 
ATOM      2  C   UNL     1      -3.743   3.242   3.339  0.00  0.00    +0.013 C 
ENDROOT
BRANCH   1  15
ATOM      3  C   UNL     1      -0.526   7.556  -1.682  0.00  0.00    +0.019 C 
ATOM      4  C   UNL     1      -0.846   6.086  -1.399  0.00  0.00    +0.050 C 
ATOM      5  C   UNL     1      -2.355   5.901  -1.335  0.00  0.00    +0.033 C 
ATOM      6  C   UNL     1      -2.829   4.473  -1.301  0.00  0.00    +0.115 C 
ATOM      7  N   UNL     1      -2.467   3.812  -0.039  0.00  0.00    -0.267 N 
ATOM      8  C   UNL     1      -1.242   3.133   0.032  0.00  0.00    +0.050 A 
ATOM      9  C   UNL     1      -1.223   1.744   0.017  0.00  0.00    +0.024 A 
ATOM     10  C   UNL     1      -0.013   1.076   0.008  0.00  0.00    +0.002 A 
ATOM     11  C   UNL     1       1.180   1.777   0.000  0.00  0.00    +0.001 A 
ATOM     12  C   UNL     1       1.170   3.162   0.025  0.00  0.00    +0.016 A 
ATOM     13  C   UNL     1      -0.041   3.827   0.059  0.00  0.00    +0.030 A 
ATOM     14  S   UNL     1      -0.093   5.598   0.182  0.00  0.00    -0.120 S 
ATOM     15  C   UNL     1      -3.293   3.858   1.026  0.00  0.00    +0.244 C 
ATOM     16  O   UNL     1      -4.353   4.452   0.949  0.00  0.00    -0.270 OA
ENDBRANCH   1  15
BRANCH   2  17
ATOM     17  C   UNL     1      -3.363   2.575   4.592  0.00  0.00    -0.025 A 
ATOM     18  C   UNL     1      -2.147   1.887   4.681  0.00  0.00    +0.010 A 
ATOM     19  C   UNL     1      -1.794   1.272   5.855  0.00  0.00    +0.025 A 
ATOM     20  C   UNL     1      -2.648   1.321   6.953  0.00  0.00    +0.051 A 
ATOM     21  C   UNL     1      -3.862   1.999   6.867  0.00  0.00    +0.025 A 
ATOM     22  C   UNL     1      -4.219   2.622   5.699  0.00  0.00    +0.010 A 
BRANCH  20  23
ATOM     23  N   UNL     1      -2.289   0.691   8.140  0.00  0.00    -0.207 N 
ATOM     24  C   UNL     1      -2.745   1.031   9.500  0.00  0.00    +0.133 C 
ATOM     25  C   UNL     1      -2.755  -0.222  10.401  0.00  0.00    +0.045 C 
ATOM     26  C   UNL     1      -1.393  -0.927  10.123  0.00  0.00    +0.190 C 
ATOM     27  S   UNL     1      -1.242  -0.607   8.318  0.00  0.00    +0.046 S 
ATOM     28  O   UNL     1      -1.820  -1.667   7.569  0.00  0.00    -0.155 OA
ATOM     29  O   UNL     1       0.047  -0.100   8.003  0.00  0.00    -0.155 OA
ENDBRANCH  20  23
ENDBRANCH   2  17
TORSDOF 3
