REMARK  Name = ZINC40491745
REMARK  12 active torsions:
REMARK  status: ('A' for Active; 'I' for Inactive)
REMARK    1  A    between atoms: C_1  and  C_2
REMARK    2  A    between atoms: C_2  and  C_3
REMARK    3  A    between atoms: C_3  and  C_4
REMARK    4  A    between atoms: C_4  and  C_6
REMARK    5  A    between atoms: C_4  and  N_7
REMARK    6  A    between atoms: C_8  and  C_10
REMARK    7  A    between atoms: C_10  and  C_12
REMARK    8  A    between atoms: C_10  and  N_13
REMARK    9  A    between atoms: N_13  and  C_14
REMARK   10  A    between atoms: C_19  and  C_20
REMARK   11  A    between atoms: C_20  and  O_21
REMARK   12  A    between atoms: O_21  and  C_22
REMARK                            x       y       z     vdW  Elec       q    Type
REMARK                         _______ _______ _______ _____ _____    ______ ____
ROOT
ATOM      1  N   UNL     1       1.729  -5.587   1.886  0.00  0.00    -0.333 N 
ATOM      2  H   UNL     1       0.826  -5.879   1.686  0.00  0.00    +0.147 HD
ENDROOT
BRANCH   1   3
ATOM      3  C   UNL     1       2.618  -6.455   2.525  0.00  0.00    +0.034 A 
ATOM      4  C   UNL     1       3.910  -6.036   2.818  0.00  0.00    +0.023 A 
ATOM      5  C   UNL     1       4.787  -6.896   3.450  0.00  0.00    +0.003 A 
ATOM      6  C   UNL     1       4.380  -8.174   3.790  0.00  0.00    +0.016 A 
ATOM      7  C   UNL     1       3.095  -8.594   3.500  0.00  0.00    +0.025 A 
ATOM      8  C   UNL     1       2.211  -7.736   2.874  0.00  0.00    +0.013 A 
ATOM      9 BR   UNL     1       2.544 -10.342   3.968  0.00  0.00    -0.050 Br
BRANCH   8  10
ATOM     10  C   UNL     1       0.808  -8.192   2.564  0.00  0.00    +0.197 C 
BRANCH  10  11
ATOM     11  O   UNL     1       0.778  -8.793   1.268  0.00  0.00    -0.378 OA
ATOM     12  C   UNL     1      -0.513  -9.263   0.875  0.00  0.00    +0.194 C 
ENDBRANCH  10  11
ENDBRANCH   8  10
ENDBRANCH   1   3
BRANCH   1  13
ATOM     13  C   UNL     1       2.161  -4.236   1.519  0.00  0.00    +0.154 C 
ATOM     14  C   UNL     1       1.983  -3.301   2.717  0.00  0.00    +0.038 C 
BRANCH  13  16
ATOM     15  N   UNL     1       1.548  -2.511  -0.144  0.00  0.00    -0.311 N 
ATOM     16  C   UNL     1       1.328  -3.739   0.366  0.00  0.00    +0.233 C 
ATOM     17  O   UNL     1       0.460  -4.443  -0.103  0.00  0.00    -0.274 OA
ATOM     18  H   UNL     1       2.243  -1.947   0.231  0.00  0.00    +0.149 HD
BRANCH  15  19
ATOM     19  C   UNL     1       0.739  -2.027  -1.265  0.00  0.00    +0.070 C 
ATOM     20  C   UNL     1       1.343  -2.522  -2.581  0.00  0.00    +0.028 C 
BRANCH  19  21
ATOM     21  C   UNL     1       0.718  -0.497  -1.257  0.00  0.00    +0.022 C 
BRANCH  21  23
ATOM     22  C   UNL     1      -0.019   1.526   0.010  0.00  0.00    +0.004 C 
ATOM     23  C   UNL     1       0.002  -0.004   0.002  0.00  0.00    -0.002 C 
ENDBRANCH  21  23
ENDBRANCH  19  21
ENDBRANCH  15  19
ENDBRANCH  13  16
ENDBRANCH   1  13
TORSDOF 8
