REMARK  Name = ZINC43408733
REMARK  5 active torsions:
REMARK  status: ('A' for Active; 'I' for Inactive)
REMARK    1  A    between atoms: C_1  and  C_2
REMARK    2  A    between atoms: C_2  and  C_3
REMARK    3  A    between atoms: C_7  and  C_23
REMARK    4  A    between atoms: C_12  and  C_20
REMARK    5  A    between atoms: C_20  and  N_22
REMARK                            x       y       z     vdW  Elec       q    Type
REMARK                         _______ _______ _______ _____ _____    ______ ____
ROOT
ATOM      1  C   UNL     1       0.715  -0.628  -1.149  0.00  0.00    +0.100 C 
ATOM      2  C   UNL     1       0.552  -2.153  -1.169  0.00  0.00    +0.182 C 
ATOM      3  O   UNL     1       1.368  -2.700  -2.207  0.00  0.00    -0.373 OA
ATOM      4  C   UNL     1       2.769  -2.476  -2.029  0.00  0.00    +0.132 C 
ATOM      5  C   UNL     1       3.046  -0.968  -2.054  0.00  0.00    +0.138 C 
ATOM      6  N   UNL     1       2.151  -0.316  -1.084  0.00  0.00    -0.308 N 
ATOM      7  C   UNL     1       2.646   0.565  -0.139  0.00  0.00    +0.109 A 
ATOM      8  C   UNL     1       2.670   1.944  -0.413  0.00  0.00    +0.041 A 
ATOM      9  C   UNL     1       3.176   2.811   0.561  0.00  0.00    +0.019 A 
ATOM     10  C   UNL     1       3.632   2.274   1.754  0.00  0.00    -0.027 A 
ATOM     11  C   UNL     1       3.577   0.906   1.954  0.00  0.00    +0.021 A 
ATOM     12  N   UNL     1       3.089   0.106   1.019  0.00  0.00    -0.346 N 
ATOM     13  C   UNL     1       4.130   0.572   3.325  0.00  0.00    +0.054 C 
ATOM     14  C   UNL     1       4.926   1.821   3.756  0.00  0.00    +0.011 C 
ATOM     15  C   UNL     1       4.223   2.950   2.971  0.00  0.00    +0.037 C 
ATOM     16  C   UNL     1       3.543  -3.157  -3.160  0.00  0.00    +0.039 C 
ATOM     17  H   UNL     1       3.059  -0.849   1.187  0.00  0.00    +0.167 HD
ENDROOT
BRANCH   1  19
ATOM     18  C   UNL     1      -1.501  -0.285  -0.048  0.00  0.00    +0.006 C 
ATOM     19  C   UNL     1       0.005  -0.050   0.077  0.00  0.00    +0.021 C 
ENDBRANCH   1  19
BRANCH   8  20
ATOM     20  C   UNL     1       2.173   2.464  -1.698  0.00  0.00    +0.080 C 
ATOM     21  S   UNL     1       1.693   1.379  -2.932  0.00  0.00    -0.035 S 
BRANCH  20  22
ATOM     22  N   UNL     1       2.097   3.794  -1.902  0.00  0.00    -0.352 N 
ATOM     23  H   UNL     1       2.369   4.409  -1.203  0.00  0.00    +0.143 HD
ATOM     24  H   UNL     1       1.770   4.137  -2.749  0.00  0.00    +0.143 HD
ENDBRANCH  20  22
ENDBRANCH   8  20
TORSDOF 3
