REMARK  Name = ZINC23645154
REMARK  6 active torsions:
REMARK  status: ('A' for Active; 'I' for Inactive)
REMARK    1  A    between atoms: C_1  and  C_2
REMARK    2  A    between atoms: C_2  and  C_4
REMARK    3  A    between atoms: C_2  and  O_17
REMARK    4  A    between atoms: N_6  and  C_7
REMARK    5  A    between atoms: C_10  and  N_14
REMARK    6  A    between atoms: O_17  and  C_18
REMARK                            x       y       z     vdW  Elec       q    Type
REMARK                         _______ _______ _______ _____ _____    ______ ____
ROOT
ATOM      1  C   UNL     1       2.405  -0.252   0.067  0.00  0.00    +0.258 C 
ATOM      2  O   UNL     1       1.376  -0.893   0.035  0.00  0.00    -0.271 OA
ATOM      3  N   UNL     1       2.364   1.093  -0.016  0.00  0.00    -0.281 N 
ATOM      4  H   UNL     1       3.299   1.670  -0.059  0.00  0.00    +0.155 HD
ENDROOT
BRANCH   3   5
ATOM      5  C   UNL     1       1.131   1.755  -0.046  0.00  0.00    +0.052 A 
ATOM      6  C   UNL     1       0.044   1.173  -0.684  0.00  0.00    +0.027 A 
ATOM      7  C   UNL     1      -1.170   1.831  -0.718  0.00  0.00    +0.034 A 
ATOM      8  C   UNL     1      -1.306   3.065  -0.107  0.00  0.00    +0.128 A 
ATOM      9  C   UNL     1      -0.227   3.648   0.530  0.00  0.00    +0.054 A 
ATOM     10  C   UNL     1       0.992   2.997   0.563  0.00  0.00    +0.064 A 
ATOM     11 CL   UNL     1       2.348   3.729   1.363  0.00  0.00    -0.082 Cl
BRANCH   8  12
ATOM     12  N   UNL     1      -2.610   3.765  -0.141  0.00  0.00    +0.056 N 
ATOM     13  O   UNL     1      -2.731   4.853   0.393  0.00  0.00    -0.126 OA
ATOM     14  O   UNL     1      -3.562   3.252  -0.702  0.00  0.00    -0.126 OA
ENDBRANCH   8  12
ENDBRANCH   3   5
BRANCH   1  16
ATOM     15  C   UNL     1       4.553  -0.737  -1.073  0.00  0.00    +0.062 C 
ATOM     16  C   UNL     1       3.729  -0.958   0.197  0.00  0.00    +0.256 C 
BRANCH  16  17
ATOM     17  O   UNL     1       3.506  -2.358   0.383  0.00  0.00    -0.477 OA
BRANCH  17  18
ATOM     18  C   UNL     1       4.387  -3.023   1.177  0.00  0.00    +0.157 A 
ATOM     19  C   UNL     1       5.513  -2.375   1.660  0.00  0.00    +0.050 A 
ATOM     20  C   UNL     1       6.404  -3.051   2.471  0.00  0.00    +0.019 A 
ATOM     21  C   UNL     1       6.181  -4.378   2.792  0.00  0.00    +0.021 A 
ATOM     22  C   UNL     1       5.061  -5.030   2.308  0.00  0.00    +0.057 A 
ATOM     23  C   UNL     1       4.163  -4.355   1.500  0.00  0.00    +0.166 A 
ATOM     24  F   UNL     1       3.069  -4.992   1.026  0.00  0.00    -0.202 F 
ATOM     25 BR   UNL     1       7.407  -5.302   3.895  0.00  0.00    -0.050 Br
ENDBRANCH  17  18
ENDBRANCH  16  17
ENDBRANCH   1  16
TORSDOF 5
