REMARK  Name = ZINC52541780
REMARK  9 active torsions:
REMARK  status: ('A' for Active; 'I' for Inactive)
REMARK    1  A    between atoms: C_1  and  C_2
REMARK    2  A    between atoms: C_2  and  C_3
REMARK    3  A    between atoms: C_2  and  C_4
REMARK    4  A    between atoms: C_2  and  N_37
REMARK    5  A    between atoms: N_6  and  C_7
REMARK    6  A    between atoms: C_7  and  C_9
REMARK    7  A    between atoms: C_7  and  C_19
REMARK    8  A    between atoms: C_9  and  C_10
REMARK    9  A    between atoms: C_34  and  O_36
REMARK                            x       y       z     vdW  Elec       q    Type
REMARK                         _______ _______ _______ _____ _____    ______ ____
ROOT
ATOM      1  C   UNL     1      -3.465  -1.164  -1.134  0.00  0.00    +0.163 C 
ENDROOT
BRANCH   1   2
ATOM      2  C   UNL     1      -3.485  -2.550  -0.541  0.00  0.00    +0.236 C 
ATOM      3  O   UNL     1      -2.564  -2.925   0.155  0.00  0.00    -0.274 OA
ATOM      4  N   UNL     1      -4.525  -3.372  -0.783  0.00  0.00    -0.299 N 
ATOM      5  C   UNL     1      -5.645  -2.935  -1.628  0.00  0.00    +0.108 C 
ATOM      6  C   UNL     1      -5.846  -3.958  -2.751  0.00  0.00    +0.020 C 
ATOM      7  C   UNL     1      -6.040  -5.349  -2.140  0.00  0.00    +0.013 C 
ATOM      8  C   UNL     1      -4.810  -5.729  -1.327  0.00  0.00    +0.021 C 
ATOM      9  C   UNL     1      -4.560  -4.726  -0.212  0.00  0.00    +0.118 C 
ATOM     10  C   UNL     1      -3.574  -5.841  -2.233  0.00  0.00    +0.046 C 
ATOM     11  C   UNL     1      -3.505  -7.302  -2.627  0.00  0.00    -0.041 A 
ATOM     12  C   UNL     1      -2.801  -7.925  -3.644  0.00  0.00    +0.004 A 
ATOM     13  C   UNL     1      -2.893  -9.292  -3.817  0.00  0.00    +0.000 A 
ATOM     14  C   UNL     1      -3.690 -10.042  -2.972  0.00  0.00    +0.000 A 
ATOM     15  C   UNL     1      -4.391  -9.423  -1.956  0.00  0.00    +0.006 A 
ATOM     16  C   UNL     1      -4.300  -8.053  -1.781  0.00  0.00    -0.015 A 
ATOM     17  C   UNL     1      -4.955  -7.148  -0.757  0.00  0.00    +0.153 C 
BRANCH  17  18
ATOM     18  O   UNL     1      -4.280  -7.250   0.499  0.00  0.00    -0.387 OA
ATOM     19  H   UNL     1      -4.337  -8.125   0.907  0.00  0.00    +0.210 HD
ENDBRANCH  17  18
ENDBRANCH   1   2
BRANCH   1  22
ATOM     20  C   UNL     1      -1.412  -0.526   0.013  0.00  0.00    +0.202 C 
ATOM     21  O   UNL     1      -1.939  -0.827   1.062  0.00  0.00    -0.277 OA
ATOM     22  N   UNL     1      -2.090  -0.657  -1.144  0.00  0.00    -0.305 N 
ATOM     23  H   UNL     1      -1.669  -0.416  -1.984  0.00  0.00    +0.149 HD
BRANCH  20  25
ATOM     24  C   UNL     1      -0.019   1.526   0.010  0.00  0.00    -0.001 C 
ATOM     25  C   UNL     1       0.002  -0.004   0.002  0.00  0.00    +0.001 C 
ATOM     26  C   UNL     1       0.742  -0.511   1.242  0.00  0.00    -0.001 C 
BRANCH  25  27
ATOM     27  N   UNL     1       0.690  -0.478  -1.207  0.00  0.00    +0.387 N 
ATOM     28  H   UNL     1       1.636  -0.129  -1.214  0.00  0.00    -0.089 HD
ATOM     29  H   UNL     1       0.703  -1.487  -1.212  0.00  0.00    -0.089 HD
ATOM     30  H   UNL     1       0.202  -0.144  -2.024  0.00  0.00    -0.089 HD
ENDBRANCH  25  27
ENDBRANCH  20  25
ENDBRANCH   1  22
BRANCH   1  31
ATOM     31  C   UNL     1      -4.344  -0.237  -0.293  0.00  0.00    +0.065 C 
BRANCH  31  32
ATOM     32  C   UNL     1      -4.423   1.115  -0.954  0.00  0.00    -0.039 C 
ATOM     33  C   UNL     1      -5.391   1.557  -1.789  0.00  0.00    -0.001 A 
ATOM     34  C   UNL     1      -6.612   0.934  -2.313  0.00  0.00    +0.010 A 
ATOM     35  C   UNL     1      -7.402   1.643  -3.152  0.00  0.00    +0.001 A 
ATOM     36  C   UNL     1      -7.083   2.954  -3.533  0.00  0.00    +0.002 A 
ATOM     37  C   UNL     1      -5.979   3.593  -3.092  0.00  0.00    +0.026 A 
ATOM     38  C   UNL     1      -5.077   2.943  -2.205  0.00  0.00    +0.043 A 
ATOM     39  N   UNL     1      -3.959   3.342  -1.649  0.00  0.00    -0.380 N 
ATOM     40  C   UNL     1      -3.440   2.256  -0.811  0.00  0.00    +0.144 C 
ATOM     41  H   UNL     1      -3.547   4.212  -1.769  0.00  0.00    +0.160 HD
ENDBRANCH  31  32
ENDBRANCH   1  31
TORSDOF 7
