REMARK  Name = ZINC13140126
REMARK  9 active torsions:
REMARK  status: ('A' for Active; 'I' for Inactive)
REMARK    1  A    between atoms: C_1  and  C_2
REMARK    2  A    between atoms: C_2  and  C_3
REMARK    3  A    between atoms: C_2  and  C_4
REMARK    4  A    between atoms: C_4  and  C_5
REMARK    5  A    between atoms: C_13  and  O_25
REMARK    6  A    between atoms: C_14  and  O_23
REMARK    7  A    between atoms: N_21  and  O_22
REMARK    8  A    between atoms: O_23  and  C_24
REMARK    9  A    between atoms: O_25  and  C_26
REMARK                            x       y       z     vdW  Elec       q    Type
REMARK                         _______ _______ _______ _____ _____    ______ ____
ROOT
ATOM      1  C   UNL     1       0.034   7.833  -2.851  0.00  0.00    +0.020 C 
ATOM      2  C   UNL     1       0.160   8.285  -1.392  0.00  0.00    -0.069 C 
ATOM      3  N   UNL     1      -0.662   7.415  -0.538  0.00  0.00    +0.385 N 
ATOM      4  C   UNL     1      -0.738   7.951   0.829  0.00  0.00    -0.073 C 
ATOM      5  C   UNL     1      -1.870   7.242   1.572  0.00  0.00    +0.017 C 
ATOM      6  C   UNL     1      -1.712   5.749   1.439  0.00  0.00    -0.044 A 
ATOM      7  C   UNL     1      -2.389   4.931   2.331  0.00  0.00    +0.053 A 
ATOM      8  C   UNL     1      -2.275   3.555   2.243  0.00  0.00    +0.162 A 
ATOM      9  C   UNL     1      -1.476   2.992   1.251  0.00  0.00    +0.162 A 
ATOM     10  C   UNL     1      -0.799   3.813   0.368  0.00  0.00    +0.051 A 
ATOM     11  C   UNL     1      -0.919   5.193   0.458  0.00  0.00    -0.054 A 
ATOM     12  C   UNL     1      -0.160   6.040  -0.530  0.00  0.00    -0.032 C 
ATOM     13  C   UNL     1      -0.306   5.433  -1.931  0.00  0.00    +0.044 C 
ATOM     14  C   UNL     1       0.371   6.358  -2.920  0.00  0.00    +0.058 C 
ATOM     15  N   UNL     1       1.199   5.909  -3.786  0.00  0.00    -0.096 NA
ATOM     16  H   UNL     1      -1.676   7.391  -0.964  0.00  0.00    -0.081 HD
ENDROOT
BRANCH  15  17
ATOM     17  O   UNL     1       1.709   6.768  -4.790  0.00  0.00    -0.409 OA
ATOM     18  H   UNL     1       2.421   6.382  -5.535  0.00  0.00    +0.328 HD
ENDBRANCH  15  17
BRANCH   9  19
ATOM     19  O   UNL     1      -1.358   1.641   1.155  0.00  0.00    -0.491 OA
ATOM     20  C   UNL     1      -0.521   1.135   0.112  0.00  0.00    +0.277 C 
ENDBRANCH   9  19
BRANCH   8  21
ATOM     21  O   UNL     1      -2.939   2.756   3.121  0.00  0.00    -0.491 OA
ATOM     22  C   UNL     1      -3.739   3.405   4.111  0.00  0.00    +0.277 C 
ENDBRANCH   8  21
BRANCH   1  23
ATOM     23  C   UNL     1       1.008   8.627  -3.724  0.00  0.00    +0.010 C 
BRANCH  23  25
ATOM     24  C   UNL     1       1.785  10.921  -4.338  0.00  0.00    +0.007 C 
ATOM     25  C   UNL     1       0.738  10.124  -3.558  0.00  0.00    -0.017 C 
ATOM     26  C   UNL     1      -0.657  10.453  -4.094  0.00  0.00    +0.007 C 
ENDBRANCH  23  25
ENDBRANCH   1  23
TORSDOF 5
