REMARK  Name = ZINC26457418
REMARK  6 active torsions:
REMARK  status: ('A' for Active; 'I' for Inactive)
REMARK    1  A    between atoms: C_3  and  N_9
REMARK    2  A    between atoms: C_10  and  C_12
REMARK    3  A    between atoms: N_17  and  C_18
REMARK    4  A    between atoms: C_18  and  C_19
REMARK    5  A    between atoms: N_21  and  C_22
REMARK    6  A    between atoms: C_22  and  C_23
REMARK                            x       y       z     vdW  Elec       q    Type
REMARK                         _______ _______ _______ _____ _____    ______ ____
ROOT
ATOM      1  C   UNL     1       2.296   5.676   0.225  0.00  0.00    +0.020 C 
ATOM      2  C   UNL     1       1.675   6.308  -1.039  0.00  0.00    -0.008 C 
ATOM      3  C   UNL     1       2.491   7.594  -1.285  0.00  0.00    -0.020 C 
ATOM      4  C   UNL     1       3.536   7.630  -0.149  0.00  0.00    -0.077 C 
ATOM      5  N   UNL     1       3.680   6.213   0.275  0.00  0.00    +0.393 N 
ATOM      6  H   UNL     1       4.380   5.648  -0.359  0.00  0.00    -0.080 HD
ENDROOT
BRANCH   1   8
ATOM      7  N   UNL     1       1.163   3.487   0.009  0.00  0.00    -0.286 N 
ATOM      8  C   UNL     1       2.319   4.174   0.104  0.00  0.00    +0.204 C 
ATOM      9  O   UNL     1       3.378   3.583   0.091  0.00  0.00    -0.277 OA
ATOM     10  H   UNL     1       0.206   4.027  -0.053  0.00  0.00    +0.155 HD
BRANCH   7  13
ATOM     11  C   UNL     1       2.236   0.031  -0.644  0.00  0.00    +0.022 A 
ATOM     12  C   UNL     1       2.223   1.412  -0.627  0.00  0.00    +0.026 A 
ATOM     13  C   UNL     1       1.179   2.087  -0.009  0.00  0.00    +0.052 A 
ATOM     14  C   UNL     1       0.150   1.371   0.591  0.00  0.00    +0.064 A 
ATOM     15  C   UNL     1       0.169  -0.010   0.571  0.00  0.00    +0.041 A 
ATOM     16  C   UNL     1       1.211  -0.680  -0.046  0.00  0.00    +0.042 A 
ATOM     17 CL   UNL     1       1.232  -2.416  -0.070  0.00  0.00    -0.083 Cl
ATOM     18 CL   UNL     1      -1.160   2.211   1.359  0.00  0.00    -0.082 Cl
ENDBRANCH   7  13
ENDBRANCH   1   8
BRANCH   5  19
ATOM     19  C   UNL     1       4.232   6.120   1.633  0.00  0.00    +0.020 C 
BRANCH  19  20
ATOM     20  C   UNL     1       5.705   6.440   1.599  0.00  0.00    +0.197 C 
ATOM     21  O   UNL     1       6.241   6.718   0.547  0.00  0.00    -0.278 OA
ATOM     22  N   UNL     1       6.425   6.418   2.738  0.00  0.00    -0.308 N 
ATOM     23  H   UNL     1       5.939   6.166   3.692  0.00  0.00    +0.149 HD
BRANCH  22  24
ATOM     24  C   UNL     1       7.856   6.728   2.705  0.00  0.00    +0.217 C 
BRANCH  24  25
ATOM     25  C   UNL     1       8.431   6.632   4.120  0.00  0.00    +0.405 C 
ATOM     26  F   UNL     1       8.247   5.335   4.611  0.00  0.00    -0.169 F 
ATOM     27  F   UNL     1       9.798   6.929   4.089  0.00  0.00    -0.169 F 
ATOM     28  F   UNL     1       7.775   7.544   4.953  0.00  0.00    -0.169 F 
ENDBRANCH  24  25
ENDBRANCH  22  24
ENDBRANCH  19  20
ENDBRANCH   5  19
TORSDOF 6
