REMARK  Name = ZINC36146732
REMARK  11 active torsions:
REMARK  status: ('A' for Active; 'I' for Inactive)
REMARK    1  A    between atoms: C_4  and  O_7
REMARK    2  A    between atoms: O_7  and  C_8
REMARK    3  A    between atoms: C_8  and  C_9
REMARK    4  A    between atoms: C_9  and  C_11
REMARK    5  A    between atoms: C_9  and  O_35
REMARK    6  A    between atoms: C_11  and  N_12
REMARK    7  A    between atoms: N_12  and  C_13
REMARK    8  A    between atoms: N_12  and  C_21
REMARK    9  A    between atoms: C_13  and  C_14
REMARK   10  A    between atoms: C_21  and  C_22
REMARK   11  A    between atoms: C_25  and  C_28
REMARK                            x       y       z     vdW  Elec       q    Type
REMARK                         _______ _______ _______ _____ _____    ______ ____
ROOT
ATOM      1  N   UNL     1       6.462  -4.556   0.264  0.00  0.00    +0.387 N 
ATOM      2  H   UNL     1       6.930  -4.030   0.986  0.00  0.00    -0.081 HD
ENDROOT
BRANCH   1   3
ATOM      3  C   UNL     1       5.029  -4.233   0.273  0.00  0.00    -0.043 C 
BRANCH   3   4
ATOM      4  C   UNL     1       4.465  -4.459   1.677  0.00  0.00    +0.135 C 
BRANCH   4   5
ATOM      5  O   UNL     1       5.146  -3.612   2.606  0.00  0.00    -0.390 OA
ATOM      6  H   UNL     1       4.999  -2.668   2.458  0.00  0.00    +0.210 HD
ENDBRANCH   4   5
BRANCH   4   7
ATOM      7  C   UNL     1       2.971  -4.128   1.686  0.00  0.00    +0.258 C 
BRANCH   7   8
ATOM      8  O   UNL     1       2.420  -4.449   2.965  0.00  0.00    -0.489 OA
BRANCH   8  12
ATOM      9  C   UNL     1      -1.608  -3.733   3.500  0.00  0.00    +0.000 A 
ATOM     10  C   UNL     1      -0.857  -4.261   4.534  0.00  0.00    +0.004 A 
ATOM     11  C   UNL     1       0.491  -4.502   4.357  0.00  0.00    +0.045 A 
ATOM     12  C   UNL     1       1.093  -4.213   3.141  0.00  0.00    +0.121 A 
ATOM     13  C   UNL     1       0.337  -3.684   2.105  0.00  0.00    +0.045 A 
ATOM     14  C   UNL     1      -1.011  -3.445   2.287  0.00  0.00    +0.004 A 
ENDBRANCH   8  12
ENDBRANCH   7   8
ENDBRANCH   4   7
ENDBRANCH   3   4
ENDBRANCH   1   3
BRANCH   1  15
ATOM     15  C   UNL     1       7.034  -4.207  -1.044  0.00  0.00    -0.041 C 
BRANCH  15  16
ATOM     16  C   UNL     1       6.967  -2.714  -1.239  0.00  0.00    -0.046 A 
ATOM     17  C   UNL     1       5.994  -2.166  -2.053  0.00  0.00    +0.003 A 
ATOM     18  C   UNL     1       5.933  -0.797  -2.232  0.00  0.00    +0.000 A 
ATOM     19  C   UNL     1       6.846   0.025  -1.598  0.00  0.00    +0.001 A 
ATOM     20  C   UNL     1       7.820  -0.522  -0.784  0.00  0.00    +0.020 A 
ATOM     21  C   UNL     1       7.878  -1.892  -0.600  0.00  0.00    +0.042 A 
ATOM     22 CL   UNL     1       9.097  -2.579   0.427  0.00  0.00    -0.083 Cl
ENDBRANCH  15  16
ENDBRANCH   1  15
BRANCH   1  23
ATOM     23  C   UNL     1       6.642  -5.993   0.509  0.00  0.00    -0.030 C 
BRANCH  23  24
ATOM     24  C   UNL     1       8.135  -6.308   0.623  0.00  0.00    +0.194 C 
ATOM     25  C   UNL     1       8.366  -7.823   0.835  0.00  0.00    +0.104 C 
ATOM     26  C   UNL     1       9.530  -7.846   1.808  0.00  0.00    +0.092 C 
ATOM     27  N   UNL     1       9.652  -6.667   2.320  0.00  0.00    -0.089 NA
ATOM     28  O   UNL     1       8.688  -5.753   1.833  0.00  0.00    -0.392 OA
BRANCH  26  29
ATOM     29  C   UNL     1      10.377  -9.015   2.116  0.00  0.00    +0.018 A 
ATOM     30  C   UNL     1      10.140 -10.238   1.486  0.00  0.00    +0.011 A 
ATOM     31  C   UNL     1      10.935 -11.326   1.778  0.00  0.00    +0.001 A 
ATOM     32  C   UNL     1      11.965 -11.209   2.695  0.00  0.00    +0.001 A 
ATOM     33  C   UNL     1      12.206 -10.001   3.325  0.00  0.00    +0.020 A 
ATOM     34  C   UNL     1      11.422  -8.901   3.037  0.00  0.00    +0.050 A 
ATOM     35 CL   UNL     1      11.730  -7.383   3.821  0.00  0.00    -0.083 Cl
ENDBRANCH  26  29
ENDBRANCH  23  24
ENDBRANCH   1  23
TORSDOF 11
