REMARK  Name = ZINC40723016
REMARK  5 active torsions:
REMARK  status: ('A' for Active; 'I' for Inactive)
REMARK    1  A    between atoms: C_3  and  C_6
REMARK    2  A    between atoms: C_6  and  N_7
REMARK    3  A    between atoms: C_9  and  N_22
REMARK    4  A    between atoms: C_10  and  S_14
REMARK    5  A    between atoms: S_14  and  C_15
REMARK                            x       y       z     vdW  Elec       q    Type
REMARK                         _______ _______ _______ _____ _____    ______ ____
ROOT
ATOM      1  N   UNL     1       4.101   0.609   1.346  0.00  0.00    -0.320 N 
ATOM      2  C   UNL     1       5.470   0.578   1.587  0.00  0.00    +0.144 A 
ATOM      3  C   UNL     1       5.959   0.551   2.894  0.00  0.00    +0.097 A 
ATOM      4  C   UNL     1       7.343   0.520   3.079  0.00  0.00    +0.127 A 
ATOM      5  N   UNL     1       8.137   0.517   2.010  0.00  0.00    -0.227 NA
ATOM      6  C   UNL     1       7.633   0.542   0.793  0.00  0.00    +0.224 A 
ATOM      7  N   UNL     1       6.334   0.567   0.575  0.00  0.00    -0.219 NA
ATOM      8  H   UNL     1       3.478   0.617   2.090  0.00  0.00    +0.148 HD
ENDROOT
BRANCH   3   9
ATOM      9  N   UNL     1       5.084   0.556   3.992  0.00  0.00    -0.353 N 
ATOM     10  H   UNL     1       4.125   0.579   3.848  0.00  0.00    +0.142 HD
ATOM     11  H   UNL     1       5.439   0.538   4.895  0.00  0.00    +0.142 HD
ENDBRANCH   3   9
BRANCH   1  12
ATOM     12  C   UNL     1       3.600   0.630  -0.030  0.00  0.00    +0.177 C 
BRANCH  12  15
ATOM     13  C   UNL     1      -0.017   1.340   0.010  0.00  0.00    +0.041 A 
ATOM     14  C   UNL     1       1.330   1.770   0.001  0.00  0.00    +0.046 A 
ATOM     15  C   UNL     1       2.093   0.663  -0.015  0.00  0.00    +0.122 A 
ATOM     16  O   UNL     1       1.285  -0.410  -0.017  0.00  0.00    -0.466 OA
ATOM     17  C   UNL     1       0.004  -0.005  -0.001  0.00  0.00    +0.195 A 
ENDBRANCH  12  15
ENDBRANCH   1  12
BRANCH   4  18
ATOM     18  S   UNL     1       8.028   0.486   4.702  0.00  0.00    -0.068 S 
BRANCH  18  19
ATOM     19  C   UNL     1       9.758   0.300   4.431  0.00  0.00    +0.014 A 
ATOM     20  C   UNL     1      10.583   1.418   4.403  0.00  0.00    +0.016 A 
ATOM     21  C   UNL     1      11.939   1.269   4.191  0.00  0.00    +0.021 A 
ATOM     22  C   UNL     1      12.477   0.008   4.005  0.00  0.00    +0.041 A 
ATOM     23  C   UNL     1      11.659  -1.108   4.032  0.00  0.00    +0.021 A 
ATOM     24  C   UNL     1      10.303  -0.966   4.250  0.00  0.00    +0.016 A 
ATOM     25 CL   UNL     1      14.183  -0.175   3.737  0.00  0.00    -0.084 Cl
ENDBRANCH  18  19
ENDBRANCH   4  18
TORSDOF 5
