REMARK  Name = ZINC12181696
REMARK  7 active torsions:
REMARK  status: ('A' for Active; 'I' for Inactive)
REMARK    1  A    between atoms: C_1  and  C_2
REMARK    2  A    between atoms: C_5  and  C_7
REMARK    3  A    between atoms: C_9  and  N_29
REMARK    4  A    between atoms: N_12  and  C_14
REMARK    5  A    between atoms: C_14  and  C_16
REMARK    6  A    between atoms: C_14  and  C_17
REMARK    7  A    between atoms: N_19  and  C_20
REMARK                            x       y       z     vdW  Elec       q    Type
REMARK                         _______ _______ _______ _____ _____    ______ ____
ROOT
ATOM      1  C   UNL     1       8.413  -0.442  -0.732  0.00  0.00    +0.100 A 
ATOM      2  C   UNL     1       9.280  -0.455   0.382  0.00  0.00    +0.058 A 
ATOM      3  C   UNL     1       9.072   0.419   1.409  0.00  0.00    +0.094 A 
ATOM      4  C   UNL     1       7.987   1.329   1.334  0.00  0.00    +0.289 A 
ATOM      5  O   UNL     1       7.786   2.122   2.240  0.00  0.00    -0.264 OA
ATOM      6  N   UNL     1       7.176   1.310   0.257  0.00  0.00    -0.216 N 
ATOM      7  N   UNL     1       7.408   0.405  -0.785  0.00  0.00    -0.167 NA
ENDROOT
BRANCH   1  12
ATOM      8  C   UNL     1      10.032  -4.364  -4.442  0.00  0.00    +0.051 C 
ATOM      9  C   UNL     1       9.408  -3.263  -3.624  0.00  0.00    -0.013 A 
ATOM     10  C   UNL     1       8.322  -2.499  -3.908  0.00  0.00    +0.011 A 
ATOM     11  C   UNL     1       7.918  -1.544  -3.002  0.00  0.00    +0.018 A 
ATOM     12  C   UNL     1       8.636  -1.388  -1.846  0.00  0.00    +0.040 A 
ATOM     13  S   UNL     1       9.906  -2.629  -2.031  0.00  0.00    -0.092 S 
ENDBRANCH   1  12
BRANCH   3  14
ATOM     14  N   UNL     1       9.919   0.421   2.517  0.00  0.00    -0.354 N 
ATOM     15  H   UNL     1      10.662  -0.202   2.560  0.00  0.00    +0.142 HD
ATOM     16  H   UNL     1       9.766   1.044   3.244  0.00  0.00    +0.142 HD
ENDBRANCH   3  14
BRANCH   6  17
ATOM     17  C   UNL     1       6.051   2.244   0.175  0.00  0.00    +0.194 C 
ATOM     18  C   UNL     1       6.215   3.133  -1.059  0.00  0.00    +0.043 C 
BRANCH  17  19
ATOM     19  C   UNL     1       4.762   1.470   0.069  0.00  0.00    +0.242 C 
ATOM     20  O   UNL     1       4.782   0.257   0.062  0.00  0.00    -0.273 OA
ATOM     21  N   UNL     1       3.587   2.125  -0.019  0.00  0.00    -0.284 N 
ATOM     22  H   UNL     1       3.576   3.092  -0.091  0.00  0.00    +0.155 HD
BRANCH  21  23
ATOM     23  C   UNL     1       2.385   1.410  -0.006  0.00  0.00    +0.034 A 
ATOM     24  C   UNL     1       2.276   0.242   0.737  0.00  0.00    +0.023 A 
ATOM     25  C   UNL     1       1.088  -0.459   0.746  0.00  0.00    +0.006 A 
ATOM     26  C   UNL     1       0.002  -0.003   0.017  0.00  0.00    -0.044 A 
ATOM     27  C   UNL     1       0.107   1.159  -0.725  0.00  0.00    -0.042 A 
ATOM     28  C   UNL     1       1.297   1.865  -0.737  0.00  0.00    +0.027 A 
ATOM     29  C   UNL     1      -1.204   1.437  -1.429  0.00  0.00    +0.036 C 
ATOM     30  C   UNL     1      -1.979   0.105  -1.384  0.00  0.00    +0.009 C 
ATOM     31  C   UNL     1      -1.389  -0.582  -0.134  0.00  0.00    +0.036 C 
ENDBRANCH  21  23
ENDBRANCH  17  19
ENDBRANCH   6  17
TORSDOF 5
