REMARK  Name = ZINC65074843
REMARK  9 active torsions:
REMARK  status: ('A' for Active; 'I' for Inactive)
REMARK    1  A    between atoms: C_1  and  C_2
REMARK    2  A    between atoms: C_2  and  C_3
REMARK    3  A    between atoms: C_2  and  C_4
REMARK    4  A    between atoms: C_7  and  S_10
REMARK    5  A    between atoms: S_10  and  N_13
REMARK    6  A    between atoms: N_24  and  C_25
REMARK    7  A    between atoms: C_25  and  C_26
REMARK    8  A    between atoms: C_29  and  O_32
REMARK    9  A    between atoms: O_32  and  C_33
REMARK                            x       y       z     vdW  Elec       q    Type
REMARK                         _______ _______ _______ _____ _____    ______ ____
ROOT
ATOM      1  N   UNL     1      -6.599  -0.977  -0.736  0.00  0.00    -0.176 NA
ATOM      2  C   UNL     1      -7.229   0.123   0.007  0.00  0.00    +0.111 C 
ATOM      3  C   UNL     1      -6.848   1.450  -0.658  0.00  0.00    +0.047 C 
ATOM      4  C   UNL     1      -7.224   1.399  -2.141  0.00  0.00    +0.075 C 
ATOM      5  C   UNL     1      -6.443   0.274  -2.826  0.00  0.00    +0.047 C 
ATOM      6  C   UNL     1      -6.815  -1.063  -2.187  0.00  0.00    +0.111 C 
ATOM      7  C   UNL     1      -6.886   2.712  -2.790  0.00  0.00    +0.089 C 
ATOM      8  N   UNL     1      -7.661   3.318  -3.607  0.00  0.00    -0.374 N 
ATOM      9  C   UNL     1      -8.972   2.816  -4.006  0.00  0.00    +0.129 C 
ATOM     10  C   UNL     1      -9.090   1.329  -3.665  0.00  0.00    +0.102 C 
ATOM     11  N   UNL     1      -8.665   1.135  -2.268  0.00  0.00    -0.303 NA
ATOM     12  N   UNL     1      -5.682   3.292  -2.488  0.00  0.00    -0.329 N 
ATOM     13  H   UNL     1      -8.892   0.206  -1.946  0.00  0.00    +0.123 HD
ATOM     14  H   UNL     1      -5.074   2.855  -1.871  0.00  0.00    +0.147 HD
ATOM     15  H   UNL     1      -7.359   4.159  -3.985  0.00  0.00    +0.161 HD
ENDROOT
BRANCH   1  16
ATOM     16  S   UNL     1      -5.658  -2.093   0.045  0.00  0.00    +0.061 S 
ATOM     17  O   UNL     1      -5.665  -3.264  -0.760  0.00  0.00    -0.153 OA
ATOM     18  O   UNL     1      -6.078  -2.099   1.403  0.00  0.00    -0.153 OA
BRANCH  16  22
ATOM     19  C   UNL     1      -1.412  -0.526   0.013  0.00  0.00    -0.045 A 
ATOM     20  C   UNL     1      -2.259  -0.204   1.056  0.00  0.00    +0.006 A 
ATOM     21  C   UNL     1      -3.556  -0.683   1.066  0.00  0.00    +0.029 A 
ATOM     22  C   UNL     1      -4.006  -1.482   0.032  0.00  0.00    +0.105 A 
ATOM     23  C   UNL     1      -3.159  -1.803  -1.012  0.00  0.00    +0.029 A 
ATOM     24  C   UNL     1      -1.863  -1.321  -1.024  0.00  0.00    +0.006 A 
BRANCH  19  26
ATOM     25  C   UNL     1      -0.019   1.526   0.010  0.00  0.00    +0.012 C 
ATOM     26  C   UNL     1       0.002  -0.004   0.002  0.00  0.00    +0.013 C 
ATOM     27  C   UNL     1       0.742  -0.511   1.242  0.00  0.00    +0.012 C 
ENDBRANCH  19  26
ENDBRANCH  16  22
ENDBRANCH   1  16
BRANCH  12  28
ATOM     28  C   UNL     1      -5.312   4.571  -3.098  0.00  0.00    +0.138 C 
BRANCH  28  29
ATOM     29  C   UNL     1      -3.951   4.988  -2.604  0.00  0.00    -0.030 A 
ATOM     30  C   UNL     1      -3.837   5.757  -1.461  0.00  0.00    +0.009 A 
ATOM     31  C   UNL     1      -2.590   6.141  -1.006  0.00  0.00    +0.046 A 
ATOM     32  C   UNL     1      -1.451   5.753  -1.698  0.00  0.00    +0.120 A 
ATOM     33  C   UNL     1      -1.568   4.981  -2.845  0.00  0.00    +0.046 A 
ATOM     34  C   UNL     1      -2.817   4.596  -3.292  0.00  0.00    +0.009 A 
BRANCH  32  35
ATOM     35  O   UNL     1      -0.224   6.130  -1.253  0.00  0.00    -0.495 OA
ATOM     36  C   UNL     1       0.904   5.695  -2.016  0.00  0.00    +0.277 C 
ENDBRANCH  32  35
ENDBRANCH  28  29
ENDBRANCH  12  28
TORSDOF 6
