REMARK  Name = ZINC09239026
REMARK  6 active torsions:
REMARK  status: ('A' for Active; 'I' for Inactive)
REMARK    1  A    between atoms: C_1  and  C_2
REMARK    2  A    between atoms: C_2  and  C_3
REMARK    3  A    between atoms: C_3  and  N_4
REMARK    4  A    between atoms: C_5  and  C_7
REMARK    5  A    between atoms: C_9  and  C_24
REMARK    6  A    between atoms: C_13  and  C_18
REMARK                            x       y       z     vdW  Elec       q    Type
REMARK                         _______ _______ _______ _____ _____    ______ ____
ROOT
ATOM      1  C   UNL     1       2.045   1.222  -1.330  0.00  0.00    +0.166 C 
ATOM      2  C   UNL     1       1.347   1.548  -0.003  0.00  0.00    +0.140 C 
ATOM      3  N   UNL     1      -0.012   1.005   0.008  0.00  0.00    -0.272 N 
ATOM      4  N   UNL     1      -0.800   1.486  -0.988  0.00  0.00    -0.221 N 
ATOM      5  C   UNL     1      -2.173   1.513  -1.031  0.00  0.00    +0.182 A 
ATOM      6  N   UNL     1      -2.512   2.050  -2.182  0.00  0.00    -0.127 NA
ATOM      7  N   UNL     1      -1.456   2.361  -2.852  0.00  0.00    -0.121 NA
ATOM      8  C   UNL     1      -0.391   2.043  -2.167  0.00  0.00    +0.210 A 
ATOM      9  S   UNL     1       1.301   2.265  -2.620  0.00  0.00    -0.069 S 
ATOM     10  H   UNL     1       0.002  -0.004   0.002  0.00  0.00    +0.167 HD
ENDROOT
BRANCH   5  11
ATOM     11  C   UNL     1      -3.094   1.031   0.019  0.00  0.00    +0.021 A 
ATOM     12  C   UNL     1      -2.623   0.204   1.040  0.00  0.00    +0.011 A 
ATOM     13  C   UNL     1      -3.487  -0.239   2.019  0.00  0.00    +0.001 A 
ATOM     14  C   UNL     1      -4.822   0.126   1.986  0.00  0.00    +0.000 A 
ATOM     15  C   UNL     1      -5.297   0.941   0.974  0.00  0.00    +0.001 A 
ATOM     16  C   UNL     1      -4.441   1.395  -0.009  0.00  0.00    +0.011 A 
ENDBRANCH   5  11
BRANCH   2  17
ATOM     17  C   UNL     1       2.135   0.942   1.131  0.00  0.00    -0.024 A 
ATOM     18  C   UNL     1       1.982  -0.397   1.440  0.00  0.00    +0.005 A 
ATOM     19  C   UNL     1       2.707  -0.953   2.477  0.00  0.00    +0.000 A 
ATOM     20  C   UNL     1       3.578  -0.169   3.211  0.00  0.00    +0.000 A 
ATOM     21  C   UNL     1       3.727   1.171   2.904  0.00  0.00    +0.000 A 
ATOM     22  C   UNL     1       3.005   1.726   1.865  0.00  0.00    +0.005 A 
ENDBRANCH   2  17
BRANCH   1  24
ATOM     23  N   UNL     1       4.406   0.808  -1.940  0.00  0.00    -0.314 N 
ATOM     24  C   UNL     1       3.518   1.520  -1.218  0.00  0.00    +0.229 C 
ATOM     25  O   UNL     1       3.905   2.400  -0.479  0.00  0.00    -0.275 OA
ATOM     26  H   UNL     1       4.097   0.104  -2.532  0.00  0.00    +0.149 HD
BRANCH  23  27
ATOM     27  C   UNL     1       5.838   1.097  -1.832  0.00  0.00    +0.104 C 
BRANCH  27  29
ATOM     28  C   UNL     1       8.115   0.456  -2.635  0.00  0.00    +0.005 C 
ATOM     29  C   UNL     1       6.620   0.154  -2.748  0.00  0.00    +0.015 C 
ENDBRANCH  27  29
ENDBRANCH  23  27
ENDBRANCH   1  24
TORSDOF 5
