REMARK  Name = ZINC01422133
REMARK  7 active torsions:
REMARK  status: ('A' for Active; 'I' for Inactive)
REMARK    1  A    between atoms: C_1  and  C_2
REMARK    2  A    between atoms: C_2  and  O_3
REMARK    3  A    between atoms: O_3  and  C_4
REMARK    4  A    between atoms: C_4  and  C_6
REMARK    5  A    between atoms: C_7  and  C_21
REMARK    6  A    between atoms: C_12  and  C_14
REMARK    7  A    between atoms: C_21  and  N_22
REMARK                            x       y       z     vdW  Elec       q    Type
REMARK                         _______ _______ _______ _____ _____    ______ ____
ROOT
ATOM      1  C   UNL     1      -2.795  -2.411   0.128  0.00  0.00    +0.080 C 
ATOM      2  C   UNL     1      -2.985  -3.731  -0.085  0.00  0.00    +0.041 C 
ATOM      3  N   UNL     1      -4.241  -4.255  -0.188  0.00  0.00    -0.271 N 
ATOM      4  C   UNL     1      -5.360  -3.526  -0.091  0.00  0.00    +0.304 C 
ATOM      5  O   UNL     1      -6.436  -4.083  -0.197  0.00  0.00    -0.252 OA
ATOM      6  N   UNL     1      -5.333  -2.195   0.120  0.00  0.00    -0.288 N 
ATOM      7  C   UNL     1      -4.024  -1.533   0.253  0.00  0.00    +0.144 C 
ATOM      8  H   UNL     1      -4.328  -5.209  -0.341  0.00  0.00    +0.156 HD
ATOM      9  H   UNL     1      -6.156  -1.686   0.187  0.00  0.00    +0.151 HD
ENDROOT
BRANCH   7  10
ATOM     10  C   UNL     1      -3.976  -0.855   1.598  0.00  0.00    -0.022 A 
ATOM     11  C   UNL     1      -4.363  -1.542   2.733  0.00  0.00    +0.007 A 
ATOM     12  C   UNL     1      -4.319  -0.921   3.967  0.00  0.00    +0.020 A 
ATOM     13  C   UNL     1      -3.887   0.390   4.065  0.00  0.00    +0.041 A 
ATOM     14  C   UNL     1      -3.499   1.077   2.929  0.00  0.00    +0.020 A 
ATOM     15  C   UNL     1      -3.539   0.453   1.697  0.00  0.00    +0.007 A 
ATOM     16 CL   UNL     1      -3.832   1.172   5.614  0.00  0.00    -0.084 Cl
ENDBRANCH   7  10
BRANCH   1  17
ATOM     17  C   UNL     1      -1.494  -1.866   0.236  0.00  0.00    +0.339 C 
ATOM     18  O   UNL     1      -0.996  -1.287  -0.711  0.00  0.00    -0.245 OA
BRANCH  17  19
ATOM     19  O   UNL     1      -0.805  -1.989   1.390  0.00  0.00    -0.462 OA
BRANCH  19  21
ATOM     20  C   UNL     1       1.124  -1.654   2.807  0.00  0.00    +0.048 C 
ATOM     21  C   UNL     1       0.503  -1.416   1.429  0.00  0.00    +0.229 C 
ENDBRANCH  19  21
ENDBRANCH  17  19
ENDBRANCH   1  17
BRANCH   2  22
ATOM     22  C   UNL     1      -1.789  -4.640  -0.210  0.00  0.00    +0.156 C 
BRANCH  22  23
ATOM     23  N   UNL     1      -1.771  -5.580   0.914  0.00  0.00    -0.324 N 
ATOM     24  C   UNL     1      -1.107  -5.339   2.198  0.00  0.00    +0.110 C 
ATOM     25  C   UNL     1      -1.371  -6.604   3.031  0.00  0.00    +0.056 C 
ATOM     26  C   UNL     1      -2.191  -7.492   2.123  0.00  0.00    -0.025 A 
ATOM     27  C   UNL     1      -2.387  -6.832   0.920  0.00  0.00    +0.033 A 
ATOM     28  C   UNL     1      -3.128  -7.458  -0.084  0.00  0.00    +0.023 A 
ATOM     29  C   UNL     1      -3.659  -8.713   0.124  0.00  0.00    +0.002 A 
ATOM     30  C   UNL     1      -3.462  -9.362   1.329  0.00  0.00    +0.000 A 
ATOM     31  C   UNL     1      -2.721  -8.752   2.325  0.00  0.00    +0.005 A 
ENDBRANCH  22  23
ENDBRANCH   2  22
TORSDOF 6
