REMARK  Name = ZINC35042227
REMARK  3 active torsions:
REMARK  status: ('A' for Active; 'I' for Inactive)
REMARK    1  A    between atoms: C_4  and  C_8
REMARK    2  A    between atoms: C_8  and  N_9
REMARK    3  A    between atoms: N_9  and  C_10
REMARK                            x       y       z     vdW  Elec       q    Type
REMARK                         _______ _______ _______ _____ _____    ______ ____
ROOT
ATOM      1  C   UNL     1       5.357  -1.626   1.577  0.00  0.00    +0.044 A 
ATOM      2  C   UNL     1       6.135  -2.054   0.511  0.00  0.00    +0.051 A 
ATOM      3  C   UNL     1       7.327  -2.720   0.752  0.00  0.00    +0.069 A 
ATOM      4  C   UNL     1       7.740  -2.957   2.064  0.00  0.00    +0.068 A 
ATOM      5  C   UNL     1       6.959  -2.526   3.126  0.00  0.00    +0.045 A 
ATOM      6  C   UNL     1       5.774  -1.858   2.883  0.00  0.00    +0.041 A 
ATOM      7 BR   UNL     1       4.713  -1.265   4.331  0.00  0.00    -0.048 Br
ATOM      8  N   UNL     1       8.957  -3.635   1.987  0.00  0.00    -0.306 N 
ATOM      9  H   UNL     1       9.489  -3.935   2.740  0.00  0.00    +0.170 HD
ATOM     10  C   UNL     1       9.267  -3.801   0.687  0.00  0.00    +0.325 A 
ATOM     11  O   UNL     1      10.266  -4.356   0.271  0.00  0.00    -0.247 OA
ATOM     12  N   UNL     1       8.303  -3.260  -0.082  0.00  0.00    -0.306 N 
ATOM     13  H   UNL     1       8.291  -3.249  -1.052  0.00  0.00    +0.170 HD
ENDROOT
BRANCH   1  14
ATOM     14  N   UNL     1       4.154  -0.953   1.337  0.00  0.00    -0.339 N 
ATOM     15  H   UNL     1       3.611  -0.649   2.082  0.00  0.00    +0.146 HD
BRANCH  14  16
ATOM     16  C   UNL     1       3.713  -0.707  -0.038  0.00  0.00    +0.139 C 
BRANCH  16  20
ATOM     17  C   UNL     1      -0.017   1.378   0.010  0.00  0.00    +0.003 A 
ATOM     18  C   UNL     1       1.171   2.086   0.002  0.00  0.00    +0.020 A 
ATOM     19  C   UNL     1       2.378   1.411  -0.013  0.00  0.00    +0.047 A 
ATOM     20  C   UNL     1       2.398   0.028  -0.021  0.00  0.00    +0.006 A 
ATOM     21  C   UNL     1       1.209  -0.680  -0.013  0.00  0.00    +0.047 A 
ATOM     22  C   UNL     1       0.002  -0.004   0.002  0.00  0.00    +0.020 A 
ATOM     23 CL   UNL     1       1.233  -2.416  -0.023  0.00  0.00    -0.083 Cl
ATOM     24 CL   UNL     1       3.869   2.300  -0.024  0.00  0.00    -0.083 Cl
ENDBRANCH  16  20
ENDBRANCH  14  16
ENDBRANCH   1  14
TORSDOF 3
