REMARK  Name = ZINC65298031
REMARK  4 active torsions:
REMARK  status: ('A' for Active; 'I' for Inactive)
REMARK    1  A    between atoms: C_1  and  N_2
REMARK    2  A    between atoms: C_9  and  C_23
REMARK    3  A    between atoms: C_12  and  C_14
REMARK    4  A    between atoms: C_28  and  O_29
REMARK                            x       y       z     vdW  Elec       q    Type
REMARK                         _______ _______ _______ _____ _____    ______ ____
ROOT
ATOM      1  C   UNL     1      -0.018   1.465   0.010  0.00  0.00    -0.096 C 
ATOM      2  N   UNL     1       0.002  -0.004   0.002  0.00  0.00    +0.378 N 
ATOM      3  C   UNL     1       0.681  -0.476  -1.211  0.00  0.00    -0.076 C 
ATOM      4  C   UNL     1       0.635  -2.004  -1.264  0.00  0.00    +0.027 C 
ATOM      5  C   UNL     1       1.344  -2.573  -0.029  0.00  0.00    +0.109 C 
ATOM      6  C   UNL     1       0.668  -2.018   1.229  0.00  0.00    +0.027 C 
ATOM      7  C   UNL     1       0.712  -0.489   1.192  0.00  0.00    -0.076 C 
ATOM      8  N   UNL     1       1.226  -4.037  -0.036  0.00  0.00    -0.286 NA
ATOM      9  C   UNL     1       2.027  -4.606  -1.133  0.00  0.00    +0.095 C 
ATOM     10  C   UNL     1       3.507  -4.372  -0.814  0.00  0.00    +0.079 C 
ATOM     11  C   UNL     1       3.709  -2.944  -0.390  0.00  0.00    +0.047 C 
ATOM     12  N   UNL     1       2.747  -2.174  -0.046  0.00  0.00    -0.266 NA
ATOM     13  H   UNL     1       1.502  -4.426   0.853  0.00  0.00    +0.125 HD
ATOM     14  H   UNL     1      -0.945  -0.352   0.012  0.00  0.00    -0.082 HD
ENDROOT
BRANCH  11  15
ATOM     15  C   UNL     1       5.081  -2.405  -0.370  0.00  0.00    -0.000 A 
ATOM     16  C   UNL     1       6.157  -3.214  -0.745  0.00  0.00    +0.013 A 
ATOM     17  C   UNL     1       7.439  -2.708  -0.726  0.00  0.00    +0.050 A 
ATOM     18  C   UNL     1       7.666  -1.396  -0.335  0.00  0.00    +0.166 A 
ATOM     19  C   UNL     1       6.597  -0.583   0.041  0.00  0.00    +0.167 A 
ATOM     20  C   UNL     1       5.309  -1.082   0.018  0.00  0.00    +0.059 A 
ATOM     21  O   UNL     1       7.082   0.648   0.377  0.00  0.00    -0.453 OA
ATOM     22  C   UNL     1       8.492   0.458   0.597  0.00  0.00    +0.466 C 
ATOM     23  O   UNL     1       8.819  -0.673  -0.233  0.00  0.00    -0.453 OA
ENDBRANCH  11  15
BRANCH   9  24
ATOM     24  C   UNL     1       1.758  -6.084  -1.246  0.00  0.00    +0.013 A 
ATOM     25  C   UNL     1       1.212  -6.771  -0.178  0.00  0.00    +0.028 A 
ATOM     26  C   UNL     1       0.964  -8.128  -0.282  0.00  0.00    +0.042 A 
ATOM     27  C   UNL     1       1.262  -8.800  -1.454  0.00  0.00    +0.023 A 
ATOM     28  C   UNL     1       1.808  -8.117  -2.523  0.00  0.00    +0.047 A 
ATOM     29  C   UNL     1       2.052  -6.755  -2.424  0.00  0.00    +0.122 A 
ATOM     30 CL   UNL     1       0.279  -8.989   1.061  0.00  0.00    -0.084 Cl
BRANCH  29  31
ATOM     31  O   UNL     1       2.584  -6.080  -3.477  0.00  0.00    -0.506 OA
ATOM     32  H   UNL     1       3.550  -6.056  -3.481  0.00  0.00    +0.292 HD
ENDBRANCH  29  31
ENDBRANCH   9  24
TORSDOF 3
