REMARK  Name = ZINC22239654
REMARK  9 active torsions:
REMARK  status: ('A' for Active; 'I' for Inactive)
REMARK    1  A    between atoms: C_4  and  C_7
REMARK    2  A    between atoms: C_10  and  S_19
REMARK    3  A    between atoms: N_11  and  C_12
REMARK    4  A    between atoms: C_12  and  C_13
REMARK    5  A    between atoms: S_19  and  C_20
REMARK    6  A    between atoms: C_20  and  C_21
REMARK    7  A    between atoms: C_21  and  C_23
REMARK    8  A    between atoms: C_24  and  N_35
REMARK    9  A    between atoms: N_25  and  C_32
REMARK                            x       y       z     vdW  Elec       q    Type
REMARK                         _______ _______ _______ _____ _____    ______ ____
ROOT
ATOM      1  S   UNL     1      -0.341   1.344  -0.777  0.00  0.00    -0.080 S 
ENDROOT
BRANCH   1   5
ATOM      2  C   UNL     1       3.385   2.554  -0.959  0.00  0.00    +0.069 A 
ATOM      3  C   UNL     1       3.535   1.217  -0.770  0.00  0.00    +0.140 A 
ATOM      4  N   UNL     1       2.317   0.666  -0.689  0.00  0.00    -0.230 NA
ATOM      5  C   UNL     1       1.402   1.601  -0.818  0.00  0.00    +0.170 A 
ATOM      6  N   UNL     1       2.023   2.799  -0.995  0.00  0.00    -0.316 N 
BRANCH   2  10
ATOM      7  C   UNL     1       6.491   5.421  -1.375  0.00  0.00    +0.000 A 
ATOM      8  C   UNL     1       6.673   4.324  -0.552  0.00  0.00    +0.001 A 
ATOM      9  C   UNL     1       5.668   3.389  -0.412  0.00  0.00    +0.010 A 
ATOM     10  C   UNL     1       4.466   3.552  -1.103  0.00  0.00    +0.000 A 
ATOM     11  C   UNL     1       4.291   4.659  -1.936  0.00  0.00    +0.010 A 
ATOM     12  C   UNL     1       5.302   5.589  -2.063  0.00  0.00    +0.001 A 
ENDBRANCH   2  10
BRANCH   6  13
ATOM     13  C   UNL     1       1.375   4.099  -1.184  0.00  0.00    +0.156 C 
BRANCH  13  14
ATOM     14  C   UNL     1       1.273   4.818   0.163  0.00  0.00    +0.138 C 
ATOM     15  C   UNL     1       0.484   6.135  -0.005  0.00  0.00    +0.035 C 
ATOM     16  C   UNL     1       1.267   7.107   0.920  0.00  0.00    +0.031 C 
ATOM     17  C   UNL     1       2.714   6.580   0.745  0.00  0.00    +0.160 C 
ATOM     18  O   UNL     1       2.583   5.154   0.635  0.00  0.00    -0.375 OA
ENDBRANCH  13  14
ENDBRANCH   6  13
ENDBRANCH   1   5
BRANCH   1  19
ATOM     19  C   UNL     1      -0.389  -0.448  -0.523  0.00  0.00    +0.157 C 
BRANCH  19  20
ATOM     20  C   UNL     1      -1.822  -0.908  -0.454  0.00  0.00    +0.182 C 
ATOM     21  O   UNL     1      -2.724  -0.102  -0.565  0.00  0.00    -0.291 OA
BRANCH  20  22
ATOM     22  C   UNL     1      -2.116  -2.274  -0.260  0.00  0.00    +0.120 A 
ATOM     23  C   UNL     1      -3.441  -2.714  -0.092  0.00  0.00    +0.116 A 
ATOM     24  N   UNL     1      -3.676  -4.047   0.093  0.00  0.00    -0.278 N 
ATOM     25  C   UNL     1      -2.670  -4.936   0.117  0.00  0.00    +0.331 A 
ATOM     26  O   UNL     1      -2.932  -6.111   0.285  0.00  0.00    -0.246 OA
ATOM     27  N   UNL     1      -1.386  -4.574  -0.037  0.00  0.00    -0.274 N 
ATOM     28  H   UNL     1      -0.593  -5.336  -0.005  0.00  0.00    +0.173 HD
ATOM     29  C   UNL     1      -1.049  -3.283  -0.232  0.00  0.00    +0.266 A 
ATOM     30  O   UNL     1       0.115  -2.959  -0.378  0.00  0.00    -0.267 OA
BRANCH  24  31
ATOM     31  C   UNL     1      -5.053  -4.516   0.269  0.00  0.00    +0.094 C 
ATOM     32  C   UNL     1      -5.500  -5.719  -0.564  0.00  0.00    +0.027 C 
ATOM     33  C   UNL     1      -6.020  -4.319  -0.900  0.00  0.00    +0.027 C 
ENDBRANCH  24  31
BRANCH  23  34
ATOM     34  N   UNL     1      -4.472  -1.827  -0.113  0.00  0.00    -0.344 N 
ATOM     35  H   UNL     1      -5.505  -2.181   0.019  0.00  0.00    +0.144 HD
ATOM     36  H   UNL     1      -4.273  -0.755  -0.262  0.00  0.00    +0.144 HD
ENDBRANCH  23  34
ENDBRANCH  20  22
ENDBRANCH  19  20
ENDBRANCH   1  19
TORSDOF 9
