REMARK  Name = ZINC46773475
REMARK  8 active torsions:
REMARK  status: ('A' for Active; 'I' for Inactive)
REMARK    1  A    between atoms: C_10  and  C_11
REMARK    2  A    between atoms: C_11  and  C_12
REMARK    3  A    between atoms: N_14  and  C_15
REMARK    4  A    between atoms: C_15  and  C_16
REMARK    5  A    between atoms: N_18  and  N_19
REMARK    6  A    between atoms: N_19  and  C_20
REMARK    7  A    between atoms: C_20  and  N_22
REMARK    8  A    between atoms: N_22  and  C_23
REMARK                            x       y       z     vdW  Elec       q    Type
REMARK                         _______ _______ _______ _____ _____    ______ ____
ROOT
ATOM      1  C   UNL     1       8.060   2.368   2.994  0.00  0.00    +0.246 C 
ATOM      2  O   UNL     1       8.699   2.396   1.964  0.00  0.00    -0.273 OA
ATOM      3  N   UNL     1       8.620   2.791   4.146  0.00  0.00    -0.234 N 
ATOM      4  H   UNL     1       8.109   2.768   4.970  0.00  0.00    +0.173 HD
ENDROOT
BRANCH   3   5
ATOM      5  N   UNL     1       9.939   3.262   4.152  0.00  0.00    -0.246 N 
ATOM      6  H   UNL     1      10.450   3.285   3.327  0.00  0.00    +0.172 HD
BRANCH   5   7
ATOM      7  C   UNL     1      10.498   3.685   5.303  0.00  0.00    +0.151 C 
ATOM      8  S   UNL     1      12.110   4.261   5.310  0.00  0.00    -0.017 S 
BRANCH   7   9
ATOM      9  N   UNL     1       9.789   3.653   6.448  0.00  0.00    -0.295 N 
ATOM     10  H   UNL     1       8.856   3.387   6.434  0.00  0.00    +0.154 HD
BRANCH   9  11
ATOM     11  C   UNL     1      10.398   4.006   7.658  0.00  0.00    +0.051 A 
ATOM     12  C   UNL     1      11.160   5.163   7.742  0.00  0.00    +0.026 A 
ATOM     13  C   UNL     1      11.759   5.509   8.938  0.00  0.00    +0.022 A 
ATOM     14  C   UNL     1      11.601   4.704  10.052  0.00  0.00    +0.042 A 
ATOM     15  C   UNL     1      10.842   3.549   9.972  0.00  0.00    +0.041 A 
ATOM     16  C   UNL     1      10.235   3.201   8.780  0.00  0.00    +0.063 A 
ATOM     17 CL   UNL     1       9.277   1.757   8.681  0.00  0.00    -0.082 Cl
ATOM     18 CL   UNL     1      12.355   5.142  11.553  0.00  0.00    -0.083 Cl
ENDBRANCH   9  11
ENDBRANCH   7   9
ENDBRANCH   5   7
ENDBRANCH   3   5
BRANCH   1  19
ATOM     19  C   UNL     1       6.641   1.861   2.988  0.00  0.00    +0.201 C 
BRANCH  19  22
ATOM     20  C   UNL     1       5.038   0.978   1.379  0.00  0.00    +0.218 C 
ATOM     21  O   UNL     1       4.237   0.867   2.283  0.00  0.00    -0.275 OA
ATOM     22  N   UNL     1       6.270   1.465   1.627  0.00  0.00    -0.306 N 
ATOM     23  H   UNL     1       6.911   1.554   0.905  0.00  0.00    +0.149 HD
BRANCH  20  24
ATOM     24  C   UNL     1       4.656   0.571  -0.020  0.00  0.00    +0.131 C 
BRANCH  24  34
ATOM     25  C   UNL     1       0.016   2.704  -0.369  0.00  0.00    +0.001 A 
ATOM     26  C   UNL     1       1.322   3.192  -0.364  0.00  0.00    +0.001 A 
ATOM     27  C   UNL     1       2.385   2.349  -0.254  0.00  0.00    +0.009 A 
ATOM     28  C   UNL     1       2.166   0.965  -0.143  0.00  0.00    -0.014 A 
ATOM     29  C   UNL     1       0.838   0.469  -0.147  0.00  0.00    -0.018 A 
ATOM     30  C   UNL     1      -0.234   1.371  -0.263  0.00  0.00    +0.008 A 
ATOM     31  C   UNL     1       0.619  -0.914  -0.036  0.00  0.00    +0.008 A 
ATOM     32  C   UNL     1       1.682  -1.758   0.075  0.00  0.00    +0.001 A 
ATOM     33  C   UNL     1       2.987  -1.270   0.080  0.00  0.00    +0.005 A 
ATOM     34  C   UNL     1       3.237   0.064  -0.027  0.00  0.00    -0.031 A 
ENDBRANCH  24  34
ENDBRANCH  20  24
ENDBRANCH  19  22
ENDBRANCH   1  19
TORSDOF 8
