REMARK  Name = ZINC14994954
REMARK  8 active torsions:
REMARK  status: ('A' for Active; 'I' for Inactive)
REMARK    1  A    between atoms: C_4  and  C_7
REMARK    2  A    between atoms: C_10  and  C_12
REMARK    3  A    between atoms: C_12  and  N_13
REMARK    4  A    between atoms: C_14  and  C_16
REMARK    5  A    between atoms: C_19  and  C_24
REMARK    6  A    between atoms: C_24  and  N_54
REMARK    7  A    between atoms: C_28  and  C_30
REMARK    8  A    between atoms: C_30  and  O_31
REMARK                            x       y       z     vdW  Elec       q    Type
REMARK                         _______ _______ _______ _____ _____    ______ ____
ROOT
ATOM      1  C   UNL     1       0.002  -0.004  -0.000  0.00  0.00    +0.101 A 
ATOM      2  C   UNL     1      -0.017   1.389  -0.010  0.00  0.00    +0.020 A 
ATOM      3  C   UNL     1       1.194   2.081  -0.020  0.00  0.00    +0.020 A 
ATOM      4  C   UNL     1       2.368   1.400  -0.019  0.00  0.00    +0.003 A 
ATOM      5  N   UNL     1       2.394   0.046  -0.009  0.00  0.00    -0.327 N 
ATOM      6  H   UNL     1       3.248  -0.415  -0.009  0.00  0.00    +0.169 HD
ATOM      7  C   UNL     1       1.254  -0.671   0.000  0.00  0.00    +0.261 A 
ATOM      8  O   UNL     1       1.298  -1.889   0.010  0.00  0.00    -0.267 OA
ENDROOT
BRANCH   1  10
ATOM      9  N   UNL     1      -1.225  -2.113  -0.099  0.00  0.00    -0.305 N 
ATOM     10  C   UNL     1      -1.254  -0.770   0.010  0.00  0.00    +0.250 C 
ATOM     11  O   UNL     1      -2.318  -0.191   0.118  0.00  0.00    -0.270 OA
ATOM     12  H   UNL     1      -0.375  -2.580  -0.110  0.00  0.00    +0.149 HD
BRANCH   9  13
ATOM     13  C   UNL     1      -2.477  -2.866  -0.201  0.00  0.00    +0.167 C 
BRANCH  13  17
ATOM     14  C   UNL     1      -1.763  -6.491   0.382  0.00  0.00    +0.078 A 
ATOM     15  C   UNL     1      -1.624  -6.856  -0.930  0.00  0.00    +0.075 A 
ATOM     16  S   UNL     1      -1.913  -5.290  -1.740  0.00  0.00    -0.078 S 
ATOM     17  C   UNL     1      -2.170  -4.338  -0.312  0.00  0.00    +0.096 A 
ATOM     18  N   UNL     1      -2.036  -5.222   0.646  0.00  0.00    -0.242 NA
BRANCH  14  22
ATOM     19  C   UNL     1      -1.332  -9.339   3.509  0.00  0.00    +0.000 A 
ATOM     20  C   UNL     1      -1.617  -8.020   3.813  0.00  0.00    +0.001 A 
ATOM     21  C   UNL     1      -1.758  -7.091   2.802  0.00  0.00    +0.010 A 
ATOM     22  C   UNL     1      -1.613  -7.484   1.473  0.00  0.00    +0.001 A 
ATOM     23  C   UNL     1      -1.331  -8.816   1.173  0.00  0.00    +0.010 A 
ATOM     24  C   UNL     1      -1.186  -9.735   2.192  0.00  0.00    +0.001 A 
ENDBRANCH  14  22
ENDBRANCH  13  17
ENDBRANCH   9  13
ENDBRANCH   1  10
BRANCH   4  25
ATOM     25  C   UNL     1       3.666   2.165  -0.030  0.00  0.00    -0.024 C 
BRANCH  25  30
ATOM     26  C   UNL     1       3.768   2.658   2.352  0.00  0.00    -0.078 C 
ATOM     27  C   UNL     1       4.881   2.753   3.416  0.00  0.00    -0.020 C 
ATOM     28  C   UNL     1       6.201   2.621   2.629  0.00  0.00    -0.015 C 
ATOM     29  C   UNL     1       5.774   2.457   1.154  0.00  0.00    -0.042 C 
ATOM     30  N   UNL     1       4.404   1.937   1.252  0.00  0.00    +0.387 N 
ATOM     31  H   UNL     1       4.424   0.931   1.456  0.00  0.00    -0.081 HD
BRANCH  29  32
ATOM     32  C   UNL     1       6.695   1.469   0.436  0.00  0.00    +0.140 C 
BRANCH  32  33
ATOM     33  O   UNL     1       6.805   0.271   1.208  0.00  0.00    -0.397 OA
ATOM     34  H   UNL     1       7.375  -0.401   0.812  0.00  0.00    +0.209 HD
ENDBRANCH  32  33
ENDBRANCH  29  32
ENDBRANCH  25  30
ENDBRANCH   4  25
TORSDOF 8
