REMARK  Name = ZINC08883359
REMARK  12 active torsions:
REMARK  status: ('A' for Active; 'I' for Inactive)
REMARK    1  A    between atoms: C_1  and  C_2
REMARK    2  A    between atoms: C_9  and  N_17
REMARK    3  A    between atoms: C_10  and  C_11
REMARK    4  A    between atoms: C_11  and  O_13
REMARK    5  A    between atoms: O_13  and  C_14
REMARK    6  A    between atoms: C_14  and  C_15
REMARK    7  A    between atoms: C_14  and  C_16
REMARK    8  A    between atoms: C_18  and  C_20
REMARK    9  A    between atoms: C_20  and  O_21
REMARK   10  A    between atoms: O_21  and  C_22
REMARK   11  A    between atoms: C_22  and  C_24
REMARK   12  A    between atoms: C_24  and  C_25
REMARK                            x       y       z     vdW  Elec       q    Type
REMARK                         _______ _______ _______ _____ _____    ______ ____
ROOT
ATOM      1  N   UNL     1      -0.920   1.702  -6.037  0.00  0.00    -0.277 N 
ATOM      2  C   UNL     1      -0.391   1.340  -4.851  0.00  0.00    +0.255 C 
ATOM      3  O   UNL     1       0.608   0.654  -4.817  0.00  0.00    -0.272 OA
ATOM      4  H   UNL     1      -1.719   2.251  -6.065  0.00  0.00    +0.155 HD
ENDROOT
BRANCH   1  12
ATOM      5  C   UNL     1       2.705  -0.912 -12.457  0.00  0.00    +0.008 C 
ATOM      6  C   UNL     1       1.598  -0.495 -11.487  0.00  0.00    -0.009 C 
ATOM      7  C   UNL     1       1.064   0.887 -11.877  0.00  0.00    +0.008 C 
ATOM      8  C   UNL     1      -0.199   1.202 -11.074  0.00  0.00    +0.037 C 
ATOM      9  C   UNL     1       0.097   0.999  -9.593  0.00  0.00    -0.021 A 
ATOM     10  C   UNL     1       1.160   0.269  -9.191  0.00  0.00    -0.004 A 
ATOM     11  S   UNL     1       1.101   0.321  -7.422  0.00  0.00    -0.077 S 
ATOM     12  C   UNL     1      -0.321   1.289  -7.217  0.00  0.00    +0.086 A 
ATOM     13  C   UNL     1      -0.712   1.556  -8.523  0.00  0.00    +0.091 A 
ATOM     14  C   UNL     1       2.163  -0.422 -10.061  0.00  0.00    +0.046 C 
BRANCH  13  15
ATOM     15  C   UNL     1      -1.896   2.369  -8.810  0.00  0.00    +0.342 C 
ATOM     16  O   UNL     1      -1.790   3.575  -8.930  0.00  0.00    -0.245 OA
BRANCH  15  17
ATOM     17  O   UNL     1      -3.102   1.781  -8.941  0.00  0.00    -0.458 OA
BRANCH  17  18
ATOM     18  C   UNL     1      -4.231   2.649  -9.226  0.00  0.00    +0.171 C 
ATOM     19  C   UNL     1      -4.395   2.793 -10.740  0.00  0.00    +0.052 C 
ATOM     20  C   UNL     1      -5.503   2.043  -8.630  0.00  0.00    +0.052 C 
ENDBRANCH  17  18
ENDBRANCH  15  17
ENDBRANCH  13  15
ENDBRANCH   1  12
BRANCH   2  21
ATOM     21  C   UNL     1      -1.042   1.789  -3.568  0.00  0.00    +0.328 C 
BRANCH  21  22
ATOM     22  O   UNL     1      -0.290   1.274  -2.438  0.00  0.00    -0.455 OA
BRANCH  22  23
ATOM     23  C   UNL     1      -0.742   1.585  -1.213  0.00  0.00    +0.313 C 
ATOM     24  O   UNL     1      -1.732   2.266  -1.089  0.00  0.00    -0.250 OA
BRANCH  23  25
ATOM     25  C   UNL     1      -0.013   1.086   0.008  0.00  0.00    +0.178 C 
BRANCH  25  26
ATOM     26  C   UNL     1      -0.718   1.572   1.248  0.00  0.00    +0.080 A 
ATOM     27  C   UNL     1      -0.204   1.213   2.570  0.00  0.00    +0.011 A 
ATOM     28  C   UNL     1       0.943   0.432   2.728  0.00  0.00    +0.010 A 
ATOM     29  C   UNL     1       1.387   0.130   3.984  0.00  0.00    +0.001 A 
ATOM     30  C   UNL     1       0.717   0.593   5.109  0.00  0.00    +0.001 A 
ATOM     31  C   UNL     1      -0.414   1.369   4.984  0.00  0.00    +0.014 A 
ATOM     32  C   UNL     1      -0.886   1.691   3.712  0.00  0.00    +0.050 A 
ATOM     33  C   UNL     1      -2.085   2.514   3.512  0.00  0.00    +0.272 A 
ATOM     34  O   UNL     1      -2.709   2.944   4.466  0.00  0.00    -0.266 OA
ATOM     35  N   UNL     1      -2.483   2.785   2.252  0.00  0.00    -0.242 N 
ATOM     36  H   UNL     1      -3.274   3.329   2.113  0.00  0.00    +0.192 HD
ATOM     37  N   UNL     1      -1.786   2.305   1.143  0.00  0.00    -0.175 NA
ENDBRANCH  25  26
ENDBRANCH  23  25
ENDBRANCH  22  23
ENDBRANCH  21  22
ENDBRANCH   2  21
TORSDOF 9
