REMARK  Name = ZINC38770236
REMARK  5 active torsions:
REMARK  status: ('A' for Active; 'I' for Inactive)
REMARK    1  A    between atoms: C_16  and  C_18
REMARK    2  A    between atoms: C_18  and  S_19
REMARK    3  A    between atoms: S_19  and  C_20
REMARK    4  A    between atoms: C_24  and  C_29
REMARK    5  A    between atoms: N_25  and  C_26
REMARK                            x       y       z     vdW  Elec       q    Type
REMARK                         _______ _______ _______ _____ _____    ______ ____
ROOT
ATOM      1  S   UNL     1       6.767  -0.870   2.167  0.00  0.00    -0.109 S 
ENDROOT
BRANCH   1   2
ATOM      2  C   UNL     1       8.436  -1.492   1.823  0.00  0.00    +0.237 C 
ATOM      3  N   UNL     1       8.833  -1.166   0.443  0.00  0.00    -0.237 N 
ATOM      4  N   UNL     1       9.052  -2.387  -0.206  0.00  0.00    -0.169 NA
ATOM      5  C   UNL     1       8.840  -3.396   0.597  0.00  0.00    +0.147 C 
ATOM      6  N   UNL     1       8.458  -2.963   1.872  0.00  0.00    -0.282 N 
ATOM      7  H   UNL     1       8.924  -0.280   0.059  0.00  0.00    +0.171 HD
BRANCH   5   8
ATOM      8  C   UNL     1       8.979  -4.743   0.228  0.00  0.00    +0.022 C 
ATOM      9  C   UNL     1       9.450  -5.240  -0.988  0.00  0.00    +0.006 A 
ATOM     10  C   UNL     1       9.908  -4.608  -2.163  0.00  0.00    +0.010 A 
ATOM     11  C   UNL     1      10.316  -5.360  -3.218  0.00  0.00    +0.001 A 
ATOM     12  C   UNL     1      10.294  -6.756  -3.172  0.00  0.00    +0.002 A 
ATOM     13  C   UNL     1       9.866  -7.429  -2.076  0.00  0.00    +0.026 A 
ATOM     14  C   UNL     1       9.424  -6.711  -0.935  0.00  0.00    +0.043 A 
ATOM     15  N   UNL     1       8.970  -7.123   0.233  0.00  0.00    -0.380 N 
ATOM     16  C   UNL     1       8.657  -5.959   1.068  0.00  0.00    +0.152 C 
ATOM     17  H   UNL     1       8.864  -8.050   0.499  0.00  0.00    +0.160 HD
ENDBRANCH   5   8
BRANCH   6  18
ATOM     18  C   UNL     1       8.142  -3.806   3.028  0.00  0.00    +0.078 C 
ATOM     19  C   UNL     1       7.661  -3.107   4.301  0.00  0.00    +0.024 C 
ATOM     20  C   UNL     1       9.065  -3.712   4.244  0.00  0.00    +0.024 C 
ENDBRANCH   6  18
ENDBRANCH   1   2
BRANCH   1  21
ATOM     21  C   UNL     1       5.739  -1.645   0.889  0.00  0.00    +0.169 C 
BRANCH  21  37
ATOM     22  C   UNL     1      -0.587  -0.372   0.545  0.00  0.00    +0.000 A 
ATOM     23  C   UNL     1       0.438   0.549   0.419  0.00  0.00    +0.002 A 
ATOM     24  C   UNL     1       1.737   0.098   0.323  0.00  0.00    +0.024 A 
ATOM     25  C   UNL     1       2.018  -1.264   0.362  0.00  0.00    +0.044 A 
ATOM     26  C   UNL     1       1.003  -2.194   0.515  0.00  0.00    -0.025 A 
ATOM     27  C   UNL     1      -0.309  -1.718   0.590  0.00  0.00    +0.005 A 
ATOM     28  C   UNL     1       1.139  -3.694   0.653  0.00  0.00    +0.042 C 
ATOM     29  C   UNL     1       2.582  -4.166   0.632  0.00  0.00    +0.042 C 
ATOM     30  C   UNL     1       3.249  -3.830  -0.676  0.00  0.00    -0.025 A 
ATOM     31  C   UNL     1       3.434  -4.756  -1.678  0.00  0.00    +0.005 A 
ATOM     32  C   UNL     1       4.084  -4.362  -2.838  0.00  0.00    +0.000 A 
ATOM     33  C   UNL     1       4.539  -3.063  -2.981  0.00  0.00    +0.002 A 
ATOM     34  C   UNL     1       4.339  -2.136  -1.971  0.00  0.00    +0.024 A 
ATOM     35  C   UNL     1       3.677  -2.538  -0.825  0.00  0.00    +0.044 A 
ATOM     36  N   UNL     1       3.357  -1.658   0.221  0.00  0.00    -0.239 N 
ATOM     37  C   UNL     1       4.307  -1.206   1.063  0.00  0.00    +0.234 C 
ATOM     38  O   UNL     1       4.010  -0.446   1.960  0.00  0.00    -0.274 OA
ENDBRANCH  21  37
ENDBRANCH   1  21
TORSDOF 5
