REMARK  Name = ZINC11839701
REMARK  7 active torsions:
REMARK  status: ('A' for Active; 'I' for Inactive)
REMARK    1  A    between atoms: C_1  and  C_2
REMARK    2  A    between atoms: C_6  and  C_8
REMARK    3  A    between atoms: C_18  and  C_21
REMARK    4  A    between atoms: C_21  and  N_22
REMARK    5  A    between atoms: C_23  and  C_25
REMARK    6  A    between atoms: C_25  and  C_26
REMARK    7  A    between atoms: C_29  and  C_35
REMARK                            x       y       z     vdW  Elec       q    Type
REMARK                         _______ _______ _______ _____ _____    ______ ____
ROOT
ATOM      1  C   UNL     1      -1.292  -0.776   0.009  0.00  0.00    +0.044 C 
ATOM      2  C   UNL     1       0.002  -0.004   0.002  0.00  0.00    -0.049 A 
ATOM      3  C   UNL     1      -0.017   1.381   0.010  0.00  0.00    +0.010 A 
ATOM      4  C   UNL     1       1.163   2.092   0.002  0.00  0.00    -0.001 A 
ATOM      5  C   UNL     1       2.388   1.440  -0.005  0.00  0.00    +0.134 A 
ATOM      6  C   UNL     1       2.405   0.034  -0.016  0.00  0.00    +0.049 A 
ATOM      7  C   UNL     1       1.206  -0.676  -0.013  0.00  0.00    +0.017 A 
ATOM      8  O   UNL     1       3.420   2.325   0.006  0.00  0.00    -0.486 OA
ATOM      9  C   UNL     1       2.944   3.612  -0.425  0.00  0.00    +0.195 C 
ATOM     10  C   UNL     1       1.454   3.581  -0.011  0.00  0.00    +0.085 C 
ENDROOT
BRANCH   6  11
ATOM     11  C   UNL     1       3.693  -0.689  -0.030  0.00  0.00    +0.113 A 
ATOM     12  N   UNL     1       4.915  -0.200  -0.041  0.00  0.00    -0.239 NA
ATOM     13  C   UNL     1       6.009  -0.985  -0.050  0.00  0.00    +0.079 A 
ATOM     14  C   UNL     1       7.369  -0.591  -0.057  0.00  0.00    +0.029 A 
ATOM     15  C   UNL     1       8.363  -1.518  -0.072  0.00  0.00    +0.002 A 
ATOM     16  C   UNL     1       8.091  -2.879  -0.079  0.00  0.00    +0.001 A 
ATOM     17  C   UNL     1       6.776  -3.307  -0.072  0.00  0.00    +0.017 A 
ATOM     18  C   UNL     1       5.764  -2.379  -0.058  0.00  0.00    +0.040 A 
ATOM     19  S   UNL     1       3.989  -2.452  -0.045  0.00  0.00    -0.067 S 
ENDBRANCH   6  11
BRANCH   9  20
ATOM     20  C   UNL     1       3.685   4.735   0.303  0.00  0.00    +0.149 C 
BRANCH  20  21
ATOM     21  N   UNL     1       5.092   4.736  -0.105  0.00  0.00    -0.312 N 
ATOM     22  C   UNL     1       5.943   5.645   0.412  0.00  0.00    +0.215 C 
ATOM     23  O   UNL     1       5.544   6.462   1.214  0.00  0.00    -0.276 OA
ATOM     24  H   UNL     1       5.412   4.082  -0.746  0.00  0.00    +0.149 HD
BRANCH  22  25
ATOM     25  C   UNL     1       7.391   5.646  -0.008  0.00  0.00    +0.118 C 
BRANCH  25  26
ATOM     26  C   UNL     1       8.132   6.769   0.720  0.00  0.00    +0.082 C 
ATOM     27  C   UNL     1       9.572   6.851   0.203  0.00  0.00    +0.044 C 
ATOM     28  C   UNL     1      10.326   7.902   1.025  0.00  0.00    +0.071 C 
ATOM     29  N   UNL     1      10.228   7.562   2.445  0.00  0.00    -0.324 N 
ATOM     30  C   UNL     1       9.171   6.895   2.931  0.00  0.00    +0.131 C 
ATOM     31  S   UNL     1       9.119   6.545   4.606  0.00  0.00    -0.019 S 
ATOM     32  N   UNL     1       8.153   6.491   2.157  0.00  0.00    -0.323 N 
ATOM     33  C   UNL     1       9.706   9.280   0.785  0.00  0.00    +0.028 C 
ATOM     34  H   UNL     1      10.941   7.825   3.047  0.00  0.00    +0.148 HD
ATOM     35  H   UNL     1       7.415   6.004   2.557  0.00  0.00    +0.148 HD
ENDBRANCH  25  26
ENDBRANCH  22  25
ENDBRANCH  20  21
ENDBRANCH   9  20
TORSDOF 5
