REMARK  Name = ZINC38799090
REMARK  9 active torsions:
REMARK  status: ('A' for Active; 'I' for Inactive)
REMARK    1  A    between atoms: C_1  and  C_2
REMARK    2  A    between atoms: C_2  and  C_3
REMARK    3  A    between atoms: C_3  and  C_4
REMARK    4  A    between atoms: C_3  and  C_6
REMARK    5  A    between atoms: C_4  and  C_5
REMARK    6  A    between atoms: C_6  and  C_7
REMARK    7  A    between atoms: C_10  and  C_34
REMARK    8  A    between atoms: C_13  and  C_15
REMARK    9  A    between atoms: C_17  and  C_28
REMARK                            x       y       z     vdW  Elec       q    Type
REMARK                         _______ _______ _______ _____ _____    ______ ____
ROOT
ATOM      1  C   UNL     1       1.512  -6.849   0.721  0.00  0.00    +0.152 C 
ATOM      2  C   UNL     1       1.070  -6.237  -0.594  0.00  0.00    -0.014 C 
ATOM      3  C   UNL     1      -0.164  -6.651  -1.103  0.00  0.00    +0.002 A 
ATOM      4  C   UNL     1      -0.652  -6.132  -2.321  0.00  0.00    +0.030 A 
ATOM      5  C   UNL     1      -1.857  -6.553  -2.794  0.00  0.00    +0.042 A 
ATOM      6  C   UNL     1      -2.622  -7.487  -2.099  0.00  0.00    +0.022 A 
ATOM      7  C   UNL     1      -2.204  -8.024  -0.919  0.00  0.00    +0.025 A 
ATOM      8  C   UNL     1      -0.969  -7.635  -0.370  0.00  0.00    +0.041 A 
ATOM      9  N   UNL     1      -0.559  -8.163   0.788  0.00  0.00    -0.284 N 
ATOM     10  C   UNL     1       0.583  -7.852   1.367  0.00  0.00    +0.230 C 
ATOM     11  O   UNL     1       0.891  -8.373   2.423  0.00  0.00    -0.274 OA
ATOM     12 CL   UNL     1      -2.453  -5.911  -4.293  0.00  0.00    -0.084 Cl
ATOM     13  H   UNL     1      -1.134  -8.810   1.226  0.00  0.00    +0.155 HD
ENDROOT
BRANCH   1  19
ATOM     14  C   UNL     1       1.506  -2.330   2.591  0.00  0.00    +0.235 C 
ATOM     15  O   UNL     1       1.901  -1.667   3.526  0.00  0.00    -0.274 OA
ATOM     16  N   UNL     1       1.735  -3.658   2.561  0.00  0.00    -0.186 N 
ATOM     17  C   UNL     1       2.351  -4.447   3.641  0.00  0.00    +0.147 C 
ATOM     18  C   UNL     1       2.362  -5.879   3.070  0.00  0.00    +0.082 C 
ATOM     19  C   UNL     1       1.736  -5.727   1.702  0.00  0.00    +0.055 C 
ATOM     20  N   UNL     1       1.422  -4.513   1.506  0.00  0.00    -0.185 NA
BRANCH  17  21
ATOM     21  C   UNL     1       3.775  -3.961   3.919  0.00  0.00    +0.199 C 
ATOM     22  C   UNL     1       4.679  -4.153   2.676  0.00  0.00    +0.076 C 
ATOM     23  C   UNL     1       5.992  -4.575   3.313  0.00  0.00    +0.014 C 
ATOM     24  C   UNL     1       5.734  -4.915   4.557  0.00  0.00    +0.183 C 
ATOM     25  O   UNL     1       4.427  -4.804   4.889  0.00  0.00    -0.494 OA
ENDBRANCH  17  21
BRANCH  14  26
ATOM     26  C   UNL     1       0.759  -1.669   1.461  0.00  0.00    +0.101 C 
BRANCH  26  27
ATOM     27  C   UNL     1       0.605  -0.175   1.756  0.00  0.00    -0.003 C 
BRANCH  27  29
ATOM     28  C   UNL     1       1.843   1.962   2.134  0.00  0.00    +0.004 C 
ATOM     29  C   UNL     1       1.980   0.496   1.717  0.00  0.00    +0.000 C 
ENDBRANCH  27  29
BRANCH  27  30
ATOM     30  C   UNL     1      -0.304   0.462   0.704  0.00  0.00    +0.000 C 
ATOM     31  C   UNL     1      -1.721  -0.098   0.848  0.00  0.00    +0.004 C 
ENDBRANCH  27  30
ENDBRANCH  26  27
ENDBRANCH  14  26
ENDBRANCH   1  19
BRANCH   2  32
ATOM     32  C   UNL     1       1.871  -5.287  -1.276  0.00  0.00    -0.020 A 
ATOM     33  C   UNL     1       1.407  -3.975  -1.464  0.00  0.00    +0.008 A 
ATOM     34  C   UNL     1       2.194  -3.061  -2.128  0.00  0.00    +0.001 A 
ATOM     35  C   UNL     1       3.439  -3.431  -2.610  0.00  0.00    +0.000 A 
ATOM     36  C   UNL     1       3.906  -4.722  -2.429  0.00  0.00    +0.001 A 
ATOM     37  C   UNL     1       3.138  -5.651  -1.763  0.00  0.00    +0.008 A 
ENDBRANCH   2  32
TORSDOF 7
