REMARK  Name = ZINC04698929
REMARK  5 active torsions:
REMARK  status: ('A' for Active; 'I' for Inactive)
REMARK    1  A    between atoms: C_9  and  O_26
REMARK    2  A    between atoms: C_10  and  C_11
REMARK    3  A    between atoms: N_12  and  N_13
REMARK    4  A    between atoms: C_14  and  C_16
REMARK    5  A    between atoms: N_18  and  C_19
REMARK                            x       y       z     vdW  Elec       q    Type
REMARK                         _______ _______ _______ _____ _____    ______ ____
ROOT
ATOM      1  N   UNL     1       7.322   0.147  -0.047  0.00  0.00    -0.199 N 
ATOM      2  C   UNL     1       8.490  -0.525  -0.068  0.00  0.00    +0.318 C 
ATOM      3  O   UNL     1       8.492  -1.740  -0.069  0.00  0.00    -0.263 OA
ATOM      4  H   UNL     1       7.320   1.117  -0.046  0.00  0.00    +0.178 HD
ENDROOT
BRANCH   2   5
ATOM      5  C   UNL     1       9.779   0.222  -0.088  0.00  0.00    +0.305 C 
ATOM      6  O   UNL     1       9.777   1.436  -0.086  0.00  0.00    -0.265 OA
ATOM      7  N   UNL     1      10.948  -0.450  -0.108  0.00  0.00    -0.277 N 
ATOM      8  H   UNL     1      10.952  -1.417  -0.043  0.00  0.00    +0.155 HD
BRANCH   7   9
ATOM      9  C   UNL     1      12.153   0.248  -0.222  0.00  0.00    +0.048 A 
ATOM     10  C   UNL     1      12.295   1.495   0.374  0.00  0.00    +0.024 A 
ATOM     11  C   UNL     1      13.488   2.182   0.260  0.00  0.00    +0.002 A 
ATOM     12  C   UNL     1      14.541   1.630  -0.448  0.00  0.00    +0.001 A 
ATOM     13  C   UNL     1      14.404   0.389  -1.042  0.00  0.00    +0.017 A 
ATOM     14  C   UNL     1      13.215  -0.306  -0.927  0.00  0.00    +0.039 A 
ATOM     15 BR   UNL     1      13.030  -2.006  -1.735  0.00  0.00    -0.048 Br
ENDBRANCH   7   9
ENDBRANCH   2   5
BRANCH   1  17
ATOM     16  C   UNL     1       4.982   0.093  -0.009  0.00  0.00    +0.142 C 
ATOM     17  N   UNL     1       6.110  -0.556  -0.028  0.00  0.00    -0.187 NA
BRANCH  16  27
ATOM     18  C   UNL     1      -0.015   1.361   0.076  0.00  0.00    +0.001 A 
ATOM     19  C   UNL     1       1.169   2.094   0.059  0.00  0.00    +0.001 A 
ATOM     20  C   UNL     1       2.380   1.468   0.037  0.00  0.00    +0.009 A 
ATOM     21  C   UNL     1       2.436   0.069   0.034  0.00  0.00    -0.006 A 
ATOM     22  C   UNL     1       1.234  -0.679   0.052  0.00  0.00    -0.017 A 
ATOM     23  C   UNL     1       0.003  -0.001   0.073  0.00  0.00    +0.008 A 
ATOM     24  C   UNL     1       1.291  -2.084   0.049  0.00  0.00    +0.012 A 
ATOM     25  C   UNL     1       2.487  -2.732   0.029  0.00  0.00    +0.046 A 
ATOM     26  C   UNL     1       3.696  -2.039   0.011  0.00  0.00    +0.126 A 
ATOM     27  C   UNL     1       3.712  -0.643   0.011  0.00  0.00    +0.044 A 
BRANCH  26  28
ATOM     28  O   UNL     1       4.867  -2.727  -0.009  0.00  0.00    -0.506 OA
ATOM     29  H   UNL     1       5.192  -2.925  -0.897  0.00  0.00    +0.292 HD
ENDBRANCH  26  28
ENDBRANCH  16  27
ENDBRANCH   1  17
TORSDOF 5
