REMARK  Name = ZINC40681450
REMARK  7 active torsions:
REMARK  status: ('A' for Active; 'I' for Inactive)
REMARK    1  A    between atoms: C_1  and  C_2
REMARK    2  A    between atoms: C_4  and  C_24
REMARK    3  A    between atoms: C_6  and  O_8
REMARK    4  A    between atoms: O_8  and  C_9
REMARK    5  A    between atoms: C_10  and  N_23
REMARK    6  A    between atoms: C_11  and  N_15
REMARK    7  A    between atoms: N_15  and  C_16
REMARK                            x       y       z     vdW  Elec       q    Type
REMARK                         _______ _______ _______ _____ _____    ______ ____
ROOT
ATOM      1  C   UNL     1       0.113  -2.070   3.515  0.00  0.00    +0.246 A 
ATOM      2  C   UNL     1       0.250  -2.724   4.739  0.00  0.00    +0.128 A 
ATOM      3  C   UNL     1       0.373  -1.946   5.893  0.00  0.00    +0.151 A 
ATOM      4  N   UNL     1       0.354  -0.620   5.781  0.00  0.00    -0.218 NA
ATOM      5  C   UNL     1       0.222  -0.043   4.604  0.00  0.00    +0.227 A 
ATOM      6  N   UNL     1       0.110  -0.741   3.492  0.00  0.00    -0.199 NA
ENDROOT
BRANCH   2   7
ATOM      7  N   UNL     1       0.265  -4.125   4.809  0.00  0.00    -0.351 N 
ATOM      8  H   UNL     1       0.178  -4.653   3.999  0.00  0.00    +0.143 HD
ATOM      9  H   UNL     1       0.360  -4.567   5.667  0.00  0.00    +0.143 HD
ENDBRANCH   2   7
BRANCH   3  10
ATOM     10  N   UNL     1       0.511  -2.548   7.138  0.00  0.00    -0.297 N 
ATOM     11  H   UNL     1       0.613  -3.510   7.203  0.00  0.00    +0.154 HD
BRANCH  10  12
ATOM     12  C   UNL     1       0.505  -1.765   8.297  0.00  0.00    +0.047 A 
ATOM     13  C   UNL     1      -0.123  -0.527   8.297  0.00  0.00    +0.024 A 
ATOM     14  C   UNL     1      -0.128   0.244   9.443  0.00  0.00    +0.002 A 
ATOM     15  C   UNL     1       0.494  -0.216  10.590  0.00  0.00    +0.001 A 
ATOM     16  C   UNL     1       1.121  -1.449  10.594  0.00  0.00    +0.017 A 
ATOM     17  C   UNL     1       1.123  -2.228   9.452  0.00  0.00    +0.039 A 
ATOM     18 BR   UNL     1       1.974  -3.917   9.461  0.00  0.00    -0.048 Br
ENDBRANCH  10  12
ENDBRANCH   3  10
BRANCH   1  19
ATOM     19  O   UNL     1      -0.009  -2.779   2.365  0.00  0.00    -0.436 OA
BRANCH  19  25
ATOM     20  C   UNL     1       2.289   0.062  -0.871  0.00  0.00    +0.044 C 
ATOM     21  C   UNL     1       1.069  -0.697  -0.417  0.00  0.00    -0.047 A 
ATOM     22  C   UNL     1      -0.074  -0.696  -1.196  0.00  0.00    +0.007 A 
ATOM     23  C   UNL     1      -1.195  -1.392  -0.783  0.00  0.00    -0.047 A 
ATOM     24  C   UNL     1      -1.176  -2.090   0.409  0.00  0.00    +0.049 A 
ATOM     25  C   UNL     1      -0.030  -2.093   1.192  0.00  0.00    +0.131 A 
ATOM     26  C   UNL     1       1.095  -1.398   0.772  0.00  0.00    +0.049 A 
ATOM     27  C   UNL     1      -2.439  -1.389  -1.633  0.00  0.00    +0.044 C 
ENDBRANCH  19  25
ENDBRANCH   1  19
TORSDOF 5
