REMARK  Name = ZINC66178481
REMARK  7 active torsions:
REMARK  status: ('A' for Active; 'I' for Inactive)
REMARK    1  A    between atoms: C_1  and  C_2
REMARK    2  A    between atoms: C_5  and  C_29
REMARK    3  A    between atoms: N_8  and  C_10
REMARK    4  A    between atoms: C_10  and  C_11
REMARK    5  A    between atoms: C_11  and  N_12
REMARK    6  A    between atoms: N_15  and  C_16
REMARK    7  A    between atoms: N_15  and  C_17
REMARK                            x       y       z     vdW  Elec       q    Type
REMARK                         _______ _______ _______ _____ _____    ______ ____
ROOT
ATOM      1  N   UNL     1       3.780  -2.562   3.356  0.00  0.00    -0.301 N 
ATOM      2  C   UNL     1       5.094  -2.279   3.449  0.00  0.00    +0.302 C 
ATOM      3  O   UNL     1       5.637  -1.620   2.584  0.00  0.00    -0.253 OA
ATOM      4  N   UNL     1       5.806  -2.725   4.503  0.00  0.00    -0.286 N 
ATOM      5  C   UNL     1       5.152  -3.519   5.546  0.00  0.00    +0.134 C 
ATOM      6  H   UNL     1       3.346  -3.088   4.046  0.00  0.00    +0.150 HD
ENDROOT
BRANCH   4   7
ATOM      7  C   UNL     1       7.235  -2.417   4.604  0.00  0.00    +0.080 C 
ATOM      8  C   UNL     1       8.037  -3.720   4.633  0.00  0.00    +0.041 C 
ATOM      9  C   UNL     1       9.532  -3.393   4.705  0.00  0.00    +0.108 C 
ATOM     10  N   UNL     1       9.769  -2.513   5.857  0.00  0.00    -0.317 N 
ATOM     11  C   UNL     1       8.984  -1.276   5.975  0.00  0.00    +0.108 C 
ATOM     12  C   UNL     1       7.495  -1.627   5.889  0.00  0.00    +0.041 C 
ATOM     13  C   UNL     1      10.717  -2.844   6.819  0.00  0.00    +0.099 A 
ATOM     14  C   UNL     1      11.015  -1.940   7.833  0.00  0.00    +0.042 A 
ATOM     15  C   UNL     1      11.960  -2.283   8.783  0.00  0.00    +0.005 A 
ATOM     16  C   UNL     1      12.578  -3.523   8.686  0.00  0.00    +0.018 A 
ATOM     17  C   UNL     1      12.233  -4.371   7.653  0.00  0.00    +0.084 A 
ATOM     18  N   UNL     1      11.324  -4.020   6.763  0.00  0.00    -0.350 N 
ATOM     19  H   UNL     1      11.097  -4.636   6.050  0.00  0.00    +0.166 HD
ENDBRANCH   4   7
BRANCH   1  20
ATOM     20  C   UNL     1       3.005  -2.076   2.211  0.00  0.00    +0.087 C 
BRANCH  20  21
ATOM     21  C   UNL     1       1.552  -2.534   2.347  0.00  0.00    -0.060 C 
BRANCH  21  27
ATOM     22  C   UNL     1      -0.049   1.464   0.019  0.00  0.00    +0.005 C 
ATOM     23  C   UNL     1      -0.005  -0.065  -0.012  0.00  0.00    -0.031 C 
ATOM     24  C   UNL     1      -1.433  -0.618  -0.015  0.00  0.00    +0.003 C 
ATOM     25  C   UNL     1      -1.378  -2.147   0.033  0.00  0.00    -0.031 C 
ATOM     26  C   UNL     1      -0.589  -2.586   1.269  0.00  0.00    -0.076 C 
ATOM     27  N   UNL     1       0.775  -2.047   1.199  0.00  0.00    +0.381 N 
ATOM     28  C   UNL     1       0.734  -0.580   1.225  0.00  0.00    -0.076 C 
ATOM     29  C   UNL     1      -2.799  -2.708   0.109  0.00  0.00    +0.005 C 
ATOM     30  H   UNL     1       1.214  -2.355   0.344  0.00  0.00    -0.082 HD
ENDBRANCH  21  27
ENDBRANCH  20  21
ENDBRANCH   1  20
TORSDOF 4
