REMARK  Name = ZINC04750280
REMARK  5 active torsions:
REMARK  status: ('A' for Active; 'I' for Inactive)
REMARK    1  A    between atoms: C_3  and  S_16
REMARK    2  A    between atoms: C_6  and  N_7
REMARK    3  A    between atoms: C_8  and  C_10
REMARK    4  A    between atoms: S_16  and  N_19
REMARK    5  A    between atoms: N_19  and  C_20
REMARK                            x       y       z     vdW  Elec       q    Type
REMARK                         _______ _______ _______ _____ _____    ______ ____
ROOT
ATOM      1  C   UNL     1      -3.466  -1.534   2.424  0.00  0.00    +0.025 A 
ATOM      2  C   UNL     1      -4.707  -2.027   2.775  0.00  0.00    +0.030 A 
ATOM      3  C   UNL     1      -5.669  -2.238   1.804  0.00  0.00    +0.105 A 
ATOM      4  C   UNL     1      -5.393  -1.951   0.479  0.00  0.00    +0.030 A 
ATOM      5  C   UNL     1      -4.155  -1.453   0.122  0.00  0.00    +0.025 A 
ATOM      6  C   UNL     1      -3.187  -1.240   1.096  0.00  0.00    +0.034 A 
ENDROOT
BRANCH   6   7
ATOM      7  N   UNL     1      -1.932  -0.735   0.738  0.00  0.00    -0.283 N 
ATOM      8  C   UNL     1      -1.254   0.054   1.594  0.00  0.00    +0.246 C 
ATOM      9  O   UNL     1      -1.771   0.407   2.633  0.00  0.00    -0.273 OA
ATOM     10  H   UNL     1      -1.550  -0.953  -0.127  0.00  0.00    +0.155 HD
BRANCH   8  11
ATOM     11  C   UNL     1       0.147   0.499   1.261  0.00  0.00    +0.204 C 
ATOM     12  C   UNL     1       0.138   1.414   0.011  0.00  0.00    +0.043 C 
ATOM     13  C   UNL     1       1.442   2.229   0.232  0.00  0.00    +0.031 C 
ATOM     14  C   UNL     1       1.490   2.359   1.770  0.00  0.00    +0.161 C 
ATOM     15  O   UNL     1       0.679   1.313   2.318  0.00  0.00    -0.367 OA
ENDBRANCH   8  11
ENDBRANCH   6   7
BRANCH   3  16
ATOM     16  S   UNL     1      -7.249  -2.873   2.254  0.00  0.00    +0.059 S 
ATOM     17  O   UNL     1      -7.292  -2.886   3.675  0.00  0.00    -0.153 OA
ATOM     18  O   UNL     1      -8.206  -2.175   1.470  0.00  0.00    -0.153 OA
BRANCH  16  19
ATOM     19  N   UNL     1      -7.299  -4.455   1.765  0.00  0.00    -0.184 NA
ATOM     20  H   UNL     1      -7.825  -4.706   0.990  0.00  0.00    +0.149 HD
BRANCH  19  21
ATOM     21  C   UNL     1      -6.547  -5.473   2.502  0.00  0.00    +0.041 C 
ATOM     22  C   UNL     1      -7.147  -5.637   3.900  0.00  0.00    +0.027 C 
ATOM     23  C   UNL     1      -6.362  -6.701   4.670  0.00  0.00    -0.009 C 
ATOM     24  C   UNL     1      -6.440  -8.034   3.922  0.00  0.00    +0.007 C 
ATOM     25  C   UNL     1      -5.841  -7.870   2.524  0.00  0.00    -0.009 C 
ATOM     26  C   UNL     1      -6.625  -6.806   1.754  0.00  0.00    +0.027 C 
ATOM     27  C   UNL     1      -4.378  -7.437   2.644  0.00  0.00    +0.007 C 
ATOM     28  C   UNL     1      -4.300  -6.105   3.392  0.00  0.00    -0.009 C 
ATOM     29  C   UNL     1      -4.899  -6.269   4.790  0.00  0.00    +0.007 C 
ATOM     30  C   UNL     1      -5.085  -5.041   2.622  0.00  0.00    +0.027 C 
ENDBRANCH  19  21
ENDBRANCH  16  19
ENDBRANCH   3  16
TORSDOF 5
