REMARK  Name = ZINC05123438
REMARK  7 active torsions:
REMARK  status: ('A' for Active; 'I' for Inactive)
REMARK    1  A    between atoms: C_1  and  C_2
REMARK    2  A    between atoms: C_5  and  N_8
REMARK    3  A    between atoms: C_10  and  N_15
REMARK    4  A    between atoms: N_18  and  C_19
REMARK    5  A    between atoms: C_22  and  C_29
REMARK    6  A    between atoms: C_25  and  C_27
REMARK    7  A    between atoms: C_25  and  C_28
REMARK                            x       y       z     vdW  Elec       q    Type
REMARK                         _______ _______ _______ _____ _____    ______ ____
ROOT
ATOM      1  N   UNL     1      -1.020  -2.414  -1.803  0.00  0.00    -0.295 N 
ATOM      2  C   UNL     1      -1.073  -3.649  -2.340  0.00  0.00    +0.300 C 
ATOM      3  O   UNL     1      -0.901  -4.626  -1.637  0.00  0.00    -0.253 OA
ATOM      4  N   UNL     1      -1.318  -3.802  -3.657  0.00  0.00    -0.297 N 
ATOM      5  H   UNL     1      -1.158  -1.635  -2.364  0.00  0.00    +0.151 HD
ATOM      6  H   UNL     1      -1.456  -3.023  -4.218  0.00  0.00    +0.151 HD
ENDROOT
BRANCH   4   7
ATOM      7  C   UNL     1      -1.375  -5.144  -4.240  0.00  0.00    +0.075 C 
ATOM      8  C   UNL     1       0.039  -5.606  -4.599  0.00  0.00    +0.025 C 
ATOM      9  C   UNL     1      -0.021  -7.008  -5.208  0.00  0.00    -0.012 C 
ATOM     10  C   UNL     1      -0.884  -6.978  -6.472  0.00  0.00    +0.009 C 
ATOM     11  C   UNL     1      -2.298  -6.517  -6.113  0.00  0.00    -0.033 C 
ATOM     12  C   UNL     1      -2.238  -5.115  -5.504  0.00  0.00    +0.028 C 
ATOM     13  C   UNL     1      -3.161  -6.487  -7.377  0.00  0.00    +0.011 C 
ATOM     14  C   UNL     1      -2.910  -7.487  -5.101  0.00  0.00    +0.011 C 
ATOM     15  C   UNL     1       1.393  -7.469  -5.567  0.00  0.00    +0.007 C 
ENDBRANCH   4   7
BRANCH   1  18
ATOM     16  N   UNL     1       0.002  -0.004   0.002  0.00  0.00    -0.270 N 
ATOM     17  C   UNL     1      -1.192  -0.849   0.120  0.00  0.00    +0.136 C 
ATOM     18  C   UNL     1      -0.755  -2.248  -0.372  0.00  0.00    +0.101 C 
ATOM     19  C   UNL     1       0.766  -2.218  -0.091  0.00  0.00    +0.120 C 
ATOM     20  C   UNL     1       1.117  -0.747  -0.109  0.00  0.00    +0.222 C 
ATOM     21  O   UNL     1       2.241  -0.302  -0.209  0.00  0.00    -0.275 OA
BRANCH  16  26
ATOM     22  C   UNL     1      -0.075   5.668   0.035  0.00  0.00    +0.044 C 
ATOM     23  C   UNL     1      -0.054   4.162   0.025  0.00  0.00    -0.050 A 
ATOM     24  C   UNL     1       1.153   3.488   0.025  0.00  0.00    +0.005 A 
ATOM     25  C   UNL     1       1.175   2.107   0.018  0.00  0.00    +0.024 A 
ATOM     26  C   UNL     1      -0.017   1.395   0.010  0.00  0.00    +0.036 A 
ATOM     27  C   UNL     1      -1.228   2.075   0.004  0.00  0.00    +0.024 A 
ATOM     28  C   UNL     1      -1.243   3.455   0.018  0.00  0.00    +0.005 A 
ENDBRANCH  16  26
ENDBRANCH   1  18
TORSDOF 3
