REMARK  Name = ZINC36697832
REMARK  11 active torsions:
REMARK  status: ('A' for Active; 'I' for Inactive)
REMARK    1  A    between atoms: C_1  and  C_2
REMARK    2  A    between atoms: C_5  and  N_8
REMARK    3  A    between atoms: C_9  and  C_11
REMARK    4  A    between atoms: C_11  and  S_12
REMARK    5  A    between atoms: S_12  and  C_13
REMARK    6  A    between atoms: C_13  and  C_15
REMARK    7  A    between atoms: C_13  and  C_16
REMARK    8  A    between atoms: N_18  and  C_19
REMARK    9  A    between atoms: C_19  and  C_20
REMARK   10  A    between atoms: C_20  and  C_22
REMARK   11  A    between atoms: C_20  and  C_28
REMARK                            x       y       z     vdW  Elec       q    Type
REMARK                         _______ _______ _______ _____ _____    ______ ____
ROOT
ATOM      1  C   UNL     1       0.843  -9.391   3.977  0.00  0.00    +0.226 C 
ATOM      2  O   UNL     1       0.475  -8.828   4.987  0.00  0.00    -0.275 OA
ATOM      3  N   UNL     1       1.472 -10.580   4.060  0.00  0.00    -0.314 N 
ATOM      4  H   UNL     1       1.767 -11.030   3.252  0.00  0.00    +0.149 HD
ENDROOT
BRANCH   1   5
ATOM      5  C   UNL     1       0.597  -8.760   2.631  0.00  0.00    +0.129 C 
ATOM      6  C   UNL     1      -0.696  -9.320   2.034  0.00  0.00    +0.029 C 
BRANCH   5   7
ATOM      7  S   UNL     1       0.446  -6.963   2.823  0.00  0.00    -0.139 S 
BRANCH   7   8
ATOM      8  C   UNL     1       0.309  -6.349   1.121  0.00  0.00    +0.165 C 
BRANCH   8  10
ATOM      9  N   UNL     1       0.059  -4.170  -0.021  0.00  0.00    -0.285 N 
ATOM     10  C   UNL     1       0.175  -4.848   1.138  0.00  0.00    +0.227 C 
ATOM     11  O   UNL     1       0.173  -4.251   2.193  0.00  0.00    -0.275 OA
ATOM     12  H   UNL     1      -0.017  -4.651  -0.860  0.00  0.00    +0.155 HD
BRANCH   9  17
ATOM     13  C   UNL     1       0.008   1.503   0.007  0.00  0.00    +0.044 C 
ATOM     14  C   UNL     1       0.022  -0.004  -0.001  0.00  0.00    -0.050 A 
ATOM     15  C   UNL     1       0.777  -0.692   0.931  0.00  0.00    +0.005 A 
ATOM     16  C   UNL     1       0.791  -2.073   0.927  0.00  0.00    +0.023 A 
ATOM     17  C   UNL     1       0.046  -2.771  -0.014  0.00  0.00    +0.033 A 
ATOM     18  C   UNL     1      -0.712  -2.077  -0.948  0.00  0.00    +0.023 A 
ATOM     19  C   UNL     1      -0.726  -0.696  -0.936  0.00  0.00    +0.005 A 
ENDBRANCH   9  17
ENDBRANCH   8  10
ENDBRANCH   7   8
ENDBRANCH   5   7
ENDBRANCH   1   5
BRANCH   3  20
ATOM     20  C   UNL     1       1.712 -11.193   5.369  0.00  0.00    +0.117 C 
BRANCH  20  21
ATOM     21  C   UNL     1       2.436 -12.527   5.183  0.00  0.00    +0.068 C 
BRANCH  21  22
ATOM     22  C   UNL     1       2.573 -13.215   6.516  0.00  0.00    -0.013 A 
ATOM     23  C   UNL     1       3.207 -12.738   7.599  0.00  0.00    +0.088 A 
ATOM     24  N   UNL     1       3.124 -13.641   8.624  0.00  0.00    -0.360 N 
ATOM     25  H   UNL     1       3.506 -13.518   9.507  0.00  0.00    +0.165 HD
ATOM     26  C   UNL     1       2.415 -14.748   8.216  0.00  0.00    +0.047 A 
ATOM     27  C   UNL     1       2.034 -14.528   6.879  0.00  0.00    +0.003 A 
ATOM     28  C   UNL     1       1.290 -15.493   6.199  0.00  0.00    +0.010 A 
ATOM     29  C   UNL     1       0.933 -16.648   6.836  0.00  0.00    +0.001 A 
ATOM     30  C   UNL     1       1.303 -16.869   8.155  0.00  0.00    +0.002 A 
ATOM     31  C   UNL     1       2.045 -15.933   8.843  0.00  0.00    +0.026 A 
ENDBRANCH  21  22
BRANCH  21  32
ATOM     32  C   UNL     1       3.805 -12.279   4.602  0.00  0.00    -0.038 A 
ATOM     33  C   UNL     1       4.717 -11.502   5.292  0.00  0.00    +0.004 A 
ATOM     34  C   UNL     1       5.973 -11.274   4.760  0.00  0.00    +0.000 A 
ATOM     35  C   UNL     1       6.316 -11.824   3.538  0.00  0.00    +0.000 A 
ATOM     36  C   UNL     1       5.404 -12.601   2.850  0.00  0.00    +0.000 A 
ATOM     37  C   UNL     1       4.150 -12.832   3.384  0.00  0.00    +0.004 A 
ENDBRANCH  21  32
ENDBRANCH  20  21
ENDBRANCH   3  20
TORSDOF 9
