REMARK  Name = ZINC09914682
REMARK  2 active torsions:
REMARK  status: ('A' for Active; 'I' for Inactive)
REMARK    1  A    between atoms: N_10  and  N_11
REMARK    2  A    between atoms: C_15  and  C_16
REMARK                            x       y       z     vdW  Elec       q    Type
REMARK                         _______ _______ _______ _____ _____    ______ ____
ROOT
ATOM      1  N   UNL     1       1.592   0.976  -0.035  0.00  0.00    -0.170 N 
ATOM      2  C   UNL     1       2.145   1.352   1.106  0.00  0.00    +0.275 C 
ATOM      3  O   UNL     1       1.700   0.995   2.181  0.00  0.00    -0.267 OA
ATOM      4  C   UNL     1       3.333   2.227   1.010  0.00  0.00    +0.079 C 
ATOM      5  C   UNL     1       4.096   2.761   1.996  0.00  0.00    +0.028 C 
ATOM      6  S   UNL     1       3.486   2.387  -0.764  0.00  0.00    -0.059 S 
ATOM      7  C   UNL     1       2.093   1.369  -1.224  0.00  0.00    +0.138 C 
ATOM      8  S   UNL     1       1.528   0.987  -2.794  0.00  0.00    -0.026 S 
ENDROOT
BRANCH   1  18
ATOM      9  C   UNL     1      -4.205   3.773  -1.390  0.00  0.00    +0.002 A 
ATOM     10  C   UNL     1      -5.126   2.740  -1.299  0.00  0.00    +0.001 A 
ATOM     11  C   UNL     1      -4.687   1.468  -0.977  0.00  0.00    +0.017 A 
ATOM     12  C   UNL     1      -3.351   1.250  -0.752  0.00  0.00    +0.041 A 
ATOM     13  C   UNL     1      -2.385   2.277  -0.835  0.00  0.00    +0.080 A 
ATOM     14  C   UNL     1      -2.869   3.564  -1.168  0.00  0.00    +0.029 A 
ATOM     15  N   UNL     1      -1.111   1.906  -0.580  0.00  0.00    -0.224 NA
ATOM     16  C   UNL     1      -0.783   0.669  -0.285  0.00  0.00    +0.176 A 
ATOM     17  S   UNL     1      -2.364  -0.164  -0.325  0.00  0.00    -0.051 S 
ATOM     18  N   UNL     1       0.464   0.146  -0.008  0.00  0.00    -0.234 N 
ATOM     19  H   UNL     1       0.559  -0.796   0.201  0.00  0.00    +0.173 HD
ENDBRANCH   1  18
BRANCH   5  20
ATOM     20  C   UNL     1       5.337   3.472   1.661  0.00  0.00    -0.024 A 
ATOM     21  C   UNL     1       5.831   3.446   0.351  0.00  0.00    +0.009 A 
ATOM     22  C   UNL     1       6.993   4.120   0.043  0.00  0.00    +0.020 A 
ATOM     23  C   UNL     1       7.678   4.813   1.028  0.00  0.00    +0.041 A 
ATOM     24  C   UNL     1       7.198   4.840   2.328  0.00  0.00    +0.020 A 
ATOM     25  C   UNL     1       6.034   4.175   2.650  0.00  0.00    +0.009 A 
ATOM     26 CL   UNL     1       9.145   5.653   0.633  0.00  0.00    -0.084 Cl
ENDBRANCH   5  20
TORSDOF 2
