REMARK  Name = ZINC62089168
REMARK  5 active torsions:
REMARK  status: ('A' for Active; 'I' for Inactive)
REMARK    1  A    between atoms: C_3  and  C_6
REMARK    2  A    between atoms: C_7  and  C_12
REMARK    3  A    between atoms: C_12  and  C_13
REMARK    4  A    between atoms: C_13  and  C_14
REMARK    5  A    between atoms: N_16  and  C_17
REMARK                            x       y       z     vdW  Elec       q    Type
REMARK                         _______ _______ _______ _____ _____    ______ ____
ROOT
ATOM      1  C   UNL     1       4.863  -1.334   0.515  0.00  0.00    +0.101 C 
ENDROOT
BRANCH   1   2
ATOM      2  C   UNL     1       4.784  -2.606   1.319  0.00  0.00    +0.218 C 
ATOM      3  O   UNL     1       4.565  -2.558   2.511  0.00  0.00    -0.275 OA
ATOM      4  N   UNL     1       4.956  -3.798   0.713  0.00  0.00    -0.285 N 
ATOM      5  H   UNL     1       5.064  -3.841  -0.250  0.00  0.00    +0.155 HD
BRANCH   4   6
ATOM      6  C   UNL     1       4.979  -4.973   1.474  0.00  0.00    +0.036 A 
ATOM      7  C   UNL     1       5.816  -6.021   1.109  0.00  0.00    +0.027 A 
ATOM      8  C   UNL     1       5.843  -7.182   1.855  0.00  0.00    +0.050 A 
ATOM      9  C   UNL     1       5.033  -7.306   2.974  0.00  0.00    +0.157 A 
ATOM     10  C   UNL     1       4.193  -6.256   3.342  0.00  0.00    +0.089 A 
ATOM     11  C   UNL     1       4.170  -5.089   2.595  0.00  0.00    +0.052 A 
ATOM     12  N   UNL     1       3.514  -6.672   4.487  0.00  0.00    -0.288 N 
ATOM     13  H   UNL     1       2.856  -6.159   4.982  0.00  0.00    +0.172 HD
ATOM     14  C   UNL     1       3.939  -7.917   4.781  0.00  0.00    +0.419 A 
ATOM     15  O   UNL     1       3.555  -8.586   5.721  0.00  0.00    -0.223 OA
ATOM     16  O   UNL     1       4.851  -8.303   3.876  0.00  0.00    -0.408 OA
ENDBRANCH   4   6
ENDBRANCH   1   2
BRANCH   1  17
ATOM     17  C   UNL     1       4.633  -0.134   1.436  0.00  0.00    +0.054 C 
BRANCH  17  19
ATOM     18  C   UNL     1       3.724   1.821  -0.020  0.00  0.00    +0.090 A 
ATOM     19  C   UNL     1       4.713   1.139   0.633  0.00  0.00    +0.020 A 
ATOM     20  S   UNL     1       6.126   2.172   0.271  0.00  0.00    -0.057 S 
ATOM     21  C   UNL     1       5.266   3.398  -0.705  0.00  0.00    +0.156 A 
ATOM     22  N   UNL     1       4.029   2.937  -0.680  0.00  0.00    -0.224 NA
ATOM     23  N   UNL     1       5.766   4.530  -1.327  0.00  0.00    -0.337 N 
ATOM     24  H   UNL     1       6.710   4.743  -1.260  0.00  0.00    +0.144 HD
ATOM     25  H   UNL     1       5.173   5.110  -1.829  0.00  0.00    +0.144 HD
BRANCH  18  28
ATOM     26  C   UNL     1      -0.032   1.341   0.041  0.00  0.00    +0.008 A 
ATOM     27  C   UNL     1       1.161   2.032   0.024  0.00  0.00    +0.018 A 
ATOM     28  C   UNL     1       2.332   1.322   0.001  0.00  0.00    +0.038 A 
ATOM     29  S   UNL     1       1.740  -0.362   0.004  0.00  0.00    -0.095 S 
ATOM     30  C   UNL     1      -0.011  -0.015   0.035  0.00  0.00    +0.046 A 
ENDBRANCH  18  28
ENDBRANCH  17  19
ENDBRANCH   1  17
TORSDOF 5
