REMARK  Name = ZINC15229092
REMARK  5 active torsions:
REMARK  status: ('A' for Active; 'I' for Inactive)
REMARK    1  A    between atoms: C_1  and  C_2
REMARK    2  A    between atoms: C_11  and  C_14
REMARK    3  A    between atoms: C_11  and  S_20
REMARK    4  A    between atoms: C_14  and  N_51
REMARK    5  A    between atoms: S_20  and  C_21
REMARK                            x       y       z     vdW  Elec       q    Type
REMARK                         _______ _______ _______ _____ _____    ______ ____
ROOT
ATOM      1  C   UNL     1      -2.286   1.791   1.526  0.00  0.00    +0.045 C 
ATOM      2  C   UNL     1      -1.051   2.578   1.167  0.00  0.00    -0.033 A 
ATOM      3  C   UNL     1      -1.117   3.954   1.090  0.00  0.00    +0.050 A 
ATOM      4  C   UNL     1       0.013   4.688   0.754  0.00  0.00    +0.131 A 
ATOM      5  C   UNL     1       1.219   4.012   0.506  0.00  0.00    +0.062 A 
ATOM      6  C   UNL     1       1.275   2.620   0.590  0.00  0.00    +0.030 A 
ATOM      7  C   UNL     1       0.140   1.911   0.922  0.00  0.00    +0.022 A 
ATOM      8 BR   UNL     1       0.205   0.025   1.037  0.00  0.00    -0.050 Br
ATOM      9  C   UNL     1       2.418   4.795   0.159  0.00  0.00    +0.184 C 
ATOM     10  O   UNL     1       3.524   4.296   0.145  0.00  0.00    -0.290 OA
ATOM     11  C   UNL     1       2.198   6.259  -0.178  0.00  0.00    +0.103 C 
ATOM     12  C   UNL     1       1.143   6.796   0.800  0.00  0.00    +0.253 C 
ATOM     13  O   UNL     1      -0.057   6.036   0.665  0.00  0.00    -0.489 OA
ENDROOT
BRANCH  11  14
ATOM     14  C   UNL     1       3.506   7.035  -0.012  0.00  0.00    -0.049 C 
BRANCH  14  20
ATOM     15  C   UNL     1       5.893   6.682  -0.212  0.00  0.00    -0.079 C 
ATOM     16  C   UNL     1       6.963   5.857  -0.931  0.00  0.00    -0.019 C 
ATOM     17  C   UNL     1       6.929   6.181  -2.427  0.00  0.00    -0.004 C 
ATOM     18  C   UNL     1       5.529   5.888  -2.974  0.00  0.00    -0.019 C 
ATOM     19  C   UNL     1       4.501   6.712  -2.195  0.00  0.00    -0.079 C 
ATOM     20  N   UNL     1       4.567   6.336  -0.767  0.00  0.00    +0.381 N 
ATOM     21  H   UNL     1       4.425   5.323  -0.682  0.00  0.00    -0.082 HD
ENDBRANCH  14  20
ENDBRANCH  11  14
BRANCH  11  22
ATOM     22  S   UNL     1       1.599   6.417  -1.883  0.00  0.00    -0.109 S 
BRANCH  22  23
ATOM     23  C   UNL     1       1.514   8.157  -2.145  0.00  0.00    +0.009 A 
ATOM     24  C   UNL     1       1.760   9.033  -1.095  0.00  0.00    +0.016 A 
ATOM     25  C   UNL     1       1.696  10.396  -1.304  0.00  0.00    +0.021 A 
ATOM     26  C   UNL     1       1.378  10.891  -2.557  0.00  0.00    +0.041 A 
ATOM     27  C   UNL     1       1.127  10.021  -3.604  0.00  0.00    +0.021 A 
ATOM     28  C   UNL     1       1.194   8.657  -3.402  0.00  0.00    +0.016 A 
ATOM     29 CL   UNL     1       1.293  12.605  -2.815  0.00  0.00    -0.084 Cl
ENDBRANCH  22  23
ENDBRANCH  11  22
TORSDOF 4
