REMARK  Name = ZINC57276420
REMARK  7 active torsions:
REMARK  status: ('A' for Active; 'I' for Inactive)
REMARK    1  A    between atoms: C_4  and  C_7
REMARK    2  A    between atoms: C_10  and  C_13
REMARK    3  A    between atoms: C_13  and  C_14
REMARK    4  A    between atoms: C_14  and  C_15
REMARK    5  A    between atoms: N_17  and  C_18
REMARK    6  A    between atoms: C_18  and  C_19
REMARK    7  A    between atoms: N_23  and  C_25
REMARK                            x       y       z     vdW  Elec       q    Type
REMARK                         _______ _______ _______ _____ _____    ______ ____
ROOT
ATOM      1  C   UNL     1       6.762  -5.499   1.332  0.00  0.00    +0.213 C 
ATOM      2  O   UNL     1       6.919  -6.080   0.279  0.00  0.00    -0.276 OA
ATOM      3  N   UNL     1       7.138  -6.084   2.487  0.00  0.00    -0.315 N 
ATOM      4  H   UNL     1       7.012  -5.619   3.329  0.00  0.00    +0.149 HD
ENDROOT
BRANCH   1   5
ATOM      5  C   UNL     1       6.146  -4.124   1.350  0.00  0.00    +0.102 C 
BRANCH   5   6
ATOM      6  C   UNL     1       5.813  -3.696  -0.081  0.00  0.00    +0.062 C 
BRANCH   6  10
ATOM      7  C   UNL     1       3.696  -0.685  -0.037  0.00  0.00    +0.047 A 
ATOM      8  C   UNL     1       4.932  -0.112  -0.041  0.00  0.00    +0.028 A 
ATOM      9  C   UNL     1       5.875  -1.152  -0.057  0.00  0.00    +0.023 A 
ATOM     10  C   UNL     1       5.197  -2.321  -0.064  0.00  0.00    +0.017 A 
ATOM     11  N   UNL     1       3.862  -2.046  -0.046  0.00  0.00    -0.358 N 
ATOM     12  H   UNL     1       3.149  -2.704  -0.043  0.00  0.00    +0.166 HD
BRANCH   7  16
ATOM     13  C   UNL     1      -0.017   1.379   0.010  0.00  0.00    +0.000 A 
ATOM     14  C   UNL     1       1.168   2.093   0.002  0.00  0.00    +0.001 A 
ATOM     15  C   UNL     1       2.377   1.429  -0.013  0.00  0.00    +0.010 A 
ATOM     16  C   UNL     1       2.403   0.034  -0.021  0.00  0.00    -0.002 A 
ATOM     17  C   UNL     1       1.204  -0.681  -0.013  0.00  0.00    +0.010 A 
ATOM     18  C   UNL     1       0.002  -0.004   0.002  0.00  0.00    +0.001 A 
ENDBRANCH   7  16
ENDBRANCH   6  10
ENDBRANCH   5   6
ENDBRANCH   1   5
BRANCH   3  19
ATOM     19  C   UNL     1       7.737  -7.421   2.470  0.00  0.00    +0.109 C 
BRANCH  19  20
ATOM     20  C   UNL     1       8.070  -7.849   3.900  0.00  0.00    +0.025 C 
ATOM     21  C   UNL     1       9.244  -7.011   4.473  0.00  0.00    +0.025 C 
ATOM     22  C   UNL     1       9.864  -7.957   5.523  0.00  0.00    +0.105 C 
ATOM     23  N   UNL     1       9.473  -9.327   5.161  0.00  0.00    -0.330 N 
ATOM     24  C   UNL     1       8.664  -9.279   3.928  0.00  0.00    +0.110 C 
BRANCH  23  25
ATOM     25  C   UNL     1       9.811 -10.485   5.867  0.00  0.00    +0.030 A 
ATOM     26  C   UNL     1       9.383 -11.726   5.415  0.00  0.00    +0.026 A 
ATOM     27  C   UNL     1       9.719 -12.869   6.115  0.00  0.00    +0.040 A 
ATOM     28  C   UNL     1      10.483 -12.777   7.266  0.00  0.00    +0.124 A 
ATOM     29  C   UNL     1      10.911 -11.541   7.719  0.00  0.00    +0.040 A 
ATOM     30  C   UNL     1      10.582 -10.396   7.019  0.00  0.00    +0.026 A 
ATOM     31  F   UNL     1      10.810 -13.896   7.949  0.00  0.00    -0.205 F 
ENDBRANCH  23  25
ENDBRANCH  19  20
ENDBRANCH   3  19
TORSDOF 7
