REMARK  Name = ZINC09495469
REMARK  9 active torsions:
REMARK  status: ('A' for Active; 'I' for Inactive)
REMARK    1  A    between atoms: C_1  and  C_2
REMARK    2  A    between atoms: C_5  and  C_41
REMARK    3  A    between atoms: N_8  and  S_10
REMARK    4  A    between atoms: S_10  and  C_13
REMARK    5  A    between atoms: C_21  and  C_25
REMARK    6  A    between atoms: N_27  and  C_28
REMARK    7  A    between atoms: N_27  and  C_34
REMARK    8  A    between atoms: C_28  and  C_29
REMARK    9  A    between atoms: C_34  and  C_35
REMARK                            x       y       z     vdW  Elec       q    Type
REMARK                         _______ _______ _______ _____ _____    ______ ____
ROOT
ATOM      1  C   UNL     1       7.391   8.507  -2.971  0.00  0.00    +0.106 A 
ATOM      2  C   UNL     1       8.407   8.139  -2.100  0.00  0.00    +0.030 A 
ATOM      3  C   UNL     1       8.177   7.226  -1.095  0.00  0.00    +0.028 A 
ATOM      4  C   UNL     1       6.913   6.660  -0.945  0.00  0.00    +0.050 A 
ATOM      5  C   UNL     1       5.886   7.035  -1.828  0.00  0.00    +0.048 A 
ATOM      6  C   UNL     1       6.133   7.961  -2.841  0.00  0.00    +0.042 A 
ATOM      7  C   UNL     1       4.552   6.429  -1.657  0.00  0.00    +0.202 A 
ATOM      8  O   UNL     1       3.624   6.717  -2.393  0.00  0.00    -0.286 OA
ATOM      9  C   UNL     1       4.388   5.462  -0.560  0.00  0.00    +0.100 A 
ATOM     10  C   UNL     1       5.471   5.178   0.245  0.00  0.00    +0.100 A 
ATOM     11  N   UNL     1       6.670   5.745   0.056  0.00  0.00    -0.360 N 
ATOM     12  H   UNL     1       7.397   5.505   0.651  0.00  0.00    +0.165 HD
ENDROOT
BRANCH   1  13
ATOM     13  S   UNL     1       7.711   9.679  -4.247  0.00  0.00    +0.061 S 
ATOM     14  O   UNL     1       9.108   9.633  -4.499  0.00  0.00    -0.153 OA
ATOM     15  O   UNL     1       6.745   9.445  -5.264  0.00  0.00    -0.153 OA
BRANCH  13  21
ATOM     16  C   UNL     1       5.409  10.934  -1.463  0.00  0.00    +0.009 C 
ATOM     17  C   UNL     1       5.575  12.179  -2.337  0.00  0.00    +0.002 C 
ATOM     18  C   UNL     1       6.615  13.109  -1.708  0.00  0.00    +0.009 C 
ATOM     19  C   UNL     1       7.947  12.367  -1.569  0.00  0.00    +0.002 C 
ATOM     20  C   UNL     1       8.444  11.954  -2.957  0.00  0.00    +0.112 C 
ATOM     21  N   UNL     1       7.390  11.180  -3.626  0.00  0.00    -0.176 NA
ATOM     22  C   UNL     1       6.047  11.765  -3.739  0.00  0.00    +0.112 C 
ATOM     23  C   UNL     1       8.977  13.287  -0.910  0.00  0.00    +0.009 C 
ENDBRANCH  13  21
ENDBRANCH   1  13
BRANCH   9  24
ATOM     24  C   UNL     1       3.089   4.814  -0.323  0.00  0.00    +0.252 C 
ATOM     25  O   UNL     1       2.057   5.422  -0.536  0.00  0.00    -0.270 OA
ATOM     26  N   UNL     1       3.042   3.546   0.132  0.00  0.00    -0.288 N 
BRANCH  26  27
ATOM     27  C   UNL     1       1.753   2.861   0.259  0.00  0.00    +0.182 C 
BRANCH  27  28
ATOM     28  C   UNL     1       1.105   3.247   1.564  0.00  0.00    +0.122 A 
ATOM     29  C   UNL     1       0.375   4.356   1.782  0.00  0.00    +0.046 A 
ATOM     30  C   UNL     1      -0.037   4.316   3.134  0.00  0.00    +0.041 A 
ATOM     31  C   UNL     1       0.474   3.190   3.664  0.00  0.00    +0.195 A 
ATOM     32  O   UNL     1       1.165   2.547   2.708  0.00  0.00    -0.466 OA
ENDBRANCH  27  28
ENDBRANCH  26  27
BRANCH  26  33
ATOM     33  C   UNL     1       4.279   2.852   0.498  0.00  0.00    +0.140 C 
BRANCH  33  34
ATOM     34  C   UNL     1       4.364   2.731   2.021  0.00  0.00    +0.136 C 
ATOM     35  C   UNL     1       5.718   2.115   2.437  0.00  0.00    +0.035 C 
ATOM     36  C   UNL     1       5.367   1.212   3.640  0.00  0.00    +0.031 C 
ATOM     37  C   UNL     1       3.842   1.389   3.809  0.00  0.00    +0.160 C 
ATOM     38  O   UNL     1       3.371   1.802   2.507  0.00  0.00    -0.375 OA
ENDBRANCH  33  34
ENDBRANCH  26  33
ENDBRANCH   9  24
TORSDOF 7
