REMARK  Name = ZINC09199666
REMARK  9 active torsions:
REMARK  status: ('A' for Active; 'I' for Inactive)
REMARK    1  A    between atoms: C_1  and  C_2
REMARK    2  A    between atoms: C_2  and  N_3
REMARK    3  A    between atoms: C_7  and  S_27
REMARK    4  A    between atoms: C_11  and  S_12
REMARK    5  A    between atoms: S_12  and  C_13
REMARK    6  A    between atoms: C_13  and  C_14
REMARK    7  A    between atoms: N_16  and  C_17
REMARK    8  A    between atoms: C_18  and  C_25
REMARK    9  A    between atoms: S_27  and  N_30
REMARK                            x       y       z     vdW  Elec       q    Type
REMARK                         _______ _______ _______ _____ _____    ______ ____
ROOT
ATOM      1  N   UNL     1      -1.750   4.881  -4.977  0.00  0.00    -0.319 N 
ATOM      2  C   UNL     1      -1.576   4.359  -3.705  0.00  0.00    +0.070 A 
ATOM      3  C   UNL     1      -1.048   4.860  -2.525  0.00  0.00    +0.030 A 
ATOM      4  C   UNL     1      -1.020   4.069  -1.395  0.00  0.00    +0.030 A 
ATOM      5  C   UNL     1      -1.507   2.771  -1.433  0.00  0.00    +0.107 A 
ATOM      6  C   UNL     1      -2.035   2.257  -2.597  0.00  0.00    +0.058 A 
ATOM      7  C   UNL     1      -2.075   3.047  -3.749  0.00  0.00    +0.092 A 
ATOM      8  N   UNL     1      -2.522   2.831  -5.013  0.00  0.00    -0.222 NA
ATOM      9  C   UNL     1      -2.332   3.906  -5.737  0.00  0.00    +0.170 A 
ENDROOT
BRANCH   5  10
ATOM     10  S   UNL     1      -1.456   1.774   0.019  0.00  0.00    +0.056 S 
ATOM     11  O   UNL     1      -2.472   0.792  -0.128  0.00  0.00    -0.153 OA
ATOM     12  O   UNL     1      -1.413   2.667   1.123  0.00  0.00    -0.153 OA
BRANCH  10  13
ATOM     13  N   UNL     1      -0.011   0.966   0.007  0.00  0.00    -0.204 NA
ATOM     14  H   UNL     1       0.002  -0.004   0.002  0.00  0.00    +0.144 HD
ATOM     15  H   UNL     1       0.822   1.462   0.002  0.00  0.00    +0.144 HD
ENDBRANCH  10  13
ENDBRANCH   5  10
BRANCH   1  17
ATOM     16  C   UNL     1      -2.557   7.179  -5.199  0.00  0.00    +0.027 C 
ATOM     17  C   UNL     1      -1.380   6.226  -5.422  0.00  0.00    +0.121 C 
ENDBRANCH   1  17
BRANCH   9  18
ATOM     18  S   UNL     1      -2.763   4.072  -7.438  0.00  0.00    -0.078 S 
BRANCH  18  19
ATOM     19  C   UNL     1      -3.462   2.430  -7.746  0.00  0.00    +0.173 C 
BRANCH  19  20
ATOM     20  C   UNL     1      -3.912   2.337  -9.181  0.00  0.00    +0.228 C 
ATOM     21  O   UNL     1      -3.774   3.287  -9.923  0.00  0.00    -0.275 OA
ATOM     22  N   UNL     1      -4.468   1.199  -9.641  0.00  0.00    -0.278 N 
ATOM     23  H   UNL     1      -4.578   0.439  -9.048  0.00  0.00    +0.155 HD
BRANCH  22  24
ATOM     24  C   UNL     1      -4.882   1.113 -10.963  0.00  0.00    +0.090 A 
ATOM     25  C   UNL     1      -5.463   0.040 -11.614  0.00  0.00    +0.084 A 
ATOM     26  C   UNL     1      -5.814   0.210 -13.022  0.00  0.00    -0.018 A 
ATOM     27  C   UNL     1      -5.518   1.416 -13.543  0.00  0.00    -0.004 A 
ATOM     28  S   UNL     1      -4.792   2.321 -12.198  0.00  0.00    -0.077 S 
ATOM     29  C   UNL     1      -5.905   1.514 -14.993  0.00  0.00    +0.043 C 
ATOM     30  C   UNL     1      -6.888   0.343 -15.214  0.00  0.00    +0.010 C 
ATOM     31  C   UNL     1      -6.448  -0.648 -14.118  0.00  0.00    +0.037 C 
BRANCH  25  32
ATOM     32  C   UNL     1      -5.715  -1.194 -10.931  0.00  0.00    +0.102 C 
ATOM     33  N   UNL     1      -5.915  -2.172 -10.389  0.00  0.00    -0.191 NA
ENDBRANCH  25  32
ENDBRANCH  22  24
ENDBRANCH  19  20
ENDBRANCH  18  19
ENDBRANCH   9  18
TORSDOF 8
