REMARK  Name = ZINC38889347
REMARK  3 active torsions:
REMARK  status: ('A' for Active; 'I' for Inactive)
REMARK    1  A    between atoms: C_4  and  C_7
REMARK    2  A    between atoms: C_17  and  S_19
REMARK    3  A    between atoms: S_19  and  C_20
REMARK                            x       y       z     vdW  Elec       q    Type
REMARK                         _______ _______ _______ _____ _____    ______ ____
ROOT
ATOM      1  C   UNL     1       3.648  -0.649  -0.037  0.00  0.00    -0.009 C 
ATOM      2  C   UNL     1       4.861   0.036  -0.144  0.00  0.00    +0.003 A 
ATOM      3  C   UNL     1       4.888   1.444  -0.239  0.00  0.00    +0.030 A 
ATOM      4  C   UNL     1       6.083   2.086  -0.342  0.00  0.00    +0.042 A 
ATOM      5  C   UNL     1       7.286   1.381  -0.355  0.00  0.00    +0.022 A 
ATOM      6  C   UNL     1       7.323   0.023  -0.268  0.00  0.00    +0.025 A 
ATOM      7  C   UNL     1       6.126  -0.707  -0.158  0.00  0.00    +0.041 A 
ATOM      8  N   UNL     1       6.165  -2.041  -0.071  0.00  0.00    -0.284 N 
ATOM      9  C   UNL     1       5.089  -2.796   0.033  0.00  0.00    +0.235 C 
ATOM     10  O   UNL     1       5.200  -4.006   0.108  0.00  0.00    -0.274 OA
ATOM     11  C   UNL     1       3.718  -2.161   0.066  0.00  0.00    +0.171 C 
ATOM     12 CL   UNL     1       6.111   3.818  -0.459  0.00  0.00    -0.084 Cl
ATOM     13  H   UNL     1       7.032  -2.477  -0.085  0.00  0.00    +0.155 HD
ENDROOT
BRANCH   1  17
ATOM     14  C   UNL     1      -0.017   1.380   0.011  0.00  0.00    +0.000 A 
ATOM     15  C   UNL     1       0.781   1.429  -1.120  0.00  0.00    +0.001 A 
ATOM     16  C   UNL     1       1.988   0.766  -1.147  0.00  0.00    +0.008 A 
ATOM     17  C   UNL     1       2.408   0.038  -0.021  0.00  0.00    -0.020 A 
ATOM     18  C   UNL     1       1.591  -0.005   1.121  0.00  0.00    +0.008 A 
ATOM     19  C   UNL     1       0.388   0.665   1.126  0.00  0.00    +0.001 A 
ENDBRANCH   1  17
BRANCH  11  20
ATOM     20  S   UNL     1       2.754  -2.858  -1.303  0.00  0.00    -0.067 S 
BRANCH  20  21
ATOM     21  C   UNL     1       2.780  -4.594  -1.002  0.00  0.00    +0.209 A 
ATOM     22  H   UNL     1       3.463  -7.270   0.444  0.00  0.00    +0.190 HD
ATOM     23  N   UNL     1       2.192  -5.525  -1.761  0.00  0.00    -0.210 NA
ATOM     24  C   UNL     1       2.409  -6.711  -1.253  0.00  0.00    +0.217 A 
ATOM     25  N   UNL     1       3.150  -6.564  -0.142  0.00  0.00    -0.264 N 
ATOM     26  N   UNL     1       3.384  -5.187   0.001  0.00  0.00    -0.146 NA
ENDBRANCH  20  21
ENDBRANCH  11  20
TORSDOF 3
