REMARK  Name = ZINC39965709
REMARK  12 active torsions:
REMARK  status: ('A' for Active; 'I' for Inactive)
REMARK    1  A    between atoms: C_1  and  C_2
REMARK    2  A    between atoms: C_3  and  C_32
REMARK    3  A    between atoms: C_4  and  N_10
REMARK    4  A    between atoms: C_6  and  C_7
REMARK    5  A    between atoms: C_11  and  C_13
REMARK    6  A    between atoms: C_13  and  S_14
REMARK    7  A    between atoms: S_14  and  C_15
REMARK    8  A    between atoms: C_18  and  C_23
REMARK    9  A    between atoms: N_19  and  C_20
REMARK   10  A    between atoms: C_20  and  C_21
REMARK   11  A    between atoms: C_32  and  O_34
REMARK   12  A    between atoms: O_34  and  C_35
REMARK                            x       y       z     vdW  Elec       q    Type
REMARK                         _______ _______ _______ _____ _____    ______ ____
ROOT
ATOM      1  N   UNL     1      -0.871  -3.126  -2.433  0.00  0.00    -0.279 N 
ATOM      2  C   UNL     1      -0.419  -4.362  -2.144  0.00  0.00    +0.228 C 
ATOM      3  O   UNL     1       0.011  -4.608  -1.037  0.00  0.00    -0.275 OA
ATOM      4  H   UNL     1      -1.215  -2.930  -3.318  0.00  0.00    +0.155 HD
ENDROOT
BRANCH   1   8
ATOM      5  C   UNL     1      -1.566   1.446  -0.478  0.00  0.00    +0.046 C 
ATOM      6  C   UNL     1      -1.142   0.000  -0.462  0.00  0.00    -0.015 A 
ATOM      7  C   UNL     1      -1.267  -0.813  -1.580  0.00  0.00    +0.091 A 
ATOM      8  C   UNL     1      -0.846  -2.139  -1.467  0.00  0.00    +0.087 A 
ATOM      9  S   UNL     1      -0.300  -2.253   0.117  0.00  0.00    -0.068 S 
ATOM     10  C   UNL     1      -0.606  -0.583   0.655  0.00  0.00    +0.079 A 
BRANCH  10  11
ATOM     11  C   UNL     1      -0.349   0.018   1.966  0.00  0.00    +0.248 C 
ATOM     12  O   UNL     1      -0.623   1.187   2.164  0.00  0.00    -0.270 OA
ATOM     13  N   UNL     1       0.191  -0.725   2.953  0.00  0.00    -0.325 N 
ATOM     14  H   UNL     1       0.409  -1.657   2.795  0.00  0.00    +0.145 HD
ATOM     15  H   UNL     1       0.361  -0.327   3.821  0.00  0.00    +0.145 HD
ENDBRANCH  10  11
BRANCH   7  16
ATOM     16  C   UNL     1      -1.824  -0.297  -2.836  0.00  0.00    +0.342 C 
ATOM     17  O   UNL     1      -1.089   0.198  -3.669  0.00  0.00    -0.245 OA
BRANCH  16  18
ATOM     18  O   UNL     1      -3.150  -0.371  -3.067  0.00  0.00    -0.464 OA
ATOM     19  C   UNL     1      -3.623   0.151  -4.310  0.00  0.00    +0.280 C 
ENDBRANCH  16  18
ENDBRANCH   7  16
ENDBRANCH   1   8
BRANCH   2  20
ATOM     20  C   UNL     1      -0.447  -5.440  -3.197  0.00  0.00    +0.173 C 
BRANCH  20  21
ATOM     21  S   UNL     1       0.223  -6.978  -2.507  0.00  0.00    -0.077 S 
BRANCH  21  22
ATOM     22  C   UNL     1       0.123  -8.123  -3.842  0.00  0.00    +0.193 A 
ATOM     23  N   UNL     1      -0.333  -7.875  -5.049  0.00  0.00    -0.122 NA
ATOM     24  N   UNL     1      -0.262  -8.934  -5.774  0.00  0.00    -0.128 NA
ATOM     25  C   UNL     1       0.244  -9.923  -5.075  0.00  0.00    +0.165 A 
ATOM     26  N   UNL     1       0.512  -9.433  -3.818  0.00  0.00    -0.298 N 
BRANCH  25  27
ATOM     27  C   UNL     1       0.486 -11.302  -5.550  0.00  0.00    +0.023 A 
ATOM     28  C   UNL     1       0.351 -12.379  -4.672  0.00  0.00    +0.015 A 
ATOM     29  C   UNL     1       0.577 -13.664  -5.117  0.00  0.00    +0.050 A 
ATOM     30  C   UNL     1       0.937 -13.893  -6.437  0.00  0.00    +0.166 A 
ATOM     31  C   UNL     1       1.073 -12.822  -7.319  0.00  0.00    +0.167 A 
ATOM     32  C   UNL     1       0.843 -11.531  -6.880  0.00  0.00    +0.061 A 
ATOM     33  O   UNL     1       1.431 -13.308  -8.543  0.00  0.00    -0.453 OA
ATOM     34  C   UNL     1       1.911 -14.644  -8.301  0.00  0.00    +0.466 C 
ATOM     35  O   UNL     1       1.210 -15.049  -7.110  0.00  0.00    -0.453 OA
ENDBRANCH  25  27
BRANCH  26  36
ATOM     36  C   UNL     1       1.091 -10.163  -2.687  0.00  0.00    +0.152 C 
BRANCH  36  37
ATOM     37  C   UNL     1      -0.015 -10.658  -1.790  0.00  0.00    -0.013 C 
ATOM     38  C   UNL     1      -0.074 -11.925  -1.462  0.00  0.00    +0.005 C 
ENDBRANCH  36  37
ENDBRANCH  26  36
ENDBRANCH  21  22
ENDBRANCH  20  21
ENDBRANCH   2  20
TORSDOF 10
