REMARK  Name = ZINC63587458
REMARK  6 active torsions:
REMARK  status: ('A' for Active; 'I' for Inactive)
REMARK    1  A    between atoms: C_7  and  C_10
REMARK    2  A    between atoms: C_10  and  C_11
REMARK    3  A    between atoms: N_13  and  N_14
REMARK    4  A    between atoms: N_14  and  C_15
REMARK    5  A    between atoms: C_15  and  N_17
REMARK    6  A    between atoms: N_17  and  C_18
REMARK                            x       y       z     vdW  Elec       q    Type
REMARK                         _______ _______ _______ _____ _____    ______ ____
ROOT
ATOM      1  C   UNL     1       0.460  -3.646  -1.440  0.00  0.00    +0.233 C 
ATOM      2  O   UNL     1       1.006  -3.075  -2.360  0.00  0.00    -0.274 OA
ATOM      3  N   UNL     1      -0.353  -4.693  -1.684  0.00  0.00    -0.235 N 
ATOM      4  H   UNL     1      -0.790  -5.150  -0.948  0.00  0.00    +0.173 HD
ENDROOT
BRANCH   3   5
ATOM      5  N   UNL     1      -0.567  -5.122  -3.001  0.00  0.00    -0.246 N 
ATOM      6  H   UNL     1      -0.131  -4.665  -3.737  0.00  0.00    +0.172 HD
BRANCH   5   7
ATOM      7  C   UNL     1      -1.380  -6.168  -3.245  0.00  0.00    +0.147 C 
ATOM      8  S   UNL     1      -1.642  -6.692  -4.854  0.00  0.00    -0.017 S 
BRANCH   7   9
ATOM      9  N   UNL     1      -1.987  -6.803  -2.223  0.00  0.00    -0.323 N 
ATOM     10  H   UNL     1      -1.839  -6.507  -1.311  0.00  0.00    +0.148 HD
BRANCH   9  11
ATOM     11  C   UNL     1      -2.871  -7.941  -2.488  0.00  0.00    +0.072 C 
ATOM     12  C   UNL     1      -4.276  -7.431  -2.812  0.00  0.00    +0.022 C 
ATOM     13  C   UNL     1      -5.199  -8.619  -3.090  0.00  0.00    +0.002 C 
ATOM     14  C   UNL     1      -5.256  -9.519  -1.854  0.00  0.00    +0.000 C 
ATOM     15  C   UNL     1      -3.851 -10.030  -1.529  0.00  0.00    +0.002 C 
ATOM     16  C   UNL     1      -2.928  -8.841  -1.252  0.00  0.00    +0.022 C 
ENDBRANCH   9  11
ENDBRANCH   7   9
ENDBRANCH   5   7
ENDBRANCH   3   5
BRANCH   1  17
ATOM     17  C   UNL     1       0.691  -3.186  -0.024  0.00  0.00    +0.130 C 
BRANCH  17  24
ATOM     18  C   UNL     1      -0.016   1.348   0.009  0.00  0.00    +0.001 A 
ATOM     19  C   UNL     1       1.166   2.101   0.002  0.00  0.00    +0.002 A 
ATOM     20  C   UNL     1       2.391   1.535  -0.013  0.00  0.00    +0.026 A 
ATOM     21  C   UNL     1       2.529   0.120  -0.022  0.00  0.00    +0.043 A 
ATOM     22  N   UNL     1       3.587  -0.654  -0.037  0.00  0.00    -0.380 N 
ATOM     23  C   UNL     1       3.143  -2.053  -0.041  0.00  0.00    +0.145 C 
ATOM     24  C   UNL     1       1.631  -2.008  -0.025  0.00  0.00    -0.033 C 
ATOM     25  C   UNL     1       1.295  -0.698  -0.014  0.00  0.00    -0.001 A 
ATOM     26  C   UNL     1       0.002  -0.004   0.002  0.00  0.00    +0.010 A 
ATOM     27  H   UNL     1       4.509  -0.353  -0.045  0.00  0.00    +0.160 HD
ENDBRANCH  17  24
ENDBRANCH   1  17
TORSDOF 6
