REMARK  Name = ZINC17878657
REMARK  8 active torsions:
REMARK  status: ('A' for Active; 'I' for Inactive)
REMARK    1  A    between atoms: C_1  and  O_2
REMARK    2  A    between atoms: O_2  and  C_3
REMARK    3  A    between atoms: C_6  and  C_11
REMARK    4  A    between atoms: C_8  and  O_9
REMARK    5  A    between atoms: O_9  and  C_10
REMARK    6  A    between atoms: C_11  and  N_12
REMARK    7  A    between atoms: C_19  and  C_22
REMARK    8  A    between atoms: C_19  and  O_30
REMARK                            x       y       z     vdW  Elec       q    Type
REMARK                         _______ _______ _______ _____ _____    ______ ____
ROOT
ATOM      1  N   UNL     1       3.926  -2.710  -4.085  0.00  0.00    -0.264 N 
ATOM      2  C   UNL     1       4.927  -1.779  -4.367  0.00  0.00    +0.043 A 
ATOM      3  C   UNL     1       4.858  -0.518  -4.957  0.00  0.00    +0.025 A 
ATOM      4  C   UNL     1       6.004   0.228  -5.134  0.00  0.00    +0.017 A 
ATOM      5  C   UNL     1       7.231  -0.268  -4.729  0.00  0.00    +0.018 A 
ATOM      6  C   UNL     1       7.307  -1.520  -4.141  0.00  0.00    +0.024 A 
ATOM      7  C   UNL     1       6.163  -2.266  -3.964  0.00  0.00    +0.017 A 
ATOM      8  C   UNL     1       5.909  -3.633  -3.373  0.00  0.00    +0.189 C 
ATOM      9  C   UNL     1       4.412  -3.817  -3.500  0.00  0.00    +0.258 C 
ATOM     10  O   UNL     1       3.772  -4.784  -3.143  0.00  0.00    -0.272 OA
ATOM     11 BR   UNL     1       8.799   0.760  -4.976  0.00  0.00    -0.050 Br
ENDROOT
BRANCH   8  12
ATOM     12  C   UNL     1       6.326  -3.667  -1.901  0.00  0.00    +0.187 C 
ATOM     13  C   UNL     1       6.178  -5.065  -1.311  0.00  0.00    +0.255 C 
ATOM     14  O   UNL     1       5.116  -5.648  -1.221  0.00  0.00    -0.272 OA
ATOM     15  N   UNL     1       7.318  -5.570  -0.913  0.00  0.00    -0.159 NA
ATOM     16  C   UNL     1       8.479  -4.947  -1.006  0.00  0.00    +0.145 C 
ATOM     17  S   UNL     1       8.144  -3.454  -1.711  0.00  0.00    -0.077 S 
ATOM     18  N   UNL     1       9.697  -5.415  -0.612  0.00  0.00    -0.340 N 
ATOM     19  H   UNL     1       9.773  -6.297  -0.214  0.00  0.00    +0.144 HD
ATOM     20  H   UNL     1      10.489  -4.867  -0.729  0.00  0.00    +0.144 HD
ENDBRANCH   8  12
BRANCH   8  21
ATOM     21  O   UNL     1       6.606  -4.637  -4.114  0.00  0.00    -0.373 OA
ATOM     22  H   UNL     1       6.357  -4.680  -5.048  0.00  0.00    +0.211 HD
ENDBRANCH   8  21
BRANCH   1  23
ATOM     23  C   UNL     1       2.507  -2.501  -4.386  0.00  0.00    +0.149 C 
BRANCH  23  27
ATOM     24  C   UNL     1       0.606  -0.608  -1.056  0.00  0.00    +0.162 A 
ATOM     25  C   UNL     1       1.173   0.159  -2.062  0.00  0.00    +0.050 A 
ATOM     26  C   UNL     1       1.787  -0.456  -3.137  0.00  0.00    +0.009 A 
ATOM     27  C   UNL     1       1.837  -1.836  -3.212  0.00  0.00    -0.026 A 
ATOM     28  C   UNL     1       1.273  -2.606  -2.212  0.00  0.00    +0.054 A 
ATOM     29  C   UNL     1       0.662  -1.996  -1.129  0.00  0.00    +0.162 A 
BRANCH  24  31
ATOM     30  C   UNL     1      -0.017   1.425   0.010  0.00  0.00    +0.277 C 
ATOM     31  O   UNL     1       0.002  -0.004   0.002  0.00  0.00    -0.491 OA
ENDBRANCH  24  31
BRANCH  29  32
ATOM     32  O   UNL     1       0.112  -2.753  -0.142  0.00  0.00    -0.491 OA
ATOM     33  C   UNL     1       0.206  -4.171  -0.283  0.00  0.00    +0.277 C 
ENDBRANCH  29  32
ENDBRANCH  23  27
ENDBRANCH   1  23
TORSDOF 6
