REMARK  Name = ZINC11414928
REMARK  9 active torsions:
REMARK  status: ('A' for Active; 'I' for Inactive)
REMARK    1  A    between atoms: C_1  and  C_2
REMARK    2  A    between atoms: C_2  and  C_3
REMARK    3  A    between atoms: C_3  and  C_4
REMARK    4  A    between atoms: C_4  and  C_5
REMARK    5  A    between atoms: C_8  and  N_11
REMARK    6  A    between atoms: C_21  and  S_22
REMARK    7  A    between atoms: S_22  and  C_23
REMARK    8  A    between atoms: C_23  and  C_25
REMARK    9  A    between atoms: C_23  and  C_31
REMARK                            x       y       z     vdW  Elec       q    Type
REMARK                         _______ _______ _______ _____ _____    ______ ____
ROOT
ATOM      1  N   UNL     1      -2.726   2.929   4.717  0.00  0.00    -0.255 N 
ATOM      2  C   UNL     1      -3.935   2.401   5.021  0.00  0.00    +0.267 A 
ATOM      3  O   UNL     1      -4.304   1.348   4.535  0.00  0.00    -0.267 OA
ATOM      4  C   UNL     1      -4.783   3.144   5.963  0.00  0.00    +0.065 A 
ATOM      5  C   UNL     1      -6.042   2.682   6.343  0.00  0.00    +0.015 A 
ATOM      6  C   UNL     1      -6.793   3.416   7.219  0.00  0.00    +0.001 A 
ATOM      7  C   UNL     1      -6.315   4.614   7.733  0.00  0.00    +0.002 A 
ATOM      8  C   UNL     1      -5.084   5.091   7.378  0.00  0.00    +0.028 A 
ATOM      9  C   UNL     1      -4.293   4.364   6.484  0.00  0.00    +0.079 A 
ATOM     10  N   UNL     1      -3.068   4.798   6.105  0.00  0.00    -0.223 NA
ATOM     11  C   UNL     1      -2.328   4.116   5.267  0.00  0.00    +0.178 A 
ENDROOT
BRANCH   1  15
ATOM     12  C   UNL     1      -0.206   0.927   2.069  0.00  0.00    -0.047 A 
ATOM     13  C   UNL     1      -0.829   2.098   1.677  0.00  0.00    +0.005 A 
ATOM     14  C   UNL     1      -1.669   2.760   2.550  0.00  0.00    +0.026 A 
ATOM     15  C   UNL     1      -1.879   2.256   3.827  0.00  0.00    +0.052 A 
ATOM     16  C   UNL     1      -1.247   1.083   4.220  0.00  0.00    +0.026 A 
ATOM     17  C   UNL     1      -0.413   0.422   3.340  0.00  0.00    +0.005 A 
BRANCH  12  18
ATOM     18  C   UNL     1       0.705   0.203   1.111  0.00  0.00    +0.035 C 
BRANCH  18  19
ATOM     19  C   UNL     1      -0.108  -0.809   0.300  0.00  0.00    +0.004 C 
BRANCH  19  21
ATOM     20  C   UNL     1       0.004  -2.555  -1.483  0.00  0.00    +0.004 C 
ATOM     21  C   UNL     1       0.816  -1.544  -0.672  0.00  0.00    -0.003 C 
ENDBRANCH  19  21
ENDBRANCH  18  19
ENDBRANCH  12  18
ENDBRANCH   1  15
BRANCH  11  22
ATOM     22  S   UNL     1      -0.746   4.756   4.829  0.00  0.00    -0.070 S 
BRANCH  22  23
ATOM     23  C   UNL     1      -0.742   6.279   5.806  0.00  0.00    +0.169 C 
BRANCH  23  24
ATOM     24  C   UNL     1       0.600   6.954   5.680  0.00  0.00    -0.025 A 
ATOM     25  C   UNL     1       1.158   7.154   4.432  0.00  0.00    +0.005 A 
ATOM     26  C   UNL     1       2.387   7.777   4.316  0.00  0.00    +0.000 A 
ATOM     27  C   UNL     1       3.062   8.190   5.449  0.00  0.00    +0.000 A 
ATOM     28  C   UNL     1       2.506   7.984   6.698  0.00  0.00    +0.000 A 
ATOM     29  C   UNL     1       1.276   7.366   6.814  0.00  0.00    +0.005 A 
ENDBRANCH  23  24
BRANCH  23  30
ATOM     30  C   UNL     1      -1.818   7.205   5.300  0.00  0.00    +0.228 C 
ATOM     31  O   UNL     1      -2.734   7.526   6.028  0.00  0.00    -0.274 OA
ATOM     32  N   UNL     1      -1.764   7.675   4.038  0.00  0.00    -0.328 N 
ATOM     33  H   UNL     1      -0.995   7.480   3.481  0.00  0.00    +0.145 HD
ATOM     34  H   UNL     1      -2.494   8.209   3.688  0.00  0.00    +0.145 HD
ENDBRANCH  23  30
ENDBRANCH  22  23
ENDBRANCH  11  22
TORSDOF 8
