REMARK  Name = ZINC40024678
REMARK  9 active torsions:
REMARK  status: ('A' for Active; 'I' for Inactive)
REMARK    1  A    between atoms: C_1  and  C_2
REMARK    2  A    between atoms: C_5  and  S_8
REMARK    3  A    between atoms: S_8  and  N_11
REMARK    4  A    between atoms: N_11  and  C_12
REMARK    5  A    between atoms: C_12  and  C_14
REMARK    6  A    between atoms: C_12  and  C_15
REMARK    7  A    between atoms: N_17  and  C_18
REMARK    8  A    between atoms: C_18  and  C_19
REMARK    9  A    between atoms: C_22  and  C_24
REMARK                            x       y       z     vdW  Elec       q    Type
REMARK                         _______ _______ _______ _____ _____    ______ ____
ROOT
ATOM      1  C   UNL     1       3.494  -5.825   1.312  0.00  0.00    +0.232 C 
ATOM      2  O   UNL     1       3.476  -6.784   0.570  0.00  0.00    -0.274 OA
ATOM      3  N   UNL     1       4.391  -5.766   2.316  0.00  0.00    -0.307 N 
ATOM      4  H   UNL     1       4.405  -4.999   2.910  0.00  0.00    +0.149 HD
ENDROOT
BRANCH   1   5
ATOM      5  C   UNL     1       2.512  -4.699   1.113  0.00  0.00    +0.159 C 
ATOM      6  C   UNL     1       3.273  -3.398   0.851  0.00  0.00    +0.035 C 
BRANCH   5   7
ATOM      7  N   UNL     1       1.651  -4.999  -0.034  0.00  0.00    -0.178 NA
ATOM      8  H   UNL     1       2.011  -5.473  -0.800  0.00  0.00    +0.149 HD
BRANCH   7   9
ATOM      9  S   UNL     1       0.063  -4.530  -0.023  0.00  0.00    +0.059 S 
ATOM     10  O   UNL     1      -0.476  -4.950   1.223  0.00  0.00    -0.153 OA
ATOM     11  O   UNL     1      -0.490  -4.937  -1.267  0.00  0.00    -0.153 OA
BRANCH   9  16
ATOM     12  C   UNL     1      -0.018   1.503   0.010  0.00  0.00    +0.044 C 
ATOM     13  C   UNL     1       0.002  -0.004   0.002  0.00  0.00    -0.050 A 
ATOM     14  C   UNL     1       0.006  -0.689  -1.199  0.00  0.00    +0.005 A 
ATOM     15  C   UNL     1       0.025  -2.071  -1.206  0.00  0.00    +0.029 A 
ATOM     16  C   UNL     1       0.040  -2.768  -0.013  0.00  0.00    +0.105 A 
ATOM     17  C   UNL     1       0.037  -2.084   1.188  0.00  0.00    +0.029 A 
ATOM     18  C   UNL     1       0.023  -0.702   1.195  0.00  0.00    +0.005 A 
ENDBRANCH   9  16
ENDBRANCH   7   9
ENDBRANCH   5   7
ENDBRANCH   1   5
BRANCH   3  19
ATOM     19  C   UNL     1       5.346  -6.860   2.510  0.00  0.00    +0.178 C 
BRANCH  19  20
ATOM     20  C   UNL     1       6.231  -6.551   3.690  0.00  0.00    +0.123 A 
ATOM     21  C   UNL     1       5.984  -6.897   4.970  0.00  0.00    +0.047 A 
ATOM     22  C   UNL     1       7.057  -6.417   5.742  0.00  0.00    +0.052 A 
ATOM     23  C   UNL     1       7.912  -5.796   4.882  0.00  0.00    +0.160 A 
ATOM     24  O   UNL     1       7.398  -5.891   3.639  0.00  0.00    -0.456 OA
BRANCH  23  25
ATOM     25  C   UNL     1       9.178  -5.141   5.245  0.00  0.00    +0.144 A 
ATOM     26  N   UNL     1       9.737  -5.024   6.432  0.00  0.00    -0.236 NA
ATOM     27  C   UNL     1      10.912  -4.391   6.618  0.00  0.00    +0.079 A 
ATOM     28  C   UNL     1      11.617  -4.195   7.830  0.00  0.00    +0.029 A 
ATOM     29  C   UNL     1      12.801  -3.527   7.848  0.00  0.00    +0.002 A 
ATOM     30  C   UNL     1      13.365  -3.014   6.688  0.00  0.00    +0.001 A 
ATOM     31  C   UNL     1      12.710  -3.184   5.483  0.00  0.00    +0.017 A 
ATOM     32  C   UNL     1      11.513  -3.856   5.454  0.00  0.00    +0.040 A 
ATOM     33  S   UNL     1      10.353  -4.308   4.186  0.00  0.00    -0.064 S 
ENDBRANCH  23  25
ENDBRANCH  19  20
ENDBRANCH   3  19
TORSDOF 7
