REMARK  Name = ZINC08629435
REMARK  8 active torsions:
REMARK  status: ('A' for Active; 'I' for Inactive)
REMARK    1  A    between atoms: C_4  and  C_7
REMARK    2  A    between atoms: C_10  and  N_13
REMARK    3  A    between atoms: C_14  and  C_16
REMARK    4  A    between atoms: C_16  and  O_17
REMARK    5  A    between atoms: O_17  and  C_18
REMARK    6  A    between atoms: C_18  and  C_20
REMARK    7  A    between atoms: C_20  and  N_21
REMARK    8  A    between atoms: C_22  and  C_24
REMARK                            x       y       z     vdW  Elec       q    Type
REMARK                         _______ _______ _______ _____ _____    ______ ____
ROOT
ATOM      1  O   UNL     1       2.377   1.031   0.347  0.00  0.00    -0.454 OA
ENDROOT
BRANCH   1   2
ATOM      2  C   UNL     1       3.616   1.547   0.359  0.00  0.00    +0.325 C 
ATOM      3  O   UNL     1       3.776   2.737   0.221  0.00  0.00    -0.249 OA
BRANCH   2   4
ATOM      4  C   UNL     1       4.807   0.643   0.545  0.00  0.00    +0.225 C 
BRANCH   4   5
ATOM      5  N   UNL     1       6.035   1.442   0.521  0.00  0.00    -0.300 N 
ATOM      6  C   UNL     1       7.232   0.842   0.670  0.00  0.00    +0.253 C 
ATOM      7  O   UNL     1       7.294  -0.363   0.824  0.00  0.00    -0.270 OA
ATOM      8  H   UNL     1       5.986   2.404   0.399  0.00  0.00    +0.150 HD
BRANCH   6   9
ATOM      9  C   UNL     1       8.463   1.643   0.646  0.00  0.00    +0.093 A 
ATOM     10  C   UNL     1       9.750   1.224   0.783  0.00  0.00    +0.068 A 
ATOM     11  C   UNL     1      10.802   2.158   0.726  0.00  0.00    +0.008 A 
ATOM     12  C   UNL     1      12.195   1.920   0.841  0.00  0.00    +0.010 A 
ATOM     13  C   UNL     1      13.084   2.944   0.769  0.00  0.00    +0.001 A 
ATOM     14  C   UNL     1      12.668   4.257   0.580  0.00  0.00    +0.001 A 
ATOM     15  C   UNL     1      11.322   4.533   0.463  0.00  0.00    +0.016 A 
ATOM     16  C   UNL     1      10.408   3.503   0.535  0.00  0.00    +0.021 A 
ATOM     17  S   UNL     1       8.638   3.407   0.438  0.00  0.00    -0.082 S 
ATOM     18 CL   UNL     1      10.095  -0.460   1.023  0.00  0.00    -0.082 Cl
ENDBRANCH   6   9
ENDBRANCH   4   5
ENDBRANCH   2   4
ENDBRANCH   1   2
BRANCH   1  19
ATOM     19  C   UNL     1       1.277   1.961   0.164  0.00  0.00    +0.328 C 
BRANCH  19  21
ATOM     20  N   UNL     1      -1.191   1.867   0.018  0.00  0.00    -0.283 N 
ATOM     21  C   UNL     1      -0.027   1.205   0.177  0.00  0.00    +0.255 C 
ATOM     22  O   UNL     1      -0.029   0.002   0.327  0.00  0.00    -0.272 OA
ATOM     23  H   UNL     1      -1.196   2.836  -0.025  0.00  0.00    +0.155 HD
BRANCH  20  27
ATOM     24  C   UNL     1      -4.767  -0.253  -0.292  0.00  0.00    -0.018 A 
ATOM     25  C   UNL     1      -4.748   0.998   0.323  0.00  0.00    +0.010 A 
ATOM     26  C   UNL     1      -3.564   1.697   0.425  0.00  0.00    +0.024 A 
ATOM     27  C   UNL     1      -2.390   1.156  -0.086  0.00  0.00    +0.034 A 
ATOM     28  C   UNL     1      -2.408  -0.089  -0.705  0.00  0.00    +0.024 A 
ATOM     29  C   UNL     1      -3.588  -0.794  -0.803  0.00  0.00    +0.010 A 
BRANCH  24  33
ATOM     30  C   UNL     1      -8.415  -2.413  -0.609  0.00  0.00    +0.000 A 
ATOM     31  C   UNL     1      -7.248  -2.954  -1.118  0.00  0.00    +0.001 A 
ATOM     32  C   UNL     1      -6.061  -2.257  -1.017  0.00  0.00    +0.008 A 
ATOM     33  C   UNL     1      -6.040  -1.006  -0.403  0.00  0.00    -0.018 A 
ATOM     34  C   UNL     1      -7.218  -0.469   0.112  0.00  0.00    +0.008 A 
ATOM     35  C   UNL     1      -8.400  -1.173   0.002  0.00  0.00    +0.001 A 
ENDBRANCH  24  33
ENDBRANCH  20  27
ENDBRANCH  19  21
ENDBRANCH   1  19
TORSDOF 8
