REMARK  Name = ZINC43726556
REMARK  13 active torsions:
REMARK  status: ('A' for Active; 'I' for Inactive)
REMARK    1  A    between atoms: C_1  and  C_2
REMARK    2  A    between atoms: C_2  and  O_3
REMARK    3  A    between atoms: O_3  and  C_4
REMARK    4  A    between atoms: C_4  and  C_6
REMARK    5  A    between atoms: C_6  and  C_7
REMARK    6  A    between atoms: C_6  and  C_8
REMARK    7  A    between atoms: C_6  and  C_9
REMARK    8  A    between atoms: C_9  and  O_41
REMARK    9  A    between atoms: C_12  and  C_40
REMARK   10  A    between atoms: C_24  and  C_39
REMARK   11  A    between atoms: C_29  and  O_31
REMARK   12  A    between atoms: O_31  and  C_32
REMARK   13  A    between atoms: C_32  and  C_33
REMARK                            x       y       z     vdW  Elec       q    Type
REMARK                         _______ _______ _______ _____ _____    ______ ____
ROOT
ATOM      1  C   UNL     1      -1.623  -3.795  -1.140  0.00  0.00    +0.082 C 
ATOM      2  C   UNL     1      -0.985  -4.162   0.199  0.00  0.00    +0.036 C 
ATOM      3  C   UNL     1      -1.070  -5.668   0.434  0.00  0.00    +0.010 C 
ATOM      4  C   UNL     1      -0.369  -6.424  -0.699  0.00  0.00    -0.026 C 
ATOM      5  C   UNL     1      -1.025  -6.061  -2.023  0.00  0.00    -0.002 C 
ATOM      6  C   UNL     1      -0.944  -4.558  -2.278  0.00  0.00    +0.040 C 
ATOM      7  C   UNL     1      -0.354  -6.827  -3.163  0.00  0.00    +0.004 C 
ATOM      8  C   UNL     1      -0.539  -8.322  -2.921  0.00  0.00    +0.004 C 
ATOM      9  C   UNL     1       0.104  -8.749  -1.590  0.00  0.00    -0.004 C 
ATOM     10  C   UNL     1      -0.458  -7.930  -0.438  0.00  0.00    -0.001 C 
ATOM     11  C   UNL     1      -1.864  -8.346  -0.047  0.00  0.00    +0.005 C 
ATOM     12  C   UNL     1      -1.984  -9.834   0.303  0.00  0.00    +0.010 C 
ATOM     13  C   UNL     1      -0.707 -10.572   0.001  0.00  0.00    -0.003 C 
ATOM     14  C   UNL     1      -0.206 -10.217  -1.410  0.00  0.00    +0.001 C 
ATOM     15  C   UNL     1       0.961 -11.199  -1.586  0.00  0.00    +0.007 C 
ATOM     16  C   UNL     1       0.411 -12.506  -0.947  0.00  0.00    +0.032 C 
ATOM     17  C   UNL     1      -0.860 -12.104  -0.155  0.00  0.00    +0.125 C 
ATOM     18  C   UNL     1       0.344 -10.362   1.090  0.00  0.00    +0.014 C 
ATOM     19  C   UNL     1       1.113  -6.034  -0.705  0.00  0.00    +0.012 C 
ENDROOT
BRANCH   1  20
ATOM     20  C   UNL     1      -1.462  -2.289  -1.379  0.00  0.00    +0.091 C 
ATOM     21  C   UNL     1      -2.138  -1.518  -0.244  0.00  0.00    +0.025 C 
ATOM     22  C   UNL     1      -2.113  -1.912  -2.711  0.00  0.00    +0.025 C 
BRANCH  20  23
ATOM     23  C   UNL     1       0.004  -1.941  -1.420  0.00  0.00    +0.316 C 
ATOM     24  O   UNL     1       0.835  -2.806  -1.273  0.00  0.00    -0.250 OA
BRANCH  23  25
ATOM     25  O   UNL     1       0.386  -0.670  -1.619  0.00  0.00    -0.464 OA
BRANCH  25  27
ATOM     26  C   UNL     1       2.031   1.081  -1.882  0.00  0.00    +0.048 C 
ATOM     27  C   UNL     1       1.791  -0.412  -1.646  0.00  0.00    +0.229 C 
ENDBRANCH  25  27
ENDBRANCH  23  25
ENDBRANCH  20  23
ENDBRANCH   1  20
BRANCH   1  28
ATOM     28  O   UNL     1      -3.015  -4.117  -1.112  0.00  0.00    -0.387 OA
ATOM     29  H   UNL     1      -3.199  -5.055  -0.964  0.00  0.00    +0.210 HD
ENDBRANCH   1  28
BRANCH  17  30
ATOM     30  O   UNL     1      -2.033 -12.405  -0.904  0.00  0.00    -0.371 OA
BRANCH  30  31
ATOM     31  C   UNL     1      -2.637 -13.654  -0.562  0.00  0.00    +0.195 C 
BRANCH  31  32
ATOM     32  C   UNL     1      -3.863 -13.868  -1.411  0.00  0.00    -0.022 A 
ATOM     33  C   UNL     1      -5.093 -13.411  -0.977  0.00  0.00    +0.006 A 
ATOM     34  C   UNL     1      -6.218 -13.608  -1.756  0.00  0.00    +0.000 A 
ATOM     35  C   UNL     1      -6.112 -14.261  -2.970  0.00  0.00    +0.000 A 
ATOM     36  C   UNL     1      -4.882 -14.717  -3.405  0.00  0.00    +0.000 A 
ATOM     37  C   UNL     1      -3.757 -14.517  -2.627  0.00  0.00    +0.006 A 
ENDBRANCH  31  32
ENDBRANCH  30  31
ENDBRANCH  17  30
TORSDOF 8
