REMARK  Name = ZINC09060020
REMARK  8 active torsions:
REMARK  status: ('A' for Active; 'I' for Inactive)
REMARK    1  A    between atoms: C_1  and  C_2
REMARK    2  A    between atoms: C_10  and  C_29
REMARK    3  A    between atoms: C_15  and  C_16
REMARK    4  A    between atoms: C_16  and  C_17
REMARK    5  A    between atoms: C_17  and  C_18
REMARK    6  A    between atoms: N_20  and  C_21
REMARK    7  A    between atoms: C_21  and  C_22
REMARK    8  A    between atoms: C_22  and  C_23
REMARK                            x       y       z     vdW  Elec       q    Type
REMARK                         _______ _______ _______ _____ _____    ______ ____
ROOT
ATOM      1  C   UNL     1       0.011   1.492   0.248  0.00  0.00    +0.045 C 
ATOM      2  C   UNL     1       0.016  -0.009   0.114  0.00  0.00    -0.030 A 
ATOM      3  C   UNL     1      -1.226  -0.783   0.219  0.00  0.00    +0.022 A 
ATOM      4  C   UNL     1      -2.445  -0.143   0.445  0.00  0.00    +0.023 A 
ATOM      5  C   UNL     1      -3.605  -0.900   0.540  0.00  0.00    +0.025 A 
ATOM      6  C   UNL     1      -5.017  -0.589   0.760  0.00  0.00    +0.001 A 
ATOM      7  C   UNL     1      -5.676  -1.759   0.752  0.00  0.00    +0.109 A 
ATOM      8  O   UNL     1      -4.811  -2.767   0.548  0.00  0.00    -0.459 OA
ATOM      9  C   UNL     1      -3.550  -2.305   0.412  0.00  0.00    +0.142 A 
ATOM     10  C   UNL     1      -2.335  -2.932   0.188  0.00  0.00    +0.035 A 
ATOM     11  C   UNL     1      -1.172  -2.185   0.089  0.00  0.00    +0.146 A 
ATOM     12  O   UNL     1       0.010  -2.801  -0.131  0.00  0.00    -0.422 OA
ATOM     13  C   UNL     1       1.141  -2.093  -0.230  0.00  0.00    +0.341 A 
ATOM     14  O   UNL     1       2.187  -2.685  -0.431  0.00  0.00    -0.245 OA
ATOM     15  C   UNL     1       1.169  -0.688  -0.114  0.00  0.00    +0.041 A 
ATOM     16  C   UNL     1      -2.278  -4.431   0.050  0.00  0.00    +0.051 C 
ATOM     17  C   UNL     1      -7.171  -1.876   0.948  0.00  0.00    +0.075 C 
ATOM     18  C   UNL     1      -7.687  -0.568   1.558  0.00  0.00    +0.008 C 
ATOM     19  C   UNL     1      -7.167   0.618   0.741  0.00  0.00    +0.005 C 
ATOM     20  C   UNL     1      -5.656   0.760   0.959  0.00  0.00    +0.039 C 
ENDROOT
BRANCH  15  21
ATOM     21  C   UNL     1       2.474   0.056  -0.238  0.00  0.00    +0.052 C 
BRANCH  21  22
ATOM     22  C   UNL     1       3.176   0.085   1.121  0.00  0.00    +0.100 C 
BRANCH  22  23
ATOM     23  C   UNL     1       4.480   0.829   0.996  0.00  0.00    +0.213 C 
ATOM     24  O   UNL     1       4.815   1.291  -0.074  0.00  0.00    -0.276 OA
ATOM     25  N   UNL     1       5.275   0.981   2.074  0.00  0.00    -0.315 N 
ATOM     26  H   UNL     1       5.007   0.612   2.930  0.00  0.00    +0.149 HD
BRANCH  25  27
ATOM     27  C   UNL     1       6.543   1.705   1.953  0.00  0.00    +0.110 C 
BRANCH  27  28
ATOM     28  C   UNL     1       7.245   1.734   3.312  0.00  0.00    +0.073 C 
BRANCH  28  29
ATOM     29  C   UNL     1       8.550   2.478   3.188  0.00  0.00    +0.035 A 
ATOM     30  C   UNL     1       9.729   1.968   2.784  0.00  0.00    +0.105 A 
ATOM     31  N   UNL     1      10.638   2.954   2.813  0.00  0.00    -0.352 N 
ATOM     32  C   UNL     1      10.067   4.055   3.219  0.00  0.00    +0.171 A 
ATOM     33  N   UNL     1       8.762   3.803   3.458  0.00  0.00    -0.350 N 
ATOM     34  H   UNL     1       8.100   4.441   3.766  0.00  0.00    +0.166 HD
ATOM     35  H   UNL     1      11.573   2.863   2.570  0.00  0.00    +0.166 HD
ENDBRANCH  28  29
ENDBRANCH  27  28
ENDBRANCH  25  27
ENDBRANCH  22  23
ENDBRANCH  21  22
ENDBRANCH  15  21
TORSDOF 6
