REMARK  Name = ZINC39357168
REMARK  7 active torsions:
REMARK  status: ('A' for Active; 'I' for Inactive)
REMARK    1  A    between atoms: C_1  and  O_2
REMARK    2  A    between atoms: O_2  and  C_3
REMARK    3  A    between atoms: C_5  and  C_18
REMARK    4  A    between atoms: C_8  and  O_9
REMARK    5  A    between atoms: O_9  and  C_10
REMARK    6  A    between atoms: C_19  and  C_20
REMARK    7  A    between atoms: C_19  and  C_22
REMARK                            x       y       z     vdW  Elec       q    Type
REMARK                         _______ _______ _______ _____ _____    ______ ____
ROOT
ATOM      1  C   UNL     1       0.532  -0.850  -1.176  0.00  0.00    +0.163 A 
ATOM      2  C   UNL     1       1.085  -0.018  -2.131  0.00  0.00    +0.057 A 
ATOM      3  C   UNL     1       1.852  -0.561  -3.167  0.00  0.00    -0.020 A 
ATOM      4  C   UNL     1       2.055  -1.944  -3.231  0.00  0.00    +0.012 A 
ATOM      5  C   UNL     1       1.501  -2.767  -2.275  0.00  0.00    +0.051 A 
ATOM      6  C   UNL     1       0.744  -2.226  -1.244  0.00  0.00    +0.172 A 
ENDROOT
BRANCH   1   8
ATOM      7  C   UNL     1      -0.390   1.093  -0.160  0.00  0.00    +0.277 C 
ATOM      8  O   UNL     1      -0.214  -0.325  -0.167  0.00  0.00    -0.491 OA
ENDBRANCH   1   8
BRANCH   3   9
ATOM      9  C   UNL     1       2.442   0.319  -4.186  0.00  0.00    +0.026 C 
ATOM     10  C   UNL     1       3.616  -0.012  -4.765  0.00  0.00    +0.072 C 
BRANCH  10  11
ATOM     11  C   UNL     1       4.144   0.804  -5.917  0.00  0.00    +0.216 C 
ATOM     12  N   UNL     1       5.483   1.316  -5.600  0.00  0.00    -0.359 N 
ATOM     13  C   UNL     1       6.306   0.833  -6.485  0.00  0.00    +0.060 A 
ATOM     14  C   UNL     1       7.753   0.982  -6.690  0.00  0.00    +0.027 A 
ATOM     15  C   UNL     1       8.348   0.345  -7.719  0.00  0.00    +0.002 A 
ATOM     16  C   UNL     1       7.638  -0.468  -8.620  0.00  0.00    +0.002 A 
ATOM     17  C   UNL     1       6.309  -0.672  -8.523  0.00  0.00    +0.027 A 
ATOM     18  C   UNL     1       5.554  -0.028  -7.439  0.00  0.00    +0.060 A 
ATOM     19  N   UNL     1       4.296  -0.043  -7.106  0.00  0.00    -0.359 N 
ATOM     20  H   UNL     1       5.713   1.907  -4.865  0.00  0.00    +0.162 HD
ATOM     21  H   UNL     1       3.588  -0.526  -7.561  0.00  0.00    +0.162 HD
ENDBRANCH  10  11
BRANCH  10  22
ATOM     22  C   UNL     1       4.360  -1.137  -4.284  0.00  0.00    +0.099 C 
ATOM     23  N   UNL     1       4.950  -2.030  -3.902  0.00  0.00    -0.191 NA
ENDBRANCH  10  22
ENDBRANCH   3   9
BRANCH   6  24
ATOM     24  O   UNL     1       0.204  -3.042  -0.300  0.00  0.00    -0.432 OA
BRANCH  24  25
ATOM     25  C   UNL     1      -1.071  -3.466  -0.480  0.00  0.00    +0.261 A 
ATOM     26  C   UNL     1      -1.714  -4.218   0.505  0.00  0.00    +0.203 A 
ATOM     27  C   UNL     1      -3.015  -4.628   0.275  0.00  0.00    +0.157 A 
ATOM     28  N   UNL     1      -3.604  -4.295  -0.865  0.00  0.00    -0.223 NA
ATOM     29  C   UNL     1      -2.969  -3.584  -1.775  0.00  0.00    +0.226 A 
ATOM     30  N   UNL     1      -1.730  -3.168  -1.594  0.00  0.00    -0.180 NA
ATOM     31 CL   UNL     1      -3.788  -3.176  -3.251  0.00  0.00    -0.041 Cl
ATOM     32  F   UNL     1      -1.080  -4.538   1.655  0.00  0.00    -0.198 F 
ENDBRANCH  24  25
ENDBRANCH   6  24
TORSDOF 6
