REMARK  Name = ZINC16729900
REMARK  17 active torsions:
REMARK  status: ('A' for Active; 'I' for Inactive)
REMARK    1  A    between atoms: C_1  and  C_2
REMARK    2  A    between atoms: C_2  and  C_3
REMARK    3  A    between atoms: C_3  and  O_4
REMARK    4  A    between atoms: O_4  and  C_5
REMARK    5  A    between atoms: C_8  and  C_11
REMARK    6  A    between atoms: C_11  and  C_12
REMARK    7  A    between atoms: C_13  and  C_27
REMARK    8  A    between atoms: N_15  and  C_20
REMARK    9  A    between atoms: C_20  and  C_21
REMARK   10  A    between atoms: C_30  and  O_35
REMARK   11  A    between atoms: C_31  and  O_33
REMARK   12  A    between atoms: O_33  and  C_34
REMARK   13  A    between atoms: O_35  and  C_36
REMARK   14  A    between atoms: C_36  and  C_37
REMARK   15  A    between atoms: C_37  and  C_38
REMARK   16  A    between atoms: C_38  and  C_39
REMARK   17  A    between atoms: C_38  and  C_40
REMARK                            x       y       z     vdW  Elec       q    Type
REMARK                         _______ _______ _______ _____ _____    ______ ____
ROOT
ATOM      1  C   UNL     1       3.318  -5.978   5.475  0.00  0.00    +0.076 C 
ATOM      2  C   UNL     1       2.712  -6.875   4.422  0.00  0.00    +0.145 C 
ATOM      3  N   UNL     1       2.903  -8.251   4.896  0.00  0.00    -0.281 N 
ATOM      4  C   UNL     1       3.541  -8.194   6.080  0.00  0.00    +0.288 C 
ATOM      5  O   UNL     1       3.855  -9.159   6.749  0.00  0.00    -0.266 OA
ATOM      6  C   UNL     1       3.806  -6.787   6.444  0.00  0.00    +0.249 C 
ATOM      7  O   UNL     1       4.435  -6.373   7.568  0.00  0.00    -0.282 OA
ENDROOT
BRANCH   2   8
ATOM      8  C   UNL     1       1.242  -6.578   4.271  0.00  0.00    -0.019 A 
ATOM      9  C   UNL     1       0.350  -6.996   5.241  0.00  0.00    +0.009 A 
ATOM     10  C   UNL     1      -0.999  -6.726   5.107  0.00  0.00    +0.050 A 
ATOM     11  C   UNL     1      -1.460  -6.034   3.999  0.00  0.00    +0.162 A 
ATOM     12  C   UNL     1      -0.562  -5.612   3.023  0.00  0.00    +0.162 A 
ATOM     13  C   UNL     1       0.789  -5.882   3.165  0.00  0.00    +0.055 A 
BRANCH  12  14
ATOM     14  O   UNL     1      -1.010  -4.932   1.933  0.00  0.00    -0.491 OA
ATOM     15  C   UNL     1      -0.022  -4.422   1.035  0.00  0.00    +0.277 C 
ENDBRANCH  12  14
BRANCH  11  16
ATOM     16  O   UNL     1      -2.787  -5.767   3.866  0.00  0.00    -0.488 OA
BRANCH  16  17
ATOM     17  C   UNL     1      -3.650  -6.231   4.906  0.00  0.00    +0.229 C 
BRANCH  17  18
ATOM     18  C   UNL     1      -5.093  -5.841   4.584  0.00  0.00    +0.044 C 
BRANCH  18  19
ATOM     19  C   UNL     1      -6.017  -6.337   5.698  0.00  0.00    -0.014 C 
ATOM     20  C   UNL     1      -5.682  -5.608   7.001  0.00  0.00    +0.007 C 
ATOM     21  C   UNL     1      -7.472  -6.058   5.317  0.00  0.00    +0.007 C 
ENDBRANCH  18  19
ENDBRANCH  17  18
ENDBRANCH  16  17
ENDBRANCH  11  16
ENDBRANCH   2   8
BRANCH   1  22
ATOM     22  C   UNL     1       3.372  -4.513   5.450  0.00  0.00    +0.195 C 
ATOM     23  O   UNL     1       2.752  -3.866   6.274  0.00  0.00    -0.287 OA
BRANCH  22  27
ATOM     24  C   UNL     1       5.695  -2.524   2.503  0.00  0.00    +0.121 A 
ATOM     25  C   UNL     1       4.928  -1.784   3.396  0.00  0.00    +0.046 A 
ATOM     26  C   UNL     1       4.174  -2.425   4.353  0.00  0.00    +0.015 A 
ATOM     27  C   UNL     1       4.179  -3.821   4.425  0.00  0.00    +0.022 A 
ATOM     28  C   UNL     1       4.952  -4.561   3.525  0.00  0.00    +0.015 A 
ATOM     29  C   UNL     1       5.699  -3.913   2.568  0.00  0.00    +0.046 A 
BRANCH  24  30
ATOM     30  O   UNL     1       6.437  -1.889   1.561  0.00  0.00    -0.492 OA
BRANCH  30  31
ATOM     31  C   UNL     1       6.387  -0.461   1.550  0.00  0.00    +0.229 C 
BRANCH  31  33
ATOM     32  C   UNL     1       7.227   1.601   0.416  0.00  0.00    +0.007 C 
ATOM     33  C   UNL     1       7.280   0.072   0.428  0.00  0.00    +0.038 C 
ENDBRANCH  31  33
ENDBRANCH  30  31
ENDBRANCH  24  30
ENDBRANCH  22  27
ENDBRANCH   1  22
BRANCH   3  34
ATOM     34  C   UNL     1       2.476  -9.469   4.204  0.00  0.00    +0.140 C 
BRANCH  34  35
ATOM     35  C   UNL     1       3.597  -9.951   3.282  0.00  0.00    +0.136 C 
ATOM     36  C   UNL     1       3.112 -11.164   2.459  0.00  0.00    +0.035 C 
ATOM     37  C   UNL     1       4.370 -12.075   2.441  0.00  0.00    +0.031 C 
ATOM     38  C   UNL     1       4.969 -11.776   3.839  0.00  0.00    +0.160 C 
ATOM     39  O   UNL     1       4.720 -10.377   4.063  0.00  0.00    -0.375 OA
ENDBRANCH  34  35
ENDBRANCH   3  34
TORSDOF 13
