REMARK  Name = ZINC48882358
REMARK  8 active torsions:
REMARK  status: ('A' for Active; 'I' for Inactive)
REMARK    1  A    between atoms: C_1  and  N_2
REMARK    2  A    between atoms: N_2  and  C_3
REMARK    3  A    between atoms: N_2  and  C_13
REMARK    4  A    between atoms: C_3  and  C_4
REMARK    5  A    between atoms: C_4  and  C_5
REMARK    6  A    between atoms: C_5  and  C_6
REMARK    7  A    between atoms: C_8  and  C_11
REMARK    8  A    between atoms: C_13  and  C_14
REMARK                            x       y       z     vdW  Elec       q    Type
REMARK                         _______ _______ _______ _____ _____    ______ ____
ROOT
ATOM      1  C   UNL     1      -0.018   1.465   0.010  0.00  0.00    -0.096 C 
ATOM      2  N   UNL     1       0.002  -0.004   0.002  0.00  0.00    +0.381 N 
ATOM      3  H   UNL     1      -0.945  -0.353   0.009  0.00  0.00    -0.082 HD
ENDROOT
BRANCH   2   4
ATOM      4  C   UNL     1       0.690  -0.478  -1.207  0.00  0.00    -0.078 C 
BRANCH   4   5
ATOM      5  C   UNL     1      -0.118  -0.077  -2.443  0.00  0.00    -0.012 C 
BRANCH   5   6
ATOM      6  C   UNL     1       0.598  -0.571  -3.702  0.00  0.00    +0.061 C 
BRANCH   6   7
ATOM      7  C   UNL     1      -0.197  -0.176  -4.919  0.00  0.00    +0.079 A 
ATOM      8  N   UNL     1      -0.105   0.919  -5.632  0.00  0.00    -0.248 NA
ATOM      9  C   UNL     1      -0.877   1.123  -6.680  0.00  0.00    +0.063 A 
ATOM     10  C   UNL     1      -1.770   0.146  -6.985  0.00  0.00    +0.071 A 
ATOM     11  S   UNL     1      -1.414  -1.039  -5.698  0.00  0.00    -0.080 S 
BRANCH   9  12
ATOM     12  C   UNL     1      -0.774   2.381  -7.502  0.00  0.00    +0.164 C 
ATOM     13 CL   UNL     1       0.423   2.138  -8.828  0.00  0.00    -0.119 Cl
ENDBRANCH   9  12
ENDBRANCH   6   7
ENDBRANCH   5   6
ENDBRANCH   4   5
ENDBRANCH   2   4
BRANCH   2  14
ATOM     14  C   UNL     1       0.713  -0.491   1.192  0.00  0.00    -0.043 C 
BRANCH  14  15
ATOM     15  C   UNL     1      -0.059  -0.109   2.429  0.00  0.00    -0.064 A 
ATOM     16  C   UNL     1       0.188   1.099   3.053  0.00  0.00    +0.003 A 
ATOM     17  C   UNL     1      -0.520   1.450   4.187  0.00  0.00    +0.015 A 
ATOM     18  C   UNL     1      -1.476   0.591   4.698  0.00  0.00    +0.018 A 
ATOM     19  C   UNL     1      -1.724  -0.618   4.073  0.00  0.00    +0.015 A 
ATOM     20  C   UNL     1      -1.019  -0.965   2.936  0.00  0.00    +0.003 A 
ATOM     21 BR   UNL     1      -2.445   1.070   6.250  0.00  0.00    -0.050 Br
ENDBRANCH  14  15
ENDBRANCH   2  14
TORSDOF 7
