REMARK  Name = ZINC02927255
REMARK  12 active torsions:
REMARK  status: ('A' for Active; 'I' for Inactive)
REMARK    1  A    between atoms: C_1  and  C_2
REMARK    2  A    between atoms: C_2  and  S_3
REMARK    3  A    between atoms: S_3  and  C_4
REMARK    4  A    between atoms: C_4  and  C_5
REMARK    5  A    between atoms: C_5  and  O_6
REMARK    6  A    between atoms: O_6  and  C_7
REMARK    7  A    between atoms: C_7  and  C_9
REMARK    8  A    between atoms: C_10  and  C_31
REMARK    9  A    between atoms: C_14  and  C_16
REMARK   10  A    between atoms: C_18  and  O_24
REMARK   11  A    between atoms: C_19  and  O_23
REMARK   12  A    between atoms: O_24  and  C_25
REMARK                            x       y       z     vdW  Elec       q    Type
REMARK                         _______ _______ _______ _____ _____    ______ ____
ROOT
ATOM      1  C   UNL     1       1.440  -0.499  -0.465  0.00  0.00    +0.065 C 
ATOM      2  C   UNL     1       2.475   0.356  -0.390  0.00  0.00    +0.016 C 
ATOM      3  N   UNL     1       2.285   1.636   0.050  0.00  0.00    -0.321 N 
ATOM      4  C   UNL     1       1.036   2.199   0.039  0.00  0.00    +0.015 C 
ATOM      5  C   UNL     1      -0.065   1.420  -0.014  0.00  0.00    +0.024 C 
ATOM      6  C   UNL     1       0.056  -0.083  -0.063  0.00  0.00    +0.092 C 
ATOM      7  C   UNL     1      -1.353   1.984  -0.019  0.00  0.00    +0.162 C 
ATOM      8  O   UNL     1      -2.323   1.255  -0.078  0.00  0.00    -0.292 OA
ATOM      9  C   UNL     1      -1.551   3.474   0.042  0.00  0.00    +0.080 C 
ATOM     10  C   UNL     1      -0.372   4.100   0.794  0.00  0.00    +0.014 C 
ATOM     11  C   UNL     1       0.924   3.702   0.084  0.00  0.00    +0.051 C 
ATOM     12  C   UNL     1       3.854  -0.100  -0.793  0.00  0.00    +0.061 C 
ATOM     13  H   UNL     1       3.139   2.224   0.417  0.00  0.00    +0.152 HD
ENDROOT
BRANCH   6  14
ATOM     14  C   UNL     1      -0.255  -0.649   1.298  0.00  0.00    -0.030 A 
ATOM     15  C   UNL     1      -1.306  -1.534   1.454  0.00  0.00    +0.054 A 
ATOM     16  C   UNL     1      -1.593  -2.055   2.705  0.00  0.00    +0.163 A 
ATOM     17  C   UNL     1      -0.821  -1.687   3.803  0.00  0.00    +0.173 A 
ATOM     18  C   UNL     1       0.232  -0.800   3.640  0.00  0.00    +0.063 A 
ATOM     19  C   UNL     1       0.516  -0.287   2.388  0.00  0.00    +0.023 A 
ATOM     20 BR   UNL     1       1.284  -0.297   5.129  0.00  0.00    -0.046 Br
BRANCH  17  21
ATOM     21  O   UNL     1      -1.099  -2.196   5.034  0.00  0.00    -0.503 OA
ATOM     22  H   UNL     1      -0.488  -1.904   5.901  0.00  0.00    +0.292 HD
ENDBRANCH  17  21
BRANCH  16  23
ATOM     23  O   UNL     1      -2.627  -2.925   2.860  0.00  0.00    -0.491 OA
ATOM     24  C   UNL     1      -3.376  -3.257   1.690  0.00  0.00    +0.277 C 
ENDBRANCH  16  23
ENDBRANCH   6  14
BRANCH   1  25
ATOM     25  C   UNL     1       1.661  -1.816  -0.931  0.00  0.00    +0.338 C 
ATOM     26  O   UNL     1       2.755  -2.135  -1.358  0.00  0.00    -0.245 OA
BRANCH  25  27
ATOM     27  O   UNL     1       0.658  -2.719  -0.902  0.00  0.00    -0.460 OA
BRANCH  27  28
ATOM     28  C   UNL     1       0.951  -4.030  -1.389  0.00  0.00    +0.243 C 
BRANCH  28  29
ATOM     29  C   UNL     1      -0.298  -4.907  -1.278  0.00  0.00    +0.110 C 
BRANCH  29  30
ATOM     30  S   UNL     1       0.075  -6.571  -1.895  0.00  0.00    -0.158 S 
BRANCH  30  32
ATOM     31  C   UNL     1      -1.312  -8.911  -2.187  0.00  0.00    +0.015 C 
ATOM     32  C   UNL     1      -1.487  -7.472  -1.697  0.00  0.00    +0.066 C 
ENDBRANCH  30  32
ENDBRANCH  29  30
ENDBRANCH  28  29
ENDBRANCH  27  28
ENDBRANCH  25  27
ENDBRANCH   1  25
TORSDOF 9
