REMARK  Name = ZINC09410780
REMARK  6 active torsions:
REMARK  status: ('A' for Active; 'I' for Inactive)
REMARK    1  A    between atoms: C_1  and  C_2
REMARK    2  A    between atoms: C_6  and  C_10
REMARK    3  A    between atoms: C_7  and  O_8
REMARK    4  A    between atoms: O_8  and  C_9
REMARK    5  A    between atoms: N_12  and  C_13
REMARK    6  A    between atoms: C_14  and  C_22
REMARK                            x       y       z     vdW  Elec       q    Type
REMARK                         _______ _______ _______ _____ _____    ______ ____
ROOT
ATOM      1  C   UNL     1      -0.014   1.212   0.009  0.00  0.00    +0.252 C 
ATOM      2  O   UNL     1       0.002  -0.004   0.002  0.00  0.00    -0.270 OA
ATOM      3  N   UNL     1       1.143   1.901   0.001  0.00  0.00    -0.275 N 
ATOM      4  H   UNL     1       1.130   2.871   0.007  0.00  0.00    +0.156 HD
ENDROOT
BRANCH   3   5
ATOM      5  C   UNL     1       2.353   1.225  -0.014  0.00  0.00    +0.085 A 
ATOM      6  C   UNL     1       3.636   1.753  -0.029  0.00  0.00    +0.068 A 
ATOM      7  C   UNL     1       4.747   0.817  -0.039  0.00  0.00    -0.023 A 
ATOM      8  C   UNL     1       4.400  -0.488  -0.044  0.00  0.00    -0.004 A 
ATOM      9  S   UNL     1       2.629  -0.485  -0.026  0.00  0.00    -0.077 S 
ATOM     10  C   UNL     1       5.322  -1.668  -0.060  0.00  0.00    +0.043 C 
ATOM     11  C   UNL     1       6.725  -1.181  -0.450  0.00  0.00    +0.005 C 
ATOM     12  C   UNL     1       7.069   0.052   0.391  0.00  0.00    +0.005 C 
ATOM     13  C   UNL     1       6.211   1.239  -0.051  0.00  0.00    +0.037 C 
BRANCH   6  14
ATOM     14  C   UNL     1       3.862   3.202  -0.031  0.00  0.00    +0.244 C 
ATOM     15  O   UNL     1       3.969   3.802   1.023  0.00  0.00    -0.270 OA
ATOM     16  N   UNL     1       3.952   3.868  -1.199  0.00  0.00    -0.325 N 
ATOM     17  H   UNL     1       3.866   3.390  -2.038  0.00  0.00    +0.145 HD
ATOM     18  H   UNL     1       4.101   4.827  -1.200  0.00  0.00    +0.145 HD
ENDBRANCH   6  14
ENDBRANCH   3   5
BRANCH   1  24
ATOM     19  C   UNL     1      -5.013   1.143   0.032  0.00  0.00    +0.047 C 
ATOM     20  C   UNL     1      -3.713   1.905   0.030  0.00  0.00    -0.007 A 
ATOM     21  C   UNL     1      -3.723   3.286   0.037  0.00  0.00    +0.022 A 
ATOM     22  C   UNL     1      -2.532   3.995   0.036  0.00  0.00    +0.019 A 
ATOM     23  C   UNL     1      -1.325   3.329   0.026  0.00  0.00    +0.032 A 
ATOM     24  C   UNL     1      -1.302   1.932   0.019  0.00  0.00    +0.080 A 
ATOM     25  C   UNL     1      -2.508   1.218   0.015  0.00  0.00    +0.135 A 
ATOM     26 BR   UNL     1      -2.563   5.886   0.046  0.00  0.00    -0.050 Br
BRANCH  25  27
ATOM     27  O   UNL     1      -2.498  -0.138   0.001  0.00  0.00    -0.494 OA
ATOM     28  C   UNL     1      -2.489  -0.800   1.268  0.00  0.00    +0.277 C 
ENDBRANCH  25  27
ENDBRANCH   1  24
TORSDOF 4
