REMARK  Name = ZINC59170753
REMARK  3 active torsions:
REMARK  status: ('A' for Active; 'I' for Inactive)
REMARK    1  A    between atoms: C_4  and  N_7
REMARK    2  A    between atoms: C_9  and  C_20
REMARK    3  A    between atoms: C_20  and  N_22
REMARK                            x       y       z     vdW  Elec       q    Type
REMARK                         _______ _______ _______ _____ _____    ______ ____
ROOT
ATOM      1  N   UNL     1       3.928  -0.357   0.149  0.00  0.00    -0.325 N 
ATOM      2  C   UNL     1       3.935  -1.478   0.838  0.00  0.00    +0.209 A 
ATOM      3  C   UNL     1       5.033  -2.455   0.691  0.00  0.00    +0.064 A 
ATOM      4  C   UNL     1       5.295  -3.279   1.777  0.00  0.00    +0.027 A 
ATOM      5  C   UNL     1       4.462  -3.107   2.969  0.00  0.00    +0.020 A 
ATOM      6  C   UNL     1       4.822  -3.698   4.186  0.00  0.00    +0.027 A 
ATOM      7  C   UNL     1       4.023  -3.517   5.294  0.00  0.00    +0.020 A 
ATOM      8  C   UNL     1       2.866  -2.754   5.208  0.00  0.00    +0.034 A 
ATOM      9  C   UNL     1       2.498  -2.166   4.015  0.00  0.00    +0.062 A 
ATOM     10  C   UNL     1       3.287  -2.336   2.886  0.00  0.00    +0.151 A 
ATOM     11  O   UNL     1       2.936  -1.769   1.710  0.00  0.00    -0.438 OA
ATOM     12 BR   UNL     1       0.919  -1.130   3.918  0.00  0.00    -0.046 Br
ATOM     13 BR   UNL     1       4.504  -4.314   6.940  0.00  0.00    -0.050 Br
ATOM     14  H   UNL     1       4.695  -0.117  -0.395  0.00  0.00    +0.169 HD
ENDROOT
BRANCH   1  18
ATOM     15  C   UNL     1       0.635   2.143   0.297  0.00  0.00    +0.000 A 
ATOM     16  C   UNL     1       1.909   2.675   0.403  0.00  0.00    +0.002 A 
ATOM     17  C   UNL     1       3.011   1.847   0.355  0.00  0.00    +0.026 A 
ATOM     18  C   UNL     1       2.840   0.469   0.198  0.00  0.00    +0.042 A 
ATOM     19  C   UNL     1       1.551  -0.060   0.092  0.00  0.00    +0.026 A 
ATOM     20  C   UNL     1       0.458   0.780   0.142  0.00  0.00    +0.002 A 
ENDBRANCH   1  18
BRANCH   3  21
ATOM     21  C   UNL     1       5.814  -2.551  -0.552  0.00  0.00    +0.082 C 
ATOM     22  S   UNL     1       5.362  -1.627  -1.921  0.00  0.00    -0.035 S 
BRANCH  21  23
ATOM     23  N   UNL     1       6.885  -3.366  -0.613  0.00  0.00    -0.352 N 
ATOM     24  H   UNL     1       7.141  -3.889   0.162  0.00  0.00    +0.143 HD
ATOM     25  H   UNL     1       7.400  -3.429  -1.433  0.00  0.00    +0.143 HD
ENDBRANCH  21  23
ENDBRANCH   3  21
TORSDOF 3
