REMARK  Name = ZINC55808651
REMARK  6 active torsions:
REMARK  status: ('A' for Active; 'I' for Inactive)
REMARK    1  A    between atoms: C_1  and  C_2
REMARK    2  A    between atoms: C_5  and  C_8
REMARK    3  A    between atoms: N_12  and  C_20
REMARK    4  A    between atoms: C_14  and  C_15
REMARK    5  A    between atoms: C_14  and  C_17
REMARK    6  A    between atoms: C_25  and  C_26
REMARK                            x       y       z     vdW  Elec       q    Type
REMARK                         _______ _______ _______ _____ _____    ______ ____
ROOT
ATOM      1  C   UNL     1       0.060  -4.244  -0.021  0.00  0.00    +0.028 C 
ATOM      2  C   UNL     1       0.178  -4.927   1.145  0.00  0.00    +0.079 A 
ATOM      3  C   UNL     1       0.193  -4.420   2.532  0.00  0.00    +0.271 A 
ATOM      4  O   UNL     1       0.092  -3.232   2.776  0.00  0.00    -0.266 OA
ATOM      5  N   UNL     1       0.322  -5.315   3.496  0.00  0.00    -0.267 N 
ATOM      6  C   UNL     1       0.435  -6.653   3.201  0.00  0.00    +0.116 A 
ATOM      7  C   UNL     1       0.576  -7.727   4.082  0.00  0.00    +0.159 C 
ATOM      8  S   UNL     1       0.348  -6.685   1.418  0.00  0.00    -0.064 S 
ENDROOT
BRANCH   1  13
ATOM      9  C   UNL     1       0.273   1.500  -0.021  0.00  0.00    +0.044 C 
ATOM     10  C   UNL     1       0.218  -0.006  -0.022  0.00  0.00    -0.050 A 
ATOM     11  C   UNL     1       1.054  -0.726   0.814  0.00  0.00    +0.004 A 
ATOM     12  C   UNL     1       1.009  -2.104   0.821  0.00  0.00    +0.008 A 
ATOM     13  C   UNL     1       0.115  -2.775  -0.021  0.00  0.00    -0.024 A 
ATOM     14  C   UNL     1      -0.727  -2.040  -0.863  0.00  0.00    +0.008 A 
ATOM     15  C   UNL     1      -0.673  -0.662  -0.854  0.00  0.00    +0.004 A 
ENDBRANCH   1  13
BRANCH   5  16
ATOM     16  C   UNL     1       0.344  -4.898   4.828  0.00  0.00    +0.068 A 
ATOM     17  C   UNL     1      -0.838  -4.807   5.549  0.00  0.00    +0.027 A 
ATOM     18  C   UNL     1      -0.815  -4.394   6.867  0.00  0.00    +0.002 A 
ATOM     19  C   UNL     1       0.385  -4.066   7.477  0.00  0.00    +0.001 A 
ATOM     20  C   UNL     1       1.569  -4.150   6.776  0.00  0.00    +0.021 A 
ATOM     21  C   UNL     1       1.561  -4.573   5.444  0.00  0.00    +0.076 A 
BRANCH  21  22
ATOM     22  C   UNL     1       2.788  -4.668   4.712  0.00  0.00    +0.101 C 
ATOM     23  N   UNL     1       3.761  -4.744   4.131  0.00  0.00    -0.191 NA
ENDBRANCH  21  22
ENDBRANCH   5  16
BRANCH   7  24
ATOM     24  C   UNL     1       0.678  -9.062   3.574  0.00  0.00    +0.113 C 
ATOM     25  N   UNL     1       0.760 -10.120   3.171  0.00  0.00    -0.190 NA
ENDBRANCH   7  24
BRANCH   7  26
ATOM     26  C   UNL     1       0.618  -7.493   5.494  0.00  0.00    +0.113 C 
ATOM     27  N   UNL     1       0.651  -7.308   6.615  0.00  0.00    -0.190 NA
ENDBRANCH   7  26
TORSDOF 5
