REMARK  Name = ZINC21256164
REMARK  11 active torsions:
REMARK  status: ('A' for Active; 'I' for Inactive)
REMARK    1  A    between atoms: C_1  and  C_2
REMARK    2  A    between atoms: C_2  and  O_3
REMARK    3  A    between atoms: O_3  and  C_4
REMARK    4  A    between atoms: C_7  and  C_12
REMARK    5  A    between atoms: C_9  and  O_10
REMARK    6  A    between atoms: O_10  and  C_11
REMARK    7  A    between atoms: C_17  and  C_27
REMARK    8  A    between atoms: C_30  and  O_35
REMARK    9  A    between atoms: C_32  and  O_33
REMARK   10  A    between atoms: O_33  and  C_34
REMARK   11  A    between atoms: O_35  and  C_36
REMARK                            x       y       z     vdW  Elec       q    Type
REMARK                         _______ _______ _______ _____ _____    ______ ____
ROOT
ATOM      1  C   UNL     1      -2.474   0.919  -0.160  0.00  0.00    +0.032 C 
ATOM      2  C   UNL     1      -2.606  -0.002  -1.371  0.00  0.00    +0.059 C 
ATOM      3  C   UNL     1      -3.913  -0.773  -1.295  0.00  0.00    +0.017 C 
ATOM      4  C   UNL     1      -4.426  -1.127  -0.105  0.00  0.00    +0.037 C 
ATOM      5  C   UNL     1      -5.698  -1.911   0.115  0.00  0.00    +0.139 C 
ATOM      6  N   UNL     1      -6.521  -2.061  -1.067  0.00  0.00    -0.331 N 
ATOM      7  C   UNL     1      -6.070  -2.780  -2.172  0.00  0.00    +0.049 A 
ATOM      8  C   UNL     1      -6.651  -3.983  -2.538  0.00  0.00    +0.025 A 
ATOM      9  C   UNL     1      -6.102  -4.715  -3.576  0.00  0.00    +0.002 A 
ATOM     10  C   UNL     1      -4.984  -4.252  -4.245  0.00  0.00    +0.002 A 
ATOM     11  C   UNL     1      -4.413  -3.040  -3.896  0.00  0.00    +0.025 A 
ATOM     12  C   UNL     1      -4.971  -2.299  -2.869  0.00  0.00    +0.052 A 
ATOM     13  N   UNL     1      -4.476  -1.054  -2.497  0.00  0.00    -0.316 N 
ATOM     14  C   UNL     1      -3.765  -0.763   1.093  0.00  0.00    +0.163 C 
ATOM     15  O   UNL     1      -4.239  -1.116   2.154  0.00  0.00    -0.292 OA
ATOM     16  C   UNL     1      -2.501   0.043   1.098  0.00  0.00    +0.088 C 
ATOM     17  H   UNL     1      -7.520  -1.603  -1.102  0.00  0.00    +0.147 HD
ATOM     18  H   UNL     1      -4.565  -0.266  -3.260  0.00  0.00    +0.152 HD
ENDROOT
BRANCH   1  22
ATOM     19  C   UNL     1       1.229   3.049  -0.364  0.00  0.00    +0.162 A 
ATOM     20  C   UNL     1       1.223   1.664  -0.355  0.00  0.00    +0.050 A 
ATOM     21  C   UNL     1       0.025   0.978  -0.285  0.00  0.00    +0.008 A 
ATOM     22  C   UNL     1      -1.170   1.672  -0.230  0.00  0.00    -0.040 A 
ATOM     23  C   UNL     1      -1.171   3.054  -0.233  0.00  0.00    +0.053 A 
ATOM     24  C   UNL     1       0.027   3.748  -0.303  0.00  0.00    +0.162 A 
BRANCH  24  25
ATOM     25  O   UNL     1       0.028   5.107  -0.311  0.00  0.00    -0.491 OA
ATOM     26  C   UNL     1      -1.243   5.757  -0.246  0.00  0.00    +0.277 C 
ENDBRANCH  24  25
BRANCH  19  27
ATOM     27  O   UNL     1       2.407   3.725  -0.433  0.00  0.00    -0.489 OA
BRANCH  27  29
ATOM     28  C   UNL     1       4.816   3.871  -0.567  0.00  0.00    +0.048 C 
ATOM     29  C   UNL     1       3.601   2.943  -0.494  0.00  0.00    +0.226 C 
ENDBRANCH  27  29
ENDBRANCH  19  27
ENDBRANCH   1  22
BRANCH   5  30
ATOM     30  C   UNL     1      -5.332  -3.283   0.620  0.00  0.00    +0.019 A 
ATOM     31  C   UNL     1      -4.041  -3.752   0.471  0.00  0.00    +0.013 A 
ATOM     32  C   UNL     1      -3.702  -5.009   0.933  0.00  0.00    +0.046 A 
ATOM     33  C   UNL     1      -4.660  -5.805   1.546  0.00  0.00    +0.124 A 
ATOM     34  C   UNL     1      -5.956  -5.337   1.697  0.00  0.00    +0.091 A 
ATOM     35  C   UNL     1      -6.291  -4.072   1.238  0.00  0.00    +0.129 A 
BRANCH  35  36
ATOM     36  O   UNL     1      -7.560  -3.609   1.389  0.00  0.00    -0.495 OA
ATOM     37  C   UNL     1      -8.495  -4.475   2.034  0.00  0.00    +0.277 C 
ENDBRANCH  35  36
BRANCH  33  38
ATOM     38  O   UNL     1      -4.326  -7.042   2.000  0.00  0.00    -0.495 OA
ATOM     39  C   UNL     1      -2.973  -7.459   1.812  0.00  0.00    +0.277 C 
ENDBRANCH  33  38
ENDBRANCH   5  30
TORSDOF 7
