REMARK  Name = ZINC38686893
REMARK  12 active torsions:
REMARK  status: ('A' for Active; 'I' for Inactive)
REMARK    1  A    between atoms: C_1  and  C_2
REMARK    2  A    between atoms: C_5  and  C_8
REMARK    3  A    between atoms: C_8  and  O_9
REMARK    4  A    between atoms: O_9  and  C_10
REMARK    5  A    between atoms: C_13  and  C_18
REMARK    6  A    between atoms: C_15  and  O_16
REMARK    7  A    between atoms: O_16  and  C_17
REMARK    8  A    between atoms: C_23  and  O_32
REMARK    9  A    between atoms: C_27  and  N_31
REMARK   10  A    between atoms: C_28  and  C_29
REMARK   11  A    between atoms: O_32  and  C_33
REMARK   12  A    between atoms: C_33  and  C_35
REMARK                            x       y       z     vdW  Elec       q    Type
REMARK                         _______ _______ _______ _____ _____    ______ ____
ROOT
ATOM      1  C   UNL     1       2.278 -10.319  -0.040  0.00  0.00    +0.098 C 
ATOM      2  C   UNL     1       1.636 -10.917   1.184  0.00  0.00    +0.008 A 
ATOM      3  C   UNL     1       2.311 -10.882   2.392  0.00  0.00    +0.012 A 
ATOM      4  C   UNL     1       1.738 -11.426   3.525  0.00  0.00    +0.047 A 
ATOM      5  C   UNL     1       0.481 -12.011   3.454  0.00  0.00    +0.136 A 
ATOM      6  C   UNL     1      -0.197 -12.047   2.247  0.00  0.00    +0.093 A 
ATOM      7  C   UNL     1       0.381 -11.499   1.108  0.00  0.00    +0.138 A 
ATOM      8  O   UNL     1      -0.296 -11.543  -0.066  0.00  0.00    -0.441 OA
ATOM      9  C   UNL     1       0.364 -11.387  -1.226  0.00  0.00    +0.199 C 
ATOM     10  C   UNL     1       1.587 -10.813  -1.279  0.00  0.00    +0.098 C 
ENDROOT
BRANCH   1  14
ATOM     11  C   UNL     1       1.973  -6.057   0.144  0.00  0.00    +0.162 A 
ATOM     12  C   UNL     1       0.827  -6.837   0.136  0.00  0.00    +0.050 A 
ATOM     13  C   UNL     1       0.929  -8.214   0.076  0.00  0.00    +0.008 A 
ATOM     14  C   UNL     1       2.172  -8.817   0.025  0.00  0.00    -0.031 A 
ATOM     15  C   UNL     1       3.319  -8.045   0.034  0.00  0.00    +0.054 A 
ATOM     16  C   UNL     1       3.224  -6.663   0.087  0.00  0.00    +0.162 A 
BRANCH  16  17
ATOM     17  O   UNL     1       4.351  -5.902   0.090  0.00  0.00    -0.491 OA
ATOM     18  C   UNL     1       5.600  -6.593   0.030  0.00  0.00    +0.277 C 
ENDBRANCH  16  17
BRANCH  11  19
ATOM     19  O   UNL     1       1.874  -4.702   0.203  0.00  0.00    -0.484 OA
BRANCH  19  20
ATOM     20  C   UNL     1       0.558  -4.149   0.259  0.00  0.00    +0.264 C 
BRANCH  20  25
ATOM     21  C   UNL     1       0.894   1.615   0.488  0.00  0.00    +0.044 C 
ATOM     22  C   UNL     1       0.807   0.112   0.428  0.00  0.00    -0.050 A 
ATOM     23  C   UNL     1       0.737  -0.528  -0.795  0.00  0.00    +0.004 A 
ATOM     24  C   UNL     1       0.656  -1.907  -0.850  0.00  0.00    +0.007 A 
ATOM     25  C   UNL     1       0.646  -2.646   0.319  0.00  0.00    -0.010 A 
ATOM     26  C   UNL     1       0.717  -2.006   1.542  0.00  0.00    +0.007 A 
ATOM     27  C   UNL     1       0.802  -0.627   1.597  0.00  0.00    +0.004 A 
ENDBRANCH  20  25
ENDBRANCH  19  20
ENDBRANCH  11  19
ENDBRANCH   1  14
BRANCH   9  28
ATOM     28  N   UNL     1      -0.220 -11.822  -2.389  0.00  0.00    -0.328 N 
ATOM     29  H   UNL     1      -1.098 -12.235  -2.366  0.00  0.00    +0.145 HD
ATOM     30  H   UNL     1       0.244 -11.716  -3.234  0.00  0.00    +0.145 HD
ENDBRANCH   9  28
BRANCH  10  31
ATOM     31  C   UNL     1       2.237 -10.675  -2.548  0.00  0.00    +0.101 C 
ATOM     32  N   UNL     1       2.752 -10.566  -3.554  0.00  0.00    -0.191 NA
ENDBRANCH  10  31
BRANCH   5  33
ATOM     33  O   UNL     1      -0.083 -12.547   4.568  0.00  0.00    -0.420 OA
BRANCH  33  34
ATOM     34  C   UNL     1      -0.477 -11.706   5.546  0.00  0.00    +0.380 C 
ATOM     35  O   UNL     1      -0.420 -10.504   5.374  0.00  0.00    -0.241 OA
BRANCH  34  36
ATOM     36  C   UNL     1      -0.974 -12.241   6.816  0.00  0.00    +0.212 A 
ATOM     37  C   UNL     1      -1.408 -11.506   7.882  0.00  0.00    +0.056 A 
ATOM     38  C   UNL     1      -1.790 -12.421   8.875  0.00  0.00    +0.042 A 
ATOM     39  C   UNL     1      -1.575 -13.659   8.378  0.00  0.00    +0.196 A 
ATOM     40  O   UNL     1      -1.089 -13.547   7.135  0.00  0.00    -0.456 OA
ENDBRANCH  34  36
ENDBRANCH  33  34
ENDBRANCH   5  33
TORSDOF 10
