REMARK  Name = ZINC35894805
REMARK  6 active torsions:
REMARK  status: ('A' for Active; 'I' for Inactive)
REMARK    1  A    between atoms: C_6  and  C_7
REMARK    2  A    between atoms: C_7  and  N_8
REMARK    3  A    between atoms: C_9  and  C_11
REMARK    4  A    between atoms: C_16  and  N_35
REMARK    5  A    between atoms: N_24  and  C_27
REMARK    6  A    between atoms: C_27  and  C_28
REMARK                            x       y       z     vdW  Elec       q    Type
REMARK                         _______ _______ _______ _____ _____    ______ ____
ROOT
ATOM      1  C   UNL     1      -3.312  -1.942  -3.025  0.00  0.00    +0.098 C 
ATOM      2  C   UNL     1      -3.519  -0.606  -3.736  0.00  0.00    +0.051 C 
ATOM      3  C   UNL     1      -4.666   0.131  -3.095  0.00  0.00    -0.023 A 
ATOM      4  C   UNL     1      -4.713   1.512  -3.176  0.00  0.00    +0.038 A 
ATOM      5  C   UNL     1      -5.754   2.206  -2.590  0.00  0.00    +0.127 A 
ATOM      6  C   UNL     1      -6.752   1.524  -1.919  0.00  0.00    +0.034 A 
ATOM      7  C   UNL     1      -6.713   0.147  -1.837  0.00  0.00    +0.025 A 
ATOM      8  C   UNL     1      -5.666  -0.555  -2.428  0.00  0.00    +0.033 A 
ATOM      9  N   UNL     1      -5.660  -1.956  -2.337  0.00  0.00    -0.329 N 
ATOM     10  C   UNL     1      -4.629  -2.726  -3.017  0.00  0.00    +0.069 C 
ATOM     11  C   UNL     1      -4.386  -4.092  -2.396  0.00  0.00    -0.055 C 
ATOM     12  N   UNL     1      -5.630  -4.720  -1.951  0.00  0.00    +0.385 N 
ATOM     13  C   UNL     1      -6.245  -3.876  -0.915  0.00  0.00    -0.059 C 
ATOM     14  C   UNL     1      -6.737  -2.587  -1.571  0.00  0.00    +0.087 C 
ATOM     15  H   UNL     1      -6.262  -4.809  -2.733  0.00  0.00    -0.081 HD
ENDROOT
BRANCH   1  17
ATOM     16  N   UNL     1      -1.726  -1.017  -1.368  0.00  0.00    -0.311 N 
ATOM     17  C   UNL     1      -2.867  -1.693  -1.607  0.00  0.00    +0.218 C 
ATOM     18  O   UNL     1      -3.535  -2.101  -0.681  0.00  0.00    -0.275 OA
ATOM     19  H   UNL     1      -1.191  -0.691  -2.109  0.00  0.00    +0.149 HD
BRANCH  16  20
ATOM     20  C   UNL     1      -1.293  -0.775   0.010  0.00  0.00    +0.139 C 
BRANCH  20  26
ATOM     21  C   UNL     1      -0.017   1.378   0.010  0.00  0.00    +0.008 A 
ATOM     22  C   UNL     1       1.170   2.086   0.002  0.00  0.00    +0.038 A 
ATOM     23  C   UNL     1       2.379   1.410  -0.013  0.00  0.00    +0.123 A 
ATOM     24  C   UNL     1       2.396   0.026  -0.021  0.00  0.00    +0.038 A 
ATOM     25  C   UNL     1       1.208  -0.680  -0.013  0.00  0.00    +0.008 A 
ATOM     26  C   UNL     1       0.002  -0.004   0.002  0.00  0.00    -0.030 A 
ATOM     27  F   UNL     1       3.540   2.101  -0.021  0.00  0.00    -0.205 F 
ENDBRANCH  20  26
ENDBRANCH  16  20
ENDBRANCH   1  17
BRANCH   5  28
ATOM     28  N   UNL     1      -5.800   3.683  -2.680  0.00  0.00    +0.056 N 
ATOM     29  O   UNL     1      -4.928   4.280  -3.267  0.00  0.00    -0.126 OA
ATOM     30  O   UNL     1      -6.710   4.292  -2.168  0.00  0.00    -0.126 OA
ENDBRANCH   5  28
BRANCH  12  31
ATOM     31  C   UNL     1      -5.340  -6.048  -1.395  0.00  0.00    -0.043 C 
BRANCH  31  32
ATOM     32  C   UNL     1      -6.632  -6.742  -1.050  0.00  0.00    -0.064 A 
ATOM     33  C   UNL     1      -7.187  -6.585   0.206  0.00  0.00    +0.004 A 
ATOM     34  C   UNL     1      -8.372  -7.221   0.523  0.00  0.00    +0.038 A 
ATOM     35  C   UNL     1      -9.005  -8.014  -0.419  0.00  0.00    +0.123 A 
ATOM     36  C   UNL     1      -8.449  -8.170  -1.677  0.00  0.00    +0.038 A 
ATOM     37  C   UNL     1      -7.266  -7.530  -1.993  0.00  0.00    +0.004 A 
ATOM     38  F   UNL     1     -10.164  -8.636  -0.110  0.00  0.00    -0.205 F 
ENDBRANCH  31  32
ENDBRANCH  12  31
TORSDOF 6
