REMARK  Name = ZINC05215161
REMARK  6 active torsions:
REMARK  status: ('A' for Active; 'I' for Inactive)
REMARK    1  A    between atoms: C_1  and  C_2
REMARK    2  A    between atoms: N_13  and  C_16
REMARK    3  A    between atoms: C_16  and  C_17
REMARK    4  A    between atoms: N_19  and  N_20
REMARK    5  A    between atoms: C_21  and  C_22
REMARK    6  A    between atoms: C_27  and  O_28
REMARK                            x       y       z     vdW  Elec       q    Type
REMARK                         _______ _______ _______ _____ _____    ______ ____
ROOT
ATOM      1  C   UNL     1      -5.384   2.675   2.310  0.00  0.00    +0.008 C 
ATOM      2  C   UNL     1      -3.901   2.993   2.110  0.00  0.00    -0.009 C 
ATOM      3  C   UNL     1      -3.215   1.819   1.405  0.00  0.00    +0.008 C 
ATOM      4  C   UNL     1      -1.699   2.017   1.422  0.00  0.00    +0.037 C 
ATOM      5  C   UNL     1      -1.376   3.401   0.865  0.00  0.00    -0.023 A 
ATOM      6  C   UNL     1      -2.326   4.357   0.802  0.00  0.00    -0.004 A 
ATOM      7  S   UNL     1      -1.510   5.771   0.111  0.00  0.00    -0.073 S 
ATOM      8  C   UNL     1       0.106   5.067  -0.101  0.00  0.00    +0.116 A 
ATOM      9  C   UNL     1      -0.044   3.756   0.378  0.00  0.00    +0.076 A 
ATOM     10  C   UNL     1       1.134   2.941   0.330  0.00  0.00    +0.263 A 
ATOM     11  O   UNL     1       1.106   1.788   0.726  0.00  0.00    -0.267 OA
ATOM     12  N   UNL     1       2.270   3.467  -0.164  0.00  0.00    -0.290 N 
ATOM     13  C   UNL     1       2.320   4.748  -0.610  0.00  0.00    +0.203 A 
ATOM     14  N   UNL     1       1.264   5.517  -0.576  0.00  0.00    -0.230 NA
ATOM     15  C   UNL     1      -3.756   4.246   1.234  0.00  0.00    +0.046 C 
ENDROOT
BRANCH  12  16
ATOM     16  C   UNL     1       3.478   2.640  -0.222  0.00  0.00    +0.223 C 
BRANCH  16  17
ATOM     17  C   UNL     1       3.530   1.917  -1.543  0.00  0.00    +0.252 C 
ATOM     18  O   UNL     1       2.644   2.077  -2.357  0.00  0.00    -0.272 OA
ATOM     19  N   UNL     1       4.559   1.093  -1.821  0.00  0.00    -0.206 N 
ATOM     20  H   UNL     1       5.267   0.966  -1.170  0.00  0.00    +0.177 HD
BRANCH  19  21
ATOM     21  N   UNL     1       4.607   0.422  -3.049  0.00  0.00    -0.188 NA
ATOM     22  C   UNL     1       5.540  -0.453  -3.275  0.00  0.00    +0.142 C 
BRANCH  22  23
ATOM     23  C   UNL     1       6.388  -0.928  -2.168  0.00  0.00    +0.036 A 
ATOM     24  C   UNL     1       5.911  -0.899  -0.855  0.00  0.00    +0.013 A 
ATOM     25  C   UNL     1       6.708  -1.349   0.176  0.00  0.00    +0.001 A 
ATOM     26  C   UNL     1       7.984  -1.821  -0.083  0.00  0.00    +0.004 A 
ATOM     27  C   UNL     1       8.470  -1.849  -1.376  0.00  0.00    +0.046 A 
ATOM     28  C   UNL     1       7.680  -1.406  -2.425  0.00  0.00    +0.125 A 
BRANCH  28  29
ATOM     29  O   UNL     1       8.156  -1.434  -3.696  0.00  0.00    -0.506 OA
ATOM     30  H   UNL     1       8.549  -0.600  -3.988  0.00  0.00    +0.292 HD
ENDBRANCH  28  29
ENDBRANCH  22  23
ENDBRANCH  19  21
ENDBRANCH  16  17
ENDBRANCH  12  16
TORSDOF 5
