REMARK  Name = ZINC10864167
REMARK  9 active torsions:
REMARK  status: ('A' for Active; 'I' for Inactive)
REMARK    1  A    between atoms: C_1  and  C_2
REMARK    2  A    between atoms: C_3  and  N_15
REMARK    3  A    between atoms: N_6  and  C_9
REMARK    4  A    between atoms: N_7  and  C_8
REMARK    5  A    between atoms: C_16  and  C_18
REMARK    6  A    between atoms: C_18  and  C_20
REMARK    7  A    between atoms: C_18  and  O_21
REMARK    8  A    between atoms: O_21  and  C_22
REMARK    9  A    between atoms: C_22  and  C_24
REMARK                            x       y       z     vdW  Elec       q    Type
REMARK                         _______ _______ _______ _____ _____    ______ ____
ROOT
ATOM      1  N   UNL     1      -4.524   9.175  -0.355  0.00  0.00    -0.277 N 
ATOM      2  C   UNL     1      -4.086   7.959  -0.738  0.00  0.00    +0.258 C 
ATOM      3  O   UNL     1      -3.604   7.808  -1.841  0.00  0.00    -0.271 OA
ATOM      4  H   UNL     1      -4.976   9.281   0.497  0.00  0.00    +0.155 HD
ENDROOT
BRANCH   1   7
ATOM      5  C   UNL     1      -6.764  10.984  -1.414  0.00  0.00    +0.067 C 
ATOM      6  C   UNL     1      -5.286  11.110  -1.678  0.00  0.00    +0.059 A 
ATOM      7  C   UNL     1      -4.326  10.291  -1.192  0.00  0.00    +0.121 A 
ATOM      8  C   UNL     1      -3.042  10.784  -1.692  0.00  0.00    +0.293 A 
ATOM      9  O   UNL     1      -1.944  10.309  -1.464  0.00  0.00    -0.264 OA
ATOM     10  N   UNL     1      -3.307  11.864  -2.457  0.00  0.00    -0.216 N 
ATOM     11  N   UNL     1      -4.691  12.072  -2.449  0.00  0.00    -0.282 N 
ATOM     12  C   UNL     1      -5.391  13.149  -3.153  0.00  0.00    +0.171 C 
BRANCH  10  13
ATOM     13  C   UNL     1      -2.362  12.643  -3.133  0.00  0.00    +0.067 A 
ATOM     14  C   UNL     1      -2.562  12.976  -4.466  0.00  0.00    +0.028 A 
ATOM     15  C   UNL     1      -1.630  13.749  -5.130  0.00  0.00    +0.002 A 
ATOM     16  C   UNL     1      -0.494  14.183  -4.471  0.00  0.00    +0.000 A 
ATOM     17  C   UNL     1      -0.290  13.848  -3.145  0.00  0.00    +0.002 A 
ATOM     18  C   UNL     1      -1.221  13.080  -2.474  0.00  0.00    +0.028 A 
ENDBRANCH  10  13
ENDBRANCH   1   7
BRANCH   2  19
ATOM     19  C   UNL     1      -4.195   6.788   0.204  0.00  0.00    +0.259 C 
ATOM     20  C   UNL     1      -3.400   7.082   1.478  0.00  0.00    +0.062 C 
BRANCH  19  21
ATOM     21  O   UNL     1      -3.659   5.600  -0.437  0.00  0.00    -0.449 OA
BRANCH  21  22
ATOM     22  C   UNL     1      -4.192   4.417  -0.076  0.00  0.00    +0.341 C 
ATOM     23  O   UNL     1      -5.080   4.378   0.751  0.00  0.00    -0.245 OA
BRANCH  22  24
ATOM     24  C   UNL     1      -3.696   3.166  -0.687  0.00  0.00    +0.078 A 
ATOM     25  C   UNL     1      -4.247   1.930  -0.324  0.00  0.00    +0.033 A 
ATOM     26  C   UNL     1      -3.743   0.788  -0.922  0.00  0.00    +0.037 A 
ATOM     27  C   UNL     1      -2.729   0.904  -1.857  0.00  0.00    +0.126 A 
ATOM     28  N   UNL     1      -2.234   2.082  -2.183  0.00  0.00    -0.261 NA
ATOM     29  C   UNL     1      -2.676   3.197  -1.639  0.00  0.00    +0.125 A 
ATOM     30 BR   UNL     1      -4.438  -0.912  -0.471  0.00  0.00    -0.049 Br
ENDBRANCH  22  24
ENDBRANCH  21  22
ENDBRANCH  19  21
ENDBRANCH   2  19
TORSDOF 6
