REMARK  Name = ZINC21526487
REMARK  7 active torsions:
REMARK  status: ('A' for Active; 'I' for Inactive)
REMARK    1  A    between atoms: C_1  and  C_2
REMARK    2  A    between atoms: C_2  and  O_3
REMARK    3  A    between atoms: O_3  and  C_4
REMARK    4  A    between atoms: C_7  and  N_10
REMARK    5  A    between atoms: C_19  and  C_20
REMARK    6  A    between atoms: C_19  and  C_21
REMARK    7  A    between atoms: N_23  and  C_24
REMARK                            x       y       z     vdW  Elec       q    Type
REMARK                         _______ _______ _______ _____ _____    ______ ____
ROOT
ATOM      1  N   UNL     1      -0.838   7.348   2.304  0.00  0.00    -0.250 N 
ATOM      2  C   UNL     1      -1.268   7.663   3.548  0.00  0.00    +0.268 C 
ATOM      3  O   UNL     1      -1.183   6.878   4.475  0.00  0.00    -0.268 OA
ATOM      4  C   UNL     1      -1.838   9.004   3.723  0.00  0.00    +0.109 A 
ATOM      5  C   UNL     1      -2.178   9.684   4.855  0.00  0.00    +0.079 A 
ATOM      6  C   UNL     1      -2.661  10.941   4.462  0.00  0.00    +0.153 A 
ATOM      7  C   UNL     1      -2.606  10.997   3.069  0.00  0.00    +0.088 A 
ATOM      8  N   UNL     1      -2.113   9.809   2.621  0.00  0.00    -0.331 N 
ATOM      9  C   UNL     1      -1.876   9.344   1.251  0.00  0.00    +0.158 C 
ATOM     10  C   UNL     1      -0.716   8.349   1.252  0.00  0.00    +0.133 C 
ATOM     11  C   UNL     1       0.593   9.117   1.448  0.00  0.00    +0.044 C 
ATOM     12  C   UNL     1      -3.091  12.278   2.709  0.00  0.00    +0.067 A 
ATOM     13  C   UNL     1      -3.411  12.918   3.846  0.00  0.00    +0.198 A 
ATOM     14  O   UNL     1      -3.156  12.120   4.896  0.00  0.00    -0.461 OA
ENDROOT
BRANCH   1  18
ATOM     15  C   UNL     1       0.153   3.389   1.451  0.00  0.00    +0.121 A 
ATOM     16  C   UNL     1       1.115   4.383   1.345  0.00  0.00    +0.047 A 
ATOM     17  C   UNL     1       0.786   5.695   1.622  0.00  0.00    +0.027 A 
ATOM     18  C   UNL     1      -0.505   6.018   2.018  0.00  0.00    +0.038 A 
ATOM     19  C   UNL     1      -1.466   5.022   2.130  0.00  0.00    +0.027 A 
ATOM     20  C   UNL     1      -1.137   3.711   1.847  0.00  0.00    +0.047 A 
BRANCH  15  21
ATOM     21  O   UNL     1       0.476   2.098   1.173  0.00  0.00    -0.492 OA
BRANCH  21  23
ATOM     22  C   UNL     1       2.039   0.311   0.720  0.00  0.00    +0.048 C 
ATOM     23  C   UNL     1       1.849   1.819   0.887  0.00  0.00    +0.225 C 
ENDBRANCH  21  23
ENDBRANCH  15  21
ENDBRANCH   1  18
BRANCH  10  24
ATOM     24  C   UNL     1      -0.672   7.651  -0.083  0.00  0.00    +0.239 C 
ATOM     25  O   UNL     1       0.109   8.018  -0.934  0.00  0.00    -0.273 OA
ATOM     26  N   UNL     1      -1.502   6.618  -0.330  0.00  0.00    -0.311 N 
ATOM     27  H   UNL     1      -2.265   6.335   0.410  0.00  0.00    +0.149 HD
BRANCH  26  28
ATOM     28  C   UNL     1      -1.387   5.870  -1.585  0.00  0.00    +0.073 C 
ATOM     29  C   UNL     1      -2.065   6.678  -2.711  0.00  0.00    +0.022 C 
ATOM     30  C   UNL     1      -1.524   6.202  -4.032  0.00  0.00    +0.002 C 
ATOM     31  C   UNL     1      -2.408   5.114  -4.672  0.00  0.00    +0.000 C 
ATOM     32  C   UNL     1      -2.914   4.078  -3.650  0.00  0.00    +0.000 C 
ATOM     33  C   UNL     1      -1.851   3.674  -2.665  0.00  0.00    +0.002 C 
ATOM     34  C   UNL     1      -1.987   4.556  -1.408  0.00  0.00    +0.022 C 
ENDBRANCH  26  28
ENDBRANCH  10  24
TORSDOF 5
