REMARK  Name = ZINC28910710
REMARK  9 active torsions:
REMARK  status: ('A' for Active; 'I' for Inactive)
REMARK    1  A    between atoms: C_1  and  N_2
REMARK    2  A    between atoms: N_2  and  C_3
REMARK    3  A    between atoms: N_2  and  C_4
REMARK    4  A    between atoms: C_7  and  C_10
REMARK    5  A    between atoms: C_10  and  C_12
REMARK    6  A    between atoms: C_10  and  C_24
REMARK    7  A    between atoms: C_12  and  N_13
REMARK    8  A    between atoms: C_14  and  C_16
REMARK    9  A    between atoms: C_16  and  C_17
REMARK                            x       y       z     vdW  Elec       q    Type
REMARK                         _______ _______ _______ _____ _____    ______ ____
ROOT
ATOM      1  C   UNL     1      -2.531  -0.809   0.020  0.00  0.00    +0.068 C 
ENDROOT
BRANCH   1   2
ATOM      2  C   UNL     1      -1.039  -1.022   0.012  0.00  0.00    -0.013 A 
ATOM      3  C   UNL     1      -0.401  -2.203   0.008  0.00  0.00    +0.088 A 
ATOM      4  N   UNL     1       0.953  -2.002   0.001  0.00  0.00    -0.360 N 
ATOM      5  H   UNL     1       1.637  -2.863  -0.003  0.00  0.00    +0.165 HD
ATOM      6  C   UNL     1       1.225  -0.652  -0.000  0.00  0.00    +0.047 A 
ATOM      7  C   UNL     1      -0.010   0.021   0.006  0.00  0.00    +0.003 A 
ATOM      8  C   UNL     1      -0.043   1.416   0.007  0.00  0.00    +0.010 A 
ATOM      9  C   UNL     1       1.127   2.123   0.001  0.00  0.00    +0.001 A 
ATOM     10  C   UNL     1       2.348   1.464  -0.005  0.00  0.00    +0.002 A 
ATOM     11  C   UNL     1       2.404   0.087  -0.006  0.00  0.00    +0.026 A 
ENDBRANCH   1   2
BRANCH   1  15
ATOM     12  C   UNL     1      -4.207  -2.604   3.518  0.00  0.00    +0.029 A 
ATOM     13  C   UNL     1      -4.352  -1.240   3.297  0.00  0.00    +0.023 A 
ATOM     14  C   UNL     1      -3.809  -0.664   2.166  0.00  0.00    +0.006 A 
ATOM     15  C   UNL     1      -3.122  -1.442   1.253  0.00  0.00    -0.038 A 
ATOM     16  C   UNL     1      -2.981  -2.801   1.466  0.00  0.00    +0.006 A 
ATOM     17  C   UNL     1      -3.516  -3.384   2.598  0.00  0.00    +0.023 A 
BRANCH  12  19
ATOM     18  C   UNL     1      -5.374  -2.352   5.690  0.00  0.00    +0.129 C 
ATOM     19  N   UNL     1      -4.755  -3.191   4.660  0.00  0.00    -0.336 N 
ATOM     20  C   UNL     1      -4.711  -4.646   4.830  0.00  0.00    +0.129 C 
ENDBRANCH  12  19
ENDBRANCH   1  15
BRANCH   1  21
ATOM     21  C   UNL     1      -3.144  -1.451  -1.227  0.00  0.00    +0.117 C 
BRANCH  21  22
ATOM     22  N   UNL     1      -2.660  -0.756  -2.422  0.00  0.00    -0.314 N 
ATOM     23  C   UNL     1      -3.070  -1.152  -3.644  0.00  0.00    +0.217 C 
ATOM     24  O   UNL     1      -3.840  -2.083  -3.753  0.00  0.00    -0.275 OA
ATOM     25  H   UNL     1      -1.962   0.088  -2.323  0.00  0.00    +0.149 HD
BRANCH  23  26
ATOM     26  C   UNL     1      -2.572  -0.437  -4.873  0.00  0.00    +0.131 C 
BRANCH  26  27
ATOM     27  C   UNL     1      -3.176  -1.069  -6.101  0.00  0.00    -0.036 A 
ATOM     28  C   UNL     1      -2.525  -2.112  -6.733  0.00  0.00    +0.004 A 
ATOM     29  C   UNL     1      -3.080  -2.696  -7.856  0.00  0.00    +0.003 A 
ATOM     30  C   UNL     1      -4.282  -2.230  -8.355  0.00  0.00    +0.038 A 
ATOM     31  C   UNL     1      -4.933  -1.182  -7.726  0.00  0.00    +0.124 A 
ATOM     32  C   UNL     1      -4.378  -0.602  -6.598  0.00  0.00    +0.042 A 
ATOM     33  F   UNL     1      -6.107  -0.726  -8.213  0.00  0.00    -0.205 F 
ENDBRANCH  26  27
ENDBRANCH  23  26
ENDBRANCH  21  22
ENDBRANCH   1  21
TORSDOF 7
