REMARK  Name = ZINC64774472
REMARK  10 active torsions:
REMARK  status: ('A' for Active; 'I' for Inactive)
REMARK    1  A    between atoms: C_1  and  C_2
REMARK    2  A    between atoms: C_4  and  C_32
REMARK    3  A    between atoms: C_5  and  N_28
REMARK    4  A    between atoms: C_6  and  C_8
REMARK    5  A    between atoms: C_12  and  S_15
REMARK    6  A    between atoms: S_15  and  C_16
REMARK    7  A    between atoms: C_16  and  C_17
REMARK    8  A    between atoms: N_19  and  C_20
REMARK    9  A    between atoms: C_25  and  C_26
REMARK   10  A    between atoms: C_29  and  C_31
REMARK                            x       y       z     vdW  Elec       q    Type
REMARK                         _______ _______ _______ _____ _____    ______ ____
ROOT
ATOM      1  C   UNL     1       0.705  -3.381   1.823  0.00  0.00    +0.161 A 
ATOM      2  C   UNL     1       1.028  -3.025   3.146  0.00  0.00    +0.300 A 
ATOM      3  O   UNL     1       1.047  -1.726   3.527  0.00  0.00    -0.263 OA
ATOM      4  N   UNL     1       1.315  -3.990   4.010  0.00  0.00    -0.180 NA
ATOM      5  C   UNL     1       1.289  -5.256   3.609  0.00  0.00    +0.213 A 
ATOM      6  N   UNL     1       0.981  -5.570   2.357  0.00  0.00    -0.122 NA
ATOM      7  N   UNL     1       0.692  -4.666   1.488  0.00  0.00    -0.141 NA
ENDROOT
BRANCH   1  13
ATOM      8  C   UNL     1       1.707   1.012  -0.320  0.00  0.00    +0.044 C 
ATOM      9  C   UNL     1       0.855  -0.226  -0.212  0.00  0.00    -0.049 A 
ATOM     10  C   UNL     1      -0.235  -0.387  -1.050  0.00  0.00    +0.008 A 
ATOM     11  C   UNL     1      -1.023  -1.518  -0.959  0.00  0.00    -0.028 A 
ATOM     12  C   UNL     1      -0.725  -2.500  -0.026  0.00  0.00    +0.046 A 
ATOM     13  C   UNL     1       0.378  -2.339   0.822  0.00  0.00    +0.029 A 
ATOM     14  C   UNL     1       1.168  -1.196   0.718  0.00  0.00    +0.015 A 
ATOM     15  C   UNL     1      -2.208  -1.686  -1.875  0.00  0.00    +0.046 C 
BRANCH  12  16
ATOM     16  N   UNL     1      -1.521  -3.644   0.068  0.00  0.00    -0.285 N 
ATOM     17  C   UNL     1      -1.882  -4.117   1.278  0.00  0.00    +0.214 C 
ATOM     18  O   UNL     1      -1.563  -3.518   2.283  0.00  0.00    -0.276 OA
ATOM     19  C   UNL     1      -2.682  -5.390   1.381  0.00  0.00    +0.109 C 
ATOM     20  H   UNL     1      -1.814  -4.098  -0.737  0.00  0.00    +0.155 HD
ENDBRANCH  12  16
ENDBRANCH   1  13
BRANCH   5  21
ATOM     21  S   UNL     1       1.670  -6.537   4.757  0.00  0.00    -0.075 S 
BRANCH  21  22
ATOM     22  C   UNL     1       1.510  -8.060   3.783  0.00  0.00    +0.173 C 
BRANCH  22  23
ATOM     23  C   UNL     1       1.813  -9.249   4.657  0.00  0.00    +0.227 C 
ATOM     24  O   UNL     1       2.108  -9.086   5.822  0.00  0.00    -0.275 OA
ATOM     25  N   UNL     1       1.757 -10.494   4.145  0.00  0.00    -0.285 N 
ATOM     26  H   UNL     1       1.444 -10.631   3.237  0.00  0.00    +0.155 HD
BRANCH  25  27
ATOM     27  C   UNL     1       2.150 -11.590   4.922  0.00  0.00    +0.036 A 
ATOM     28  C   UNL     1       3.018 -11.409   5.991  0.00  0.00    +0.025 A 
ATOM     29  C   UNL     1       3.404 -12.492   6.757  0.00  0.00    +0.022 A 
ATOM     30  C   UNL     1       2.927 -13.756   6.459  0.00  0.00    +0.041 A 
ATOM     31  C   UNL     1       2.062 -13.939   5.395  0.00  0.00    +0.025 A 
ATOM     32  C   UNL     1       1.668 -12.859   4.630  0.00  0.00    -0.028 A 
ATOM     33  C   UNL     1       0.721 -13.058   3.474  0.00  0.00    +0.046 C 
ATOM     34 CL   UNL     1       3.415 -15.115   7.423  0.00  0.00    -0.084 Cl
ENDBRANCH  25  27
ENDBRANCH  22  23
ENDBRANCH  21  22
ENDBRANCH   5  21
TORSDOF 6
