REMARK  Name = ZINC31854554
REMARK  6 active torsions:
REMARK  status: ('A' for Active; 'I' for Inactive)
REMARK    1  A    between atoms: C_1  and  N_2
REMARK    2  A    between atoms: N_2  and  C_3
REMARK    3  A    between atoms: N_2  and  C_4
REMARK    4  A    between atoms: C_7  and  C_10
REMARK    5  A    between atoms: N_11  and  N_12
REMARK    6  A    between atoms: C_15  and  C_18
REMARK                            x       y       z     vdW  Elec       q    Type
REMARK                         _______ _______ _______ _____ _____    ______ ____
ROOT
ATOM      1  N   UNL     1       2.161   4.446   0.689  0.00  0.00    -0.215 N 
ATOM      2  C   UNL     1       1.123   3.530   0.650  0.00  0.00    +0.178 A 
ATOM      3  N   UNL     1       1.097   2.278   1.072  0.00  0.00    -0.224 NA
ATOM      4  C   UNL     1       0.006   1.537   0.957  0.00  0.00    +0.082 A 
ATOM      5  C   UNL     1      -1.113   2.075   0.385  0.00  0.00    +0.077 A 
ATOM      6  S   UNL     1      -0.537   3.727   0.018  0.00  0.00    -0.059 S 
ATOM      7  H   UNL     1       3.132   4.159   1.118  0.00  0.00    +0.176 HD
ENDROOT
BRANCH   4   8
ATOM      8  C   UNL     1      -0.000   0.133   1.437  0.00  0.00    +0.019 A 
ATOM      9  C   UNL     1      -1.153  -0.642   1.318  0.00  0.00    +0.013 A 
ATOM     10  C   UNL     1      -1.152  -1.948   1.761  0.00  0.00    +0.021 A 
ATOM     11  C   UNL     1      -0.012  -2.487   2.334  0.00  0.00    +0.042 A 
ATOM     12  C   UNL     1       1.134  -1.721   2.460  0.00  0.00    +0.040 A 
ATOM     13  C   UNL     1       1.145  -0.414   2.015  0.00  0.00    +0.052 A 
ATOM     14 CL   UNL     1       2.582   0.547   2.174  0.00  0.00    -0.083 Cl
ATOM     15 CL   UNL     1      -0.020  -4.130   2.896  0.00  0.00    -0.083 Cl
ENDBRANCH   4   8
BRANCH   1  17
ATOM     16  C   UNL     1       2.977   6.558   0.107  0.00  0.00    +0.138 C 
ATOM     17  N   UNL     1       1.974   5.738   0.180  0.00  0.00    -0.188 NA
BRANCH  16  21
ATOM     18  C   UNL     1       6.949   5.057   0.065  0.00  0.00    +0.029 A 
ATOM     19  C   UNL     1       5.878   4.193  -0.139  0.00  0.00    +0.024 A 
ATOM     20  C   UNL     1       4.588   4.676  -0.126  0.00  0.00    +0.011 A 
ATOM     21  C   UNL     1       4.356   6.037   0.092  0.00  0.00    -0.005 A 
ATOM     22  C   UNL     1       5.434   6.903   0.292  0.00  0.00    +0.011 A 
ATOM     23  C   UNL     1       6.721   6.412   0.283  0.00  0.00    +0.024 A 
BRANCH  18  25
ATOM     24  C   UNL     1       8.495   3.137  -0.179  0.00  0.00    +0.129 C 
ATOM     25  N   UNL     1       8.254   4.564   0.051  0.00  0.00    -0.336 N 
ATOM     26  C   UNL     1       9.383   5.472   0.266  0.00  0.00    +0.129 C 
ENDBRANCH  18  25
ENDBRANCH  16  21
ENDBRANCH   1  17
TORSDOF 4
