REMARK  Name = ZINC00044622
REMARK  5 active torsions:
REMARK  status: ('A' for Active; 'I' for Inactive)
REMARK    1  A    between atoms: C_1  and  C_2
REMARK    2  A    between atoms: C_2  and  C_3
REMARK    3  A    between atoms: C_4  and  C_15
REMARK    4  A    between atoms: C_10  and  O_14
REMARK    5  A    between atoms: N_23  and  C_24
REMARK                            x       y       z     vdW  Elec       q    Type
REMARK                         _______ _______ _______ _____ _____    ______ ____
ROOT
ATOM      1  C   UNL     1       0.700  -0.670  -1.206  0.00  0.00    +0.120 A 
ATOM      2  C   UNL     1       2.063  -0.691  -1.192  0.00  0.00    +0.103 A 
ATOM      3  C   UNL     1       2.768  -0.950  -2.464  0.00  0.00    +0.203 A 
ATOM      4  O   UNL     1       3.958  -1.207  -2.502  0.00  0.00    -0.286 OA
ATOM      5  C   UNL     1       1.943  -0.878  -3.685  0.00  0.00    +0.065 A 
ATOM      6  C   UNL     1       2.522  -0.848  -4.953  0.00  0.00    +0.019 A 
ATOM      7  C   UNL     1       1.724  -0.775  -6.060  0.00  0.00    +0.046 A 
ATOM      8  C   UNL     1       0.338  -0.730  -5.925  0.00  0.00    +0.120 A 
ATOM      9  C   UNL     1      -0.251  -0.762  -4.672  0.00  0.00    +0.092 A 
ATOM     10  C   UNL     1       0.545  -0.840  -3.537  0.00  0.00    +0.142 A 
ATOM     11  O   UNL     1      -0.012  -0.892  -2.310  0.00  0.00    -0.459 OA
ENDROOT
BRANCH   2  12
ATOM     12  C   UNL     1       2.813  -0.462   0.059  0.00  0.00    +0.149 A 
ATOM     13  N   UNL     1       2.810   0.655   0.747  0.00  0.00    -0.227 NA
ATOM     14  C   UNL     1       3.604   0.520   1.837  0.00  0.00    +0.090 A 
ATOM     15  C   UNL     1       3.952   1.380   2.884  0.00  0.00    +0.030 A 
ATOM     16  C   UNL     1       4.798   0.949   3.867  0.00  0.00    +0.002 A 
ATOM     17  C   UNL     1       5.319  -0.337   3.838  0.00  0.00    +0.002 A 
ATOM     18  C   UNL     1       4.990  -1.202   2.816  0.00  0.00    +0.028 A 
ATOM     19  C   UNL     1       4.132  -0.783   1.809  0.00  0.00    +0.069 A 
ATOM     20  N   UNL     1       3.613  -1.385   0.678  0.00  0.00    -0.327 N 
ATOM     21  C   UNL     1       3.872  -2.754   0.226  0.00  0.00    +0.151 C 
ENDBRANCH   2  12
BRANCH   1  23
ATOM     22  C   UNL     1      -0.406   1.093   0.143  0.00  0.00    +0.012 C 
ATOM     23  C   UNL     1      -0.031  -0.389   0.082  0.00  0.00    +0.072 C 
ENDBRANCH   1  23
BRANCH   8  24
ATOM     24  O   UNL     1      -0.443  -0.654  -7.033  0.00  0.00    -0.507 OA
ATOM     25  H   UNL     1      -0.701  -1.514  -7.392  0.00  0.00    +0.292 HD
ENDBRANCH   8  24
TORSDOF 3
