REMARK  Name = ZINC58988541
REMARK  12 active torsions:
REMARK  status: ('A' for Active; 'I' for Inactive)
REMARK    1  A    between atoms: C_1  and  N_2
REMARK    2  A    between atoms: N_2  and  C_3
REMARK    3  A    between atoms: N_2  and  C_4
REMARK    4  A    between atoms: C_7  and  C_10
REMARK    5  A    between atoms: N_11  and  N_12
REMARK    6  A    between atoms: C_13  and  C_15
REMARK    7  A    between atoms: C_15  and  C_16
REMARK    8  A    between atoms: C_16  and  C_17
REMARK    9  A    between atoms: C_17  and  S_18
REMARK   10  A    between atoms: S_18  and  C_19
REMARK   11  A    between atoms: C_22  and  C_25
REMARK   12  A    between atoms: N_23  and  N_24
REMARK                            x       y       z     vdW  Elec       q    Type
REMARK                         _______ _______ _______ _____ _____    ______ ____
ROOT
ATOM      1  C   UNL     1      -0.202  -1.922 -10.862  0.00  0.00    +0.020 C 
ENDROOT
BRANCH   1   2
ATOM      2  C   UNL     1      -0.052  -2.915  -9.707  0.00  0.00    +0.098 C 
BRANCH   2   4
ATOM      3  N   UNL     1      -0.038  -2.853  -7.235  0.00  0.00    -0.207 N 
ATOM      4  C   UNL     1      -0.143  -2.178  -8.396  0.00  0.00    +0.232 C 
ATOM      5  O   UNL     1      -0.311  -0.977  -8.386  0.00  0.00    -0.274 OA
ATOM      6  H   UNL     1       0.097  -3.814  -7.243  0.00  0.00    +0.177 HD
BRANCH   3   8
ATOM      7  C   UNL     1      -0.020  -2.819  -4.897  0.00  0.00    +0.138 C 
ATOM      8  N   UNL     1      -0.122  -2.168  -6.016  0.00  0.00    -0.188 NA
BRANCH   7  12
ATOM      9  C   UNL     1      -0.275  -0.742  -1.203  0.00  0.00    +0.029 A 
ATOM     10  C   UNL     1      -0.083  -2.119  -1.212  0.00  0.00    +0.024 A 
ATOM     11  C   UNL     1       0.000  -2.796  -2.409  0.00  0.00    +0.011 A 
ATOM     12  C   UNL     1      -0.109  -2.098  -3.615  0.00  0.00    -0.005 A 
ATOM     13  C   UNL     1      -0.302  -0.713  -3.601  0.00  0.00    +0.011 A 
ATOM     14  C   UNL     1      -0.390  -0.044  -2.401  0.00  0.00    +0.024 A 
BRANCH   9  16
ATOM     15  C   UNL     1      -0.567   1.391   0.023  0.00  0.00    +0.129 C 
ATOM     16  N   UNL     1      -0.358  -0.059   0.011  0.00  0.00    -0.336 N 
ATOM     17  C   UNL     1      -0.238  -0.793   1.273  0.00  0.00    +0.129 C 
ENDBRANCH   9  16
ENDBRANCH   7  12
ENDBRANCH   3   8
ENDBRANCH   2   4
ENDBRANCH   1   2
BRANCH   1  18
ATOM     18  C   UNL     1      -0.110  -2.671 -12.193  0.00  0.00    +0.078 C 
BRANCH  18  19
ATOM     19  S   UNL     1      -0.288  -1.494 -13.562  0.00  0.00    -0.084 S 
BRANCH  19  20
ATOM     20  C   UNL     1      -0.161  -2.497 -15.006  0.00  0.00    +0.209 A 
ATOM     21  N   UNL     1       0.015  -3.799 -15.037  0.00  0.00    -0.121 NA
ATOM     22  N   UNL     1       0.063  -4.208 -16.255  0.00  0.00    -0.127 NA
ATOM     23  C   UNL     1      -0.080  -3.193 -17.075  0.00  0.00    +0.183 A 
ATOM     24  N   UNL     1      -0.234  -2.066 -16.300  0.00  0.00    -0.224 N 
BRANCH  23  25
ATOM     25  C   UNL     1      -0.081  -3.250 -18.552  0.00  0.00    +0.035 A 
ATOM     26  C   UNL     1       0.692  -2.352 -19.289  0.00  0.00    +0.013 A 
ATOM     27  C   UNL     1       0.687  -2.411 -20.667  0.00  0.00    +0.001 A 
ATOM     28  C   UNL     1      -0.083  -3.358 -21.320  0.00  0.00    +0.001 A 
ATOM     29  C   UNL     1      -0.852  -4.251 -20.596  0.00  0.00    +0.016 A 
ATOM     30  C   UNL     1      -0.852  -4.207 -19.216  0.00  0.00    +0.029 A 
ATOM     31 BR   UNL     1      -1.898  -5.434 -18.228  0.00  0.00    -0.050 Br
ENDBRANCH  23  25
BRANCH  24  32
ATOM     32  N   UNL     1      -0.417  -0.784 -16.734  0.00  0.00    -0.295 N 
ATOM     33  H   UNL     1       0.466  -0.342 -16.939  0.00  0.00    +0.163 HD
ATOM     34  H   UNL     1      -1.029  -0.758 -17.536  0.00  0.00    +0.163 HD
ENDBRANCH  24  32
ENDBRANCH  19  20
ENDBRANCH  18  19
ENDBRANCH   1  18
TORSDOF 10
