REMARK  Name = ZINC16150918
REMARK  7 active torsions:
REMARK  status: ('A' for Active; 'I' for Inactive)
REMARK    1  A    between atoms: C_6  and  S_11
REMARK    2  A    between atoms: S_11  and  N_14
REMARK    3  A    between atoms: N_14  and  N_15
REMARK    4  A    between atoms: C_16  and  C_18
REMARK    5  A    between atoms: C_23  and  N_24
REMARK    6  A    between atoms: N_24  and  S_25
REMARK    7  A    between atoms: S_25  and  C_28
REMARK                            x       y       z     vdW  Elec       q    Type
REMARK                         _______ _______ _______ _____ _____    ______ ____
ROOT
ATOM      1  N   UNL     1       2.111   8.108   2.106  0.00  0.00    -0.228 N 
ATOM      2  C   UNL     1       2.798   8.966   2.886  0.00  0.00    +0.261 C 
ATOM      3  O   UNL     1       2.472  10.136   2.937  0.00  0.00    -0.269 OA
ATOM      4  H   UNL     1       2.371   7.174   2.066  0.00  0.00    +0.171 HD
ENDROOT
BRANCH   2   5
ATOM      5  C   UNL     1       3.944   8.485   3.679  0.00  0.00    +0.060 A 
ATOM      6  C   UNL     1       4.322   7.141   3.625  0.00  0.00    +0.015 A 
ATOM      7  C   UNL     1       5.394   6.697   4.368  0.00  0.00    +0.001 A 
ATOM      8  C   UNL     1       6.101   7.578   5.171  0.00  0.00    +0.002 A 
ATOM      9  C   UNL     1       5.741   8.908   5.236  0.00  0.00    +0.025 A 
ATOM     10  C   UNL     1       4.666   9.375   4.489  0.00  0.00    +0.060 A 
BRANCH  10  11
ATOM     11  N   UNL     1       4.304  10.715   4.548  0.00  0.00    -0.215 N 
ATOM     12  H   UNL     1       3.369  10.967   4.502  0.00  0.00    +0.174 HD
BRANCH  11  13
ATOM     13  S   UNL     1       5.470  11.881   4.698  0.00  0.00    +0.079 S 
ATOM     14  O   UNL     1       4.807  13.134   4.593  0.00  0.00    -0.149 OA
ATOM     15  O   UNL     1       6.256  11.527   5.828  0.00  0.00    -0.149 OA
BRANCH  13  16
ATOM     16  C   UNL     1       6.523  11.749   3.291  0.00  0.00    +0.146 A 
ATOM     17  C   UNL     1       6.420  12.364   2.088  0.00  0.00    +0.036 A 
ATOM     18  C   UNL     1       7.373  12.108   1.120  0.00  0.00    +0.010 A 
ATOM     19  C   UNL     1       8.383  11.249   1.403  0.00  0.00    +0.047 A 
ATOM     20  S   UNL     1       8.005  10.777   3.083  0.00  0.00    -0.077 S 
ENDBRANCH  13  16
ENDBRANCH  11  13
ENDBRANCH  10  11
ENDBRANCH   2   5
BRANCH   1  21
ATOM     21  N   UNL     1       1.023   8.565   1.352  0.00  0.00    -0.108 NA
ATOM     22  H   UNL     1       0.291   9.028   1.788  0.00  0.00    +0.172 HD
BRANCH  21  23
ATOM     23  S   UNL     1       0.985   8.315  -0.285  0.00  0.00    +0.074 S 
ATOM     24  O   UNL     1       2.199   8.841  -0.804  0.00  0.00    -0.152 OA
ATOM     25  O   UNL     1      -0.289   8.755  -0.734  0.00  0.00    -0.152 OA
BRANCH  23  31
ATOM     26  C   UNL     1       0.042   1.741  -1.236  0.00  0.00    +0.001 A 
ATOM     27  C   UNL     1      -1.191   2.378  -1.105  0.00  0.00    +0.001 A 
ATOM     28  C   UNL     1      -1.267   3.721  -0.897  0.00  0.00    +0.008 A 
ATOM     29  C   UNL     1      -0.087   4.481  -0.822  0.00  0.00    -0.016 A 
ATOM     30  C   UNL     1      -0.125   5.870  -0.613  0.00  0.00    +0.037 A 
ATOM     31  C   UNL     1       1.038   6.573  -0.547  0.00  0.00    +0.107 A 
ATOM     32  C   UNL     1       2.270   5.937  -0.683  0.00  0.00    +0.029 A 
ATOM     33  C   UNL     1       2.346   4.593  -0.887  0.00  0.00    +0.010 A 
ATOM     34  C   UNL     1       1.167   3.833  -0.961  0.00  0.00    -0.018 A 
ATOM     35  C   UNL     1       1.205   2.444  -1.170  0.00  0.00    +0.008 A 
ENDBRANCH  23  31
ENDBRANCH  21  23
ENDBRANCH   1  21
TORSDOF 7
