REMARK  Name = ZINC36153457
REMARK  5 active torsions:
REMARK  status: ('A' for Active; 'I' for Inactive)
REMARK    1  A    between atoms: C_1  and  C_2
REMARK    2  A    between atoms: C_2  and  C_3
REMARK    3  A    between atoms: C_2  and  C_4
REMARK    4  A    between atoms: C_2  and  C_5
REMARK    5  A    between atoms: C_11  and  C_15
REMARK                            x       y       z     vdW  Elec       q    Type
REMARK                         _______ _______ _______ _____ _____    ______ ____
ROOT
ATOM      1  C   UNL     1       0.707  -0.490  -1.238  0.00  0.00    +0.157 A 
ATOM      2  N   UNL     1       0.195  -1.241  -2.175  0.00  0.00    -0.131 NA
ATOM      3  N   UNL     1       1.075  -1.477  -3.088  0.00  0.00    -0.121 NA
ATOM      4  C   UNL     1       2.189  -0.888  -2.772  0.00  0.00    +0.209 A 
ATOM      5  N   UNL     1       1.998  -0.222  -1.591  0.00  0.00    -0.224 N 
ATOM      6  N   UNL     1       2.906   0.546  -0.939  0.00  0.00    -0.272 N 
ATOM      7  C   UNL     1       4.303   0.224  -1.226  0.00  0.00    +0.134 C 
ATOM      8  C   UNL     1       4.620   0.432  -2.715  0.00  0.00    +0.106 C 
ATOM      9  S   UNL     1       3.732  -0.878  -3.634  0.00  0.00    -0.082 S 
ATOM     10  H   UNL     1       2.723   1.528  -1.088  0.00  0.00    +0.167 HD
ENDROOT
BRANCH   7  11
ATOM     11  C   UNL     1       5.196   1.114  -0.402  0.00  0.00    +0.012 A 
ATOM     12  C   UNL     1       6.351   0.807   0.238  0.00  0.00    +0.013 A 
ATOM     13  C   UNL     1       7.011   1.797   0.942  0.00  0.00    +0.008 A 
ATOM     14  C   UNL     1       6.482   3.045   0.973  0.00  0.00    +0.045 A 
ATOM     15  S   UNL     1       5.012   2.848  -0.020  0.00  0.00    -0.100 S 
ENDBRANCH   7  11
BRANCH   1  17
ATOM     16  C   UNL     1      -0.019   1.526   0.010  0.00  0.00    +0.019 C 
ATOM     17  C   UNL     1       0.002  -0.004   0.002  0.00  0.00    +0.024 C 
ATOM     18  C   UNL     1       0.742  -0.511   1.242  0.00  0.00    +0.019 C 
ATOM     19  C   UNL     1      -1.433  -0.534   0.013  0.00  0.00    +0.019 C 
ENDBRANCH   1  17
TORSDOF 2
