REMARK  Name = ZINC28198874
REMARK  8 active torsions:
REMARK  status: ('A' for Active; 'I' for Inactive)
REMARK    1  A    between atoms: C_1  and  C_2
REMARK    2  A    between atoms: C_2  and  C_3
REMARK    3  A    between atoms: C_2  and  C_4
REMARK    4  A    between atoms: C_4  and  C_6
REMARK    5  A    between atoms: C_4  and  N_22
REMARK    6  A    between atoms: N_8  and  N_9
REMARK    7  A    between atoms: C_10  and  C_12
REMARK    8  A    between atoms: C_23  and  C_25
REMARK                            x       y       z     vdW  Elec       q    Type
REMARK                         _______ _______ _______ _____ _____    ______ ____
ROOT
ATOM      1  C   UNL     1      -1.658   5.108   2.846  0.00  0.00    +0.250 C 
ATOM      2  O   UNL     1      -1.215   5.906   2.048  0.00  0.00    -0.272 OA
ATOM      3  N   UNL     1      -1.519   3.786   2.625  0.00  0.00    -0.233 N 
ATOM      4  H   UNL     1      -1.920   3.061   3.349  0.00  0.00    +0.173 HD
ENDROOT
BRANCH   3   5
ATOM      5  N   UNL     1      -0.863   3.334   1.472  0.00  0.00    -0.234 N 
ATOM      6  C   UNL     1      -0.724   2.012   1.250  0.00  0.00    +0.235 C 
ATOM      7  O   UNL     1      -1.167   1.213   2.049  0.00  0.00    -0.274 OA
ATOM      8  H   UNL     1      -0.462   4.058   0.748  0.00  0.00    +0.173 HD
BRANCH   6   9
ATOM      9  C   UNL     1      -0.019   1.526   0.010  0.00  0.00    +0.049 C 
ATOM     10  C   UNL     1       1.417   2.055  -0.000  0.00  0.00    +0.019 C 
ATOM     11  C   UNL     1       2.133   1.562  -1.259  0.00  0.00    -0.009 C 
ATOM     12  C   UNL     1       2.154   0.032  -1.268  0.00  0.00    +0.007 C 
ATOM     13  C   UNL     1       0.718  -0.497  -1.257  0.00  0.00    -0.009 C 
ATOM     14  C   UNL     1       0.002  -0.004   0.002  0.00  0.00    +0.019 C 
ATOM     15  C   UNL     1      -0.022   0.009  -2.496  0.00  0.00    +0.007 C 
ATOM     16  C   UNL     1      -0.043   1.539  -2.488  0.00  0.00    -0.009 C 
ATOM     17  C   UNL     1       1.393   2.069  -2.499  0.00  0.00    +0.007 C 
ATOM     18  C   UNL     1      -0.759   2.033  -1.229  0.00  0.00    +0.019 C 
ENDBRANCH   6   9
ENDBRANCH   3   5
BRANCH   1  19
ATOM     19  C   UNL     1      -2.363   5.594   4.086  0.00  0.00    +0.163 C 
BRANCH  19  20
ATOM     20  N   UNL     1      -2.383   7.059   4.094  0.00  0.00    -0.300 N 
ATOM     21  C   UNL     1      -2.483   7.725   5.262  0.00  0.00    +0.245 C 
ATOM     22  O   UNL     1      -2.556   7.110   6.308  0.00  0.00    -0.270 OA
ATOM     23  H   UNL     1      -2.317   7.615   3.148  0.00  0.00    +0.150 HD
BRANCH  21  24
ATOM     24  C   UNL     1      -2.503   9.203   5.270  0.00  0.00    +0.037 A 
ATOM     25  C   UNL     1      -2.413   9.911   4.070  0.00  0.00    +0.014 A 
ATOM     26  C   UNL     1      -2.439  11.290   4.084  0.00  0.00    +0.021 A 
ATOM     27  C   UNL     1      -2.541  11.972   5.285  0.00  0.00    +0.041 A 
ATOM     28  C   UNL     1      -2.624  11.274   6.479  0.00  0.00    +0.021 A 
ATOM     29  C   UNL     1      -2.606   9.895   6.478  0.00  0.00    +0.014 A 
ATOM     30 CL   UNL     1      -2.565  13.708   5.295  0.00  0.00    -0.084 Cl
ENDBRANCH  21  24
ENDBRANCH  19  20
BRANCH  19  32
ATOM     31  C   UNL     1      -4.515   5.558   5.356  0.00  0.00    +0.009 C 
ATOM     32  C   UNL     1      -3.799   5.064   4.097  0.00  0.00    +0.012 C 
ATOM     33  C   UNL     1      -4.539   5.571   2.858  0.00  0.00    +0.009 C 
ENDBRANCH  19  32
ENDBRANCH   1  19
TORSDOF 6
