REMARK  Name = ZINC63868635
REMARK  4 active torsions:
REMARK  status: ('A' for Active; 'I' for Inactive)
REMARK    1  A    between atoms: C_4  and  C_13
REMARK    2  A    between atoms: C_5  and  C_7
REMARK    3  A    between atoms: C_7  and  N_8
REMARK    4  A    between atoms: N_22  and  C_23
REMARK                            x       y       z     vdW  Elec       q    Type
REMARK                         _______ _______ _______ _____ _____    ______ ____
ROOT
ATOM      1  C   UNL     1       3.735  -0.660  -0.098  0.00  0.00    +0.205 C 
ATOM      2  N   UNL     1       4.738   0.167  -0.826  0.00  0.00    -0.267 NA
ATOM      3  C   UNL     1       5.593  -0.875  -1.409  0.00  0.00    +0.212 C 
ATOM      4  C   UNL     1       4.629  -2.033  -1.666  0.00  0.00    +0.094 C 
ATOM      5  N   UNL     1       3.619  -1.905  -0.876  0.00  0.00    -0.260 NA
ATOM      6  C   UNL     1       5.252  -2.701  -2.811  0.00  0.00    +0.156 C 
ATOM      7  N   UNL     1       5.989  -1.830  -3.443  0.00  0.00    -0.189 NA
ATOM      8  N   UNL     1       6.081  -0.586  -2.760  0.00  0.00    -0.229 N 
ATOM      9  H   UNL     1       4.297   0.718  -1.547  0.00  0.00    +0.126 HD
ENDROOT
BRANCH   1  13
ATOM     10  C   UNL     1      -0.029   1.354   0.042  0.00  0.00    +0.000 A 
ATOM     11  C   UNL     1       0.261   0.503  -1.008  0.00  0.00    +0.000 A 
ATOM     12  C   UNL     1       1.479  -0.149  -1.054  0.00  0.00    +0.007 A 
ATOM     13  C   UNL     1       2.408   0.051  -0.049  0.00  0.00    -0.004 A 
ATOM     14  C   UNL     1       2.118   0.902   1.000  0.00  0.00    -0.020 A 
ATOM     15  C   UNL     1       0.899   1.553   1.047  0.00  0.00    +0.006 A 
BRANCH  14  16
ATOM     16  C   UNL     1       3.130   1.119   2.096  0.00  0.00    +0.179 C 
BRANCH  16  17
ATOM     17  N   UNL     1       4.021   2.222   1.726  0.00  0.00    -0.267 N 
ATOM     18  C   UNL     1       4.266   3.325   2.463  0.00  0.00    +0.108 A 
ATOM     19  C   UNL     1       5.139   4.096   1.775  0.00  0.00    +0.041 A 
ATOM     20  C   UNL     1       5.439   3.441   0.576  0.00  0.00    +0.134 A 
ATOM     21  N   UNL     1       4.774   2.314   0.549  0.00  0.00    -0.179 NA
ENDBRANCH  16  17
ENDBRANCH  14  16
ENDBRANCH   1  13
BRANCH   8  22
ATOM     22  C   UNL     1       6.545   0.702  -3.282  0.00  0.00    +0.095 C 
ATOM     23  C   UNL     1       5.669   1.117  -4.466  0.00  0.00    +0.024 C 
ATOM     24  C   UNL     1       6.153   2.462  -5.011  0.00  0.00    +0.002 C 
ATOM     25  C   UNL     1       7.607   2.333  -5.472  0.00  0.00    +0.000 C 
ATOM     26  C   UNL     1       8.482   1.918  -4.287  0.00  0.00    +0.002 C 
ATOM     27  C   UNL     1       7.998   0.573  -3.742  0.00  0.00    +0.024 C 
ENDBRANCH   8  22
TORSDOF 4
