REMARK  Name = ZINC36735723
REMARK  15 active torsions:
REMARK  status: ('A' for Active; 'I' for Inactive)
REMARK    1  A    between atoms: C_1  and  C_2
REMARK    2  A    between atoms: C_3  and  C_8
REMARK    3  A    between atoms: C_4  and  C_7
REMARK    4  A    between atoms: C_8  and  O_9
REMARK    5  A    between atoms: O_9  and  C_10
REMARK    6  A    between atoms: C_13  and  C_18
REMARK    7  A    between atoms: C_15  and  O_16
REMARK    8  A    between atoms: O_16  and  C_17
REMARK    9  A    between atoms: C_19  and  C_20
REMARK   10  A    between atoms: N_22  and  C_23
REMARK   11  A    between atoms: C_23  and  C_24
REMARK   12  A    between atoms: C_24  and  C_26
REMARK   13  A    between atoms: C_24  and  N_33
REMARK   14  A    between atoms: N_33  and  C_34
REMARK   15  A    between atoms: N_33  and  C_35
REMARK                            x       y       z     vdW  Elec       q    Type
REMARK                         _______ _______ _______ _____ _____    ______ ____
ROOT
ATOM      1  C   UNL     1       2.167   2.427  -8.408  0.00  0.00    +0.013 C 
ATOM      2  C   UNL     1       1.054   2.542  -9.162  0.00  0.00    +0.068 C 
ENDROOT
BRANCH   1   6
ATOM      3  C   UNL     1       1.835   1.732  -4.234  0.00  0.00    +0.162 A 
ATOM      4  C   UNL     1       0.690   1.851  -5.010  0.00  0.00    +0.050 A 
ATOM      5  C   UNL     1       0.793   2.076  -6.365  0.00  0.00    +0.012 A 
ATOM      6  C   UNL     1       2.054   2.187  -6.962  0.00  0.00    -0.021 A 
ATOM      7  C   UNL     1       3.207   2.067  -6.178  0.00  0.00    +0.057 A 
ATOM      8  C   UNL     1       3.095   1.846  -4.820  0.00  0.00    +0.162 A 
BRANCH   8   9
ATOM      9  O   UNL     1       4.213   1.734  -4.054  0.00  0.00    -0.491 OA
ATOM     10  C   UNL     1       5.471   1.861  -4.721  0.00  0.00    +0.277 C 
ENDBRANCH   8   9
BRANCH   3  11
ATOM     11  O   UNL     1       1.726   1.509  -2.898  0.00  0.00    -0.484 OA
BRANCH  11  12
ATOM     12  C   UNL     1       0.406   1.403  -2.363  0.00  0.00    +0.270 C 
BRANCH  12  15
ATOM     13  C   UNL     1       0.469   3.637  -0.106  0.00  0.00    +0.069 C 
ATOM     14  C   UNL     1       0.511   2.148   0.121  0.00  0.00    +0.087 A 
ATOM     15  C   UNL     1       0.484   1.158  -0.878  0.00  0.00    +0.054 A 
ATOM     16  C   UNL     1       0.539  -0.046  -0.277  0.00  0.00    +0.141 A 
ATOM     17  O   UNL     1       0.599   0.155   1.048  0.00  0.00    -0.359 OA
ATOM     18  N   UNL     1       0.586   1.552   1.278  0.00  0.00    -0.083 NA
ATOM     19  C   UNL     1       0.533  -1.383  -0.971  0.00  0.00    +0.089 C 
ENDBRANCH  12  15
ENDBRANCH  11  12
ENDBRANCH   3  11
ENDBRANCH   1   6
BRANCH   2  20
ATOM     20  C   UNL     1       1.166   2.781 -10.601  0.00  0.00    +0.237 C 
ATOM     21  O   UNL     1       2.264   2.876 -11.118  0.00  0.00    -0.271 OA
ATOM     22  N   UNL     1       0.054   2.895 -11.354  0.00  0.00    -0.313 N 
ATOM     23  H   UNL     1      -0.821   2.819 -10.942  0.00  0.00    +0.149 HD
BRANCH  22  24
ATOM     24  C   UNL     1       0.167   3.135 -12.794  0.00  0.00    +0.094 C 
BRANCH  24  25
ATOM     25  C   UNL     1      -1.225   3.096 -13.428  0.00  0.00    -0.020 C 
BRANCH  25  26
ATOM     26  C   UNL     1      -2.045   4.250 -12.910  0.00  0.00    -0.041 A 
ATOM     27  C   UNL     1      -2.888   4.068 -11.829  0.00  0.00    +0.003 A 
ATOM     28  C   UNL     1      -3.640   5.126 -11.353  0.00  0.00    +0.000 A 
ATOM     29  C   UNL     1      -3.550   6.366 -11.958  0.00  0.00    +0.001 A 
ATOM     30  C   UNL     1      -2.708   6.548 -13.039  0.00  0.00    +0.020 A 
ATOM     31  C   UNL     1      -1.951   5.491 -13.512  0.00  0.00    +0.043 A 
ATOM     32 CL   UNL     1      -0.888   5.722 -14.865  0.00  0.00    -0.083 Cl
ENDBRANCH  25  26
BRANCH  25  33
ATOM     33  N   UNL     1      -1.886   1.831 -13.082  0.00  0.00    +0.382 N 
ATOM     34  C   UNL     1      -3.205   1.775 -13.726  0.00  0.00    -0.096 C 
ATOM     35  C   UNL     1      -1.065   0.706 -13.549  0.00  0.00    -0.096 C 
ATOM     36  H   UNL     1      -1.998   1.773 -12.081  0.00  0.00    -0.082 HD
ENDBRANCH  25  33
ENDBRANCH  24  25
ENDBRANCH  22  24
ENDBRANCH   2  20
TORSDOF 10
