REMARK  Name = ZINC30679180
REMARK  7 active torsions:
REMARK  status: ('A' for Active; 'I' for Inactive)
REMARK    1  A    between atoms: C_1  and  O_2
REMARK    2  A    between atoms: O_2  and  C_3
REMARK    3  A    between atoms: C_8  and  C_9
REMARK    4  A    between atoms: C_10  and  C_11
REMARK    5  A    between atoms: N_13  and  C_14
REMARK    6  A    between atoms: C_17  and  S_20
REMARK    7  A    between atoms: S_20  and  N_23
REMARK                            x       y       z     vdW  Elec       q    Type
REMARK                         _______ _______ _______ _____ _____    ______ ____
ROOT
ATOM      1  C   UNL     1      -1.061  -7.074   1.832  0.00  0.00    +0.034 A 
ATOM      2  C   UNL     1      -1.755  -6.418   2.841  0.00  0.00    +0.025 A 
ATOM      3  C   UNL     1      -2.402  -7.148   3.819  0.00  0.00    +0.031 A 
ATOM      4  C   UNL     1      -2.360  -8.530   3.795  0.00  0.00    +0.113 A 
ATOM      5  C   UNL     1      -1.670  -9.186   2.791  0.00  0.00    +0.031 A 
ATOM      6  C   UNL     1      -1.026  -8.463   1.807  0.00  0.00    +0.025 A 
ENDROOT
BRANCH   1   9
ATOM      7  C   UNL     1      -0.359  -6.803  -0.424  0.00  0.00    +0.241 C 
ATOM      8  O   UNL     1      -0.814  -7.902  -0.686  0.00  0.00    -0.270 OA
ATOM      9  N   UNL     1      -0.405  -6.338   0.840  0.00  0.00    -0.282 N 
ATOM     10  H   UNL     1       0.016  -5.494   1.062  0.00  0.00    +0.155 HD
BRANCH   7  12
ATOM     11  C   UNL     1       0.285  -6.454  -2.747  0.00  0.00    +0.016 C 
ATOM     12  C   UNL     1       0.238  -5.989  -1.481  0.00  0.00    +0.068 C 
BRANCH  11  18
ATOM     13  C   UNL     1       0.936  -6.115  -5.128  0.00  0.00    +0.127 A 
ATOM     14  C   UNL     1       1.500  -5.331  -6.122  0.00  0.00    +0.046 A 
ATOM     15  C   UNL     1       2.013  -4.086  -5.816  0.00  0.00    +0.004 A 
ATOM     16  C   UNL     1       1.970  -3.610  -4.515  0.00  0.00    +0.001 A 
ATOM     17  C   UNL     1       1.414  -4.375  -3.513  0.00  0.00    +0.011 A 
ATOM     18  C   UNL     1       0.885  -5.636  -3.809  0.00  0.00    +0.017 A 
BRANCH  13  20
ATOM     19  C   UNL     1       0.519  -7.760  -6.791  0.00  0.00    +0.277 C 
ATOM     20  O   UNL     1       0.431  -7.339  -5.428  0.00  0.00    -0.495 OA
ENDBRANCH  13  20
ENDBRANCH  11  18
ENDBRANCH   7  12
ENDBRANCH   1   9
BRANCH   4  21
ATOM     21  S   UNL     1      -3.186  -9.457   5.045  0.00  0.00    +0.100 S 
ATOM     22  O   UNL     1      -2.540 -10.721   5.106  0.00  0.00    -0.146 OA
ATOM     23  O   UNL     1      -3.300  -8.603   6.175  0.00  0.00    -0.146 OA
BRANCH  21  24
ATOM     24  N   UNL     1      -4.727  -9.739   4.507  0.00  0.00    -0.118 NA
ATOM     25  C   UNL     1      -5.556 -10.406   5.242  0.00  0.00    +0.117 C 
ATOM     26  N   UNL     1      -5.177 -10.899   6.500  0.00  0.00    -0.331 N 
ATOM     27  C   UNL     1      -5.796 -10.304   7.649  0.00  0.00    +0.102 C 
ATOM     28  C   UNL     1      -7.118 -10.944   8.104  0.00  0.00    +0.019 C 
ATOM     29  C   UNL     1      -8.002 -11.289   6.879  0.00  0.00    +0.002 C 
ATOM     30  C   UNL     1      -7.967 -10.230   5.813  0.00  0.00    +0.008 C 
ATOM     31  C   UNL     1      -6.909 -10.667   4.796  0.00  0.00    +0.073 C 
ATOM     32  H   UNL     1      -4.524 -11.611   6.589  0.00  0.00    +0.147 HD
ENDBRANCH  21  24
ENDBRANCH   4  21
TORSDOF 6
