REMARK  Name = ZINC22011078
REMARK  6 active torsions:
REMARK  status: ('A' for Active; 'I' for Inactive)
REMARK    1  A    between atoms: C_1  and  C_2
REMARK    2  A    between atoms: C_12  and  N_17
REMARK    3  A    between atoms: C_14  and  O_16
REMARK    4  A    between atoms: C_26  and  C_40
REMARK    5  A    between atoms: C_28  and  N_34
REMARK    6  A    between atoms: C_30  and  O_33
REMARK                            x       y       z     vdW  Elec       q    Type
REMARK                         _______ _______ _______ _____ _____    ______ ____
ROOT
ATOM      1  C   UNL     1      -4.101   2.959  -0.314  0.00  0.00    +0.014 C 
ATOM      2  C   UNL     1      -4.279   1.448  -0.477  0.00  0.00    -0.005 C 
ATOM      3  C   UNL     1      -4.038   0.758   0.851  0.00  0.00    +0.010 C 
ATOM      4  C   UNL     1      -2.646   1.190   1.344  0.00  0.00    +0.005 C 
ATOM      5  C   UNL     1      -1.565   0.848   0.325  0.00  0.00    -0.001 C 
ATOM      6  C   UNL     1      -1.881   1.446  -1.055  0.00  0.00    -0.004 C 
ATOM      7  C   UNL     1      -3.231   0.902  -1.483  0.00  0.00    -0.001 C 
ATOM      8  C   UNL     1      -3.773   1.431  -2.815  0.00  0.00    -0.009 C 
ATOM      9  C   UNL     1      -5.304   1.200  -2.682  0.00  0.00    -0.039 C 
ATOM     10  C   UNL     1      -5.609   1.157  -1.164  0.00  0.00    +0.107 C 
ATOM     11  C   UNL     1      -0.797   1.019  -2.046  0.00  0.00    +0.004 C 
ATOM     12  C   UNL     1       0.561   1.539  -1.568  0.00  0.00    +0.004 C 
ATOM     13  C   UNL     1       0.876   0.954  -0.190  0.00  0.00    -0.002 C 
ATOM     14  C   UNL     1      -0.210   1.373   0.803  0.00  0.00    -0.027 C 
ATOM     15  C   UNL     1       0.107   0.785   2.181  0.00  0.00    -0.006 C 
ATOM     16  C   UNL     1       1.464   1.306   2.658  0.00  0.00    -0.039 C 
ATOM     17  C   UNL     1       2.549   0.888   1.664  0.00  0.00    +0.101 C 
ATOM     18  C   UNL     1       2.233   1.476   0.287  0.00  0.00    +0.033 C 
ATOM     19  C   UNL     1      -0.257   2.900   0.894  0.00  0.00    +0.011 C 
ENDROOT
BRANCH  16  20
ATOM     20  N   UNL     1       1.421   2.772   2.748  0.00  0.00    +0.386 N 
ATOM     21  C   UNL     1       2.771   3.329   2.924  0.00  0.00    -0.050 C 
ATOM     22  C   UNL     1       2.687   4.857   2.954  0.00  0.00    +0.141 C 
ATOM     23  O   UNL     1       1.794   5.261   3.995  0.00  0.00    -0.383 OA
ATOM     24  C   UNL     1       0.471   4.737   3.855  0.00  0.00    +0.141 C 
ATOM     25  C   UNL     1       0.532   3.207   3.835  0.00  0.00    -0.050 C 
ATOM     26  H   UNL     1       1.015   3.155   1.800  0.00  0.00    -0.081 HD
ENDBRANCH  16  20
BRANCH   9  27
ATOM     27  N   UNL     1      -6.037   2.306  -3.313  0.00  0.00    +0.383 N 
ATOM     28  C   UNL     1      -5.681   2.430  -4.750  0.00  0.00    -0.078 C 
ATOM     29  C   UNL     1      -6.870   3.227  -5.342  0.00  0.00    -0.020 C 
ATOM     30  C   UNL     1      -8.084   2.663  -4.569  0.00  0.00    -0.020 C 
ATOM     31  C   UNL     1      -7.495   2.064  -3.278  0.00  0.00    -0.078 C 
ATOM     32  H   UNL     1      -5.764   3.208  -2.745  0.00  0.00    -0.081 HD
ENDBRANCH   9  27
BRANCH  10  33
ATOM     33  O   UNL     1      -6.086  -0.137  -0.792  0.00  0.00    -0.393 OA
ATOM     34  H   UNL     1      -7.038  -0.511  -1.198  0.00  0.00    +0.210 HD
ENDBRANCH  10  33
BRANCH  17  35
ATOM     35  O   UNL     1       2.590  -0.538   1.575  0.00  0.00    -0.393 OA
ATOM     36  H   UNL     1       3.313  -1.027   0.906  0.00  0.00    +0.210 HD
ENDBRANCH  17  35
TORSDOF 4
