REMARK  Name = ZINC21231533
REMARK  12 active torsions:
REMARK  status: ('A' for Active; 'I' for Inactive)
REMARK    1  A    between atoms: C_1  and  C_2
REMARK    2  A    between atoms: C_2  and  C_3
REMARK    3  A    between atoms: C_4  and  C_33
REMARK    4  A    between atoms: C_9  and  S_21
REMARK    5  A    between atoms: N_10  and  C_13
REMARK    6  A    between atoms: C_13  and  C_14
REMARK    7  A    between atoms: C_17  and  C_20
REMARK    8  A    between atoms: S_21  and  C_22
REMARK    9  A    between atoms: C_22  and  C_24
REMARK   10  A    between atoms: C_22  and  C_27
REMARK   11  A    between atoms: C_24  and  C_25
REMARK   12  A    between atoms: C_24  and  C_26
REMARK                            x       y       z     vdW  Elec       q    Type
REMARK                         _______ _______ _______ _____ _____    ______ ____
ROOT
ATOM      1  C   UNL     1       0.523  -8.899  -0.352  0.00  0.00    -0.005 A 
ATOM      2  C   UNL     1       1.750  -8.621   0.112  0.00  0.00    -0.026 A 
ATOM      3  C   UNL     1       2.139  -7.235   0.305  0.00  0.00    +0.075 A 
ATOM      4  C   UNL     1       1.151  -6.289  -0.028  0.00  0.00    +0.117 A 
ATOM      5  S   UNL     1      -0.212  -7.289  -0.568  0.00  0.00    -0.073 S 
ATOM      6  N   UNL     1       1.353  -4.984   0.099  0.00  0.00    -0.216 NA
ATOM      7  C   UNL     1       2.505  -4.518   0.537  0.00  0.00    +0.174 A 
ATOM      8  N   UNL     1       3.518  -5.365   0.883  0.00  0.00    -0.283 N 
ATOM      9  C   UNL     1       3.376  -6.699   0.783  0.00  0.00    +0.264 A 
ATOM     10  O   UNL     1       4.291  -7.442   1.097  0.00  0.00    -0.267 OA
ATOM     11  C   UNL     1       2.715  -9.735   0.430  0.00  0.00    +0.045 C 
ENDROOT
BRANCH   1  13
ATOM     12  C   UNL     1      -0.796 -10.754   0.632  0.00  0.00    +0.009 C 
ATOM     13  C   UNL     1      -0.087 -10.249  -0.627  0.00  0.00    +0.039 C 
ENDBRANCH   1  13
BRANCH   8  14
ATOM     14  C   UNL     1       4.783  -4.811   1.372  0.00  0.00    +0.162 C 
BRANCH  14  15
ATOM     15  C   UNL     1       4.723  -4.668   2.871  0.00  0.00    -0.028 A 
ATOM     16  C   UNL     1       4.264  -3.493   3.435  0.00  0.00    +0.005 A 
ATOM     17  C   UNL     1       4.205  -3.363   4.810  0.00  0.00    +0.004 A 
ATOM     18  C   UNL     1       4.614  -4.405   5.621  0.00  0.00    -0.050 A 
ATOM     19  C   UNL     1       5.078  -5.579   5.057  0.00  0.00    +0.004 A 
ATOM     20  C   UNL     1       5.133  -5.710   3.682  0.00  0.00    +0.005 A 
ATOM     21  C   UNL     1       4.553  -4.262   7.120  0.00  0.00    +0.044 C 
ENDBRANCH  14  15
ENDBRANCH   8  14
BRANCH   7  22
ATOM     22  S   UNL     1       2.739  -2.777   0.686  0.00  0.00    -0.075 S 
BRANCH  22  23
ATOM     23  C   UNL     1       1.186  -2.189  -0.033  0.00  0.00    +0.143 C 
BRANCH  23  24
ATOM     24  C   UNL     1       1.065  -0.702   0.181  0.00  0.00    +0.234 C 
ATOM     25  O   UNL     1       2.061  -0.028   0.329  0.00  0.00    -0.274 OA
ATOM     26  N   UNL     1      -0.152  -0.122   0.207  0.00  0.00    -0.239 N 
ATOM     27  C   UNL     1      -0.260   1.207   0.398  0.00  0.00    +0.303 C 
ATOM     28  O   UNL     1       0.739   1.883   0.547  0.00  0.00    -0.253 OA
ATOM     29  N   UNL     1      -1.476   1.788   0.418  0.00  0.00    -0.313 N 
ATOM     30  H   UNL     1      -1.056  -0.734   0.072  0.00  0.00    +0.159 HD
ATOM     31  H   UNL     1      -1.565   2.874   0.575  0.00  0.00    +0.146 HD
ATOM     32  H   UNL     1      -2.380   1.177   0.279  0.00  0.00    +0.146 HD
ENDBRANCH  23  24
BRANCH  23  33
ATOM     33  C   UNL     1       1.171  -2.492  -1.533  0.00  0.00    +0.005 C 
ATOM     34  C   UNL     1      -0.195  -2.122  -2.114  0.00  0.00    +0.009 C 
ATOM     35  C   UNL     1       2.260  -1.673  -2.229  0.00  0.00    +0.009 C 
ENDBRANCH  23  33
ENDBRANCH  22  23
ENDBRANCH   7  22
TORSDOF 7
