REMARK  Name = ZINC08618015
REMARK  7 active torsions:
REMARK  status: ('A' for Active; 'I' for Inactive)
REMARK    1  A    between atoms: C_2  and  C_3
REMARK    2  A    between atoms: C_3  and  N_9
REMARK    3  A    between atoms: N_9  and  S_10
REMARK    4  A    between atoms: S_10  and  C_13
REMARK    5  A    between atoms: C_16  and  S_22
REMARK    6  A    between atoms: C_17  and  N_19
REMARK    7  A    between atoms: S_22  and  C_23
REMARK                            x       y       z     vdW  Elec       q    Type
REMARK                         _______ _______ _______ _____ _____    ______ ____
ROOT
ATOM      1  C   UNL     1       2.690  -0.151   1.098  0.00  0.00    +0.108 A 
ATOM      2  C   UNL     1       1.958  -0.979   1.930  0.00  0.00    +0.030 A 
ATOM      3  C   UNL     1       2.147  -2.346   1.887  0.00  0.00    +0.019 A 
ATOM      4  C   UNL     1       3.083  -2.889   1.014  0.00  0.00    +0.043 A 
ATOM      5  C   UNL     1       3.820  -2.054   0.184  0.00  0.00    +0.142 A 
ATOM      6  C   UNL     1       3.621  -0.689   0.228  0.00  0.00    +0.062 A 
ENDROOT
BRANCH   1   7
ATOM      7  S   UNL     1       2.441   1.592   1.152  0.00  0.00    +0.060 S 
ATOM      8  O   UNL     1       3.638   2.188   0.671  0.00  0.00    -0.153 OA
ATOM      9  O   UNL     1       1.906   1.886   2.435  0.00  0.00    -0.153 OA
BRANCH   7  10
ATOM     10  N   UNL     1       1.257   1.952   0.052  0.00  0.00    -0.172 NA
ATOM     11  H   UNL     1       1.466   2.493  -0.725  0.00  0.00    +0.150 HD
BRANCH  10  12
ATOM     12  C   UNL     1      -0.105   1.452   0.252  0.00  0.00    +0.100 C 
ATOM     13  C   UNL     1      -0.656   1.988   1.575  0.00  0.00    +0.037 C 
ATOM     14  C   UNL     1      -2.079   1.466   1.784  0.00  0.00    +0.003 C 
ATOM     15  C   UNL     1      -2.969   1.938   0.633  0.00  0.00    +0.000 C 
ATOM     16  C   UNL     1      -2.419   1.402  -0.690  0.00  0.00    +0.003 C 
ATOM     17  C   UNL     1      -0.996   1.924  -0.899  0.00  0.00    +0.037 C 
BRANCH  12  19
ATOM     18  C   UNL     1      -0.074  -1.193   0.316  0.00  0.00    +0.006 C 
ATOM     19  C   UNL     1      -0.088  -0.019   0.287  0.00  0.00    -0.082 C 
ENDBRANCH  12  19
ENDBRANCH  10  12
ENDBRANCH   7  10
ENDBRANCH   1   7
BRANCH   5  20
ATOM     20  N   UNL     1       4.817  -2.628  -0.748  0.00  0.00    +0.058 N 
ATOM     21  O   UNL     1       5.462  -1.896  -1.476  0.00  0.00    -0.126 OA
ATOM     22  O   UNL     1       4.991  -3.833  -0.787  0.00  0.00    -0.126 OA
ENDBRANCH   5  20
BRANCH   4  23
ATOM     23  S   UNL     1       3.332  -4.633   0.961  0.00  0.00    -0.087 S 
BRANCH  23  24
ATOM     24  C   UNL     1       4.830  -4.877   1.856  0.00  0.00    +0.013 A 
ATOM     25  C   UNL     1       5.439  -3.806   2.498  0.00  0.00    +0.016 A 
ATOM     26  C   UNL     1       6.609  -4.002   3.205  0.00  0.00    +0.021 A 
ATOM     27  C   UNL     1       7.182  -5.260   3.263  0.00  0.00    +0.041 A 
ATOM     28  C   UNL     1       6.580  -6.328   2.620  0.00  0.00    +0.021 A 
ATOM     29  C   UNL     1       5.407  -6.139   1.917  0.00  0.00    +0.016 A 
ATOM     30 CL   UNL     1       8.658  -5.501   4.146  0.00  0.00    -0.084 Cl
ENDBRANCH  23  24
ENDBRANCH   4  23
TORSDOF 7
