REMARK  Name = ZINC41025714
REMARK  5 active torsions:
REMARK  status: ('A' for Active; 'I' for Inactive)
REMARK    1  A    between atoms: C_4  and  C_7
REMARK    2  A    between atoms: C_7  and  C_8
REMARK    3  A    between atoms: C_8  and  N_9
REMARK    4  A    between atoms: C_10  and  C_12
REMARK    5  A    between atoms: C_16  and  N_17
REMARK                            x       y       z     vdW  Elec       q    Type
REMARK                         _______ _______ _______ _____ _____    ______ ____
ROOT
ATOM      1  C   UNL     1       7.329  -2.728   2.524  0.00  0.00    +0.069 A 
ATOM      2  C   UNL     1       8.603  -2.010   2.520  0.00  0.00    -0.023 A 
ATOM      3  C   UNL     1       9.683  -2.811   2.503  0.00  0.00    -0.004 A 
ATOM      4  S   UNL     1       9.022  -4.458   2.496  0.00  0.00    -0.077 S 
ATOM      5  C   UNL     1       7.381  -4.111   2.517  0.00  0.00    +0.084 A 
ATOM      6  C   UNL     1      10.965  -2.023   2.495  0.00  0.00    +0.043 C 
ATOM      7  C   UNL     1      10.544  -0.597   2.077  0.00  0.00    +0.010 C 
ATOM      8  C   UNL     1       9.071  -0.557   2.533  0.00  0.00    +0.037 C 
ENDROOT
BRANCH   5   9
ATOM      9  N   UNL     1       6.323  -5.003   2.524  0.00  0.00    -0.292 N 
ATOM     10  C   UNL     1       6.566  -6.367   2.515  0.00  0.00    +0.154 A 
ATOM     11  C   UNL     1       5.503  -7.286   2.516  0.00  0.00    +0.148 A 
ATOM     12  C   UNL     1       5.813  -8.657   2.506  0.00  0.00    +0.163 A 
ATOM     13  N   UNL     1       4.610  -9.316   2.509  0.00  0.00    -0.329 N 
ATOM     14  H   UNL     1       4.482 -10.278   2.505  0.00  0.00    +0.168 HD
ATOM     15  C   UNL     1       3.627  -8.372   2.520  0.00  0.00    +0.198 A 
ATOM     16  N   UNL     1       4.153  -7.182   2.524  0.00  0.00    -0.231 NA
ATOM     17  N   UNL     1       7.088  -9.031   2.497  0.00  0.00    -0.216 NA
ATOM     18  C   UNL     1       8.051  -8.134   2.497  0.00  0.00    +0.225 A 
ATOM     19  N   UNL     1       7.809  -6.835   2.500  0.00  0.00    -0.218 NA
ATOM     20  H   UNL     1       5.411  -4.673   2.535  0.00  0.00    +0.154 HD
ENDBRANCH   5   9
BRANCH   1  22
ATOM     21  N   UNL     1       5.450  -1.678   1.382  0.00  0.00    -0.311 N 
ATOM     22  C   UNL     1       6.050  -2.013   2.541  0.00  0.00    +0.247 C 
ATOM     23  O   UNL     1       5.530  -1.721   3.602  0.00  0.00    -0.270 OA
ATOM     24  H   UNL     1       5.864  -1.911   0.536  0.00  0.00    +0.149 HD
BRANCH  21  25
ATOM     25  C   UNL     1       4.171  -0.963   1.399  0.00  0.00    +0.109 C 
BRANCH  25  26
ATOM     26  C   UNL     1       3.711  -0.707  -0.038  0.00  0.00    +0.054 C 
BRANCH  26  30
ATOM     27  C   UNL     1      -0.017   1.378   0.010  0.00  0.00    +0.000 A 
ATOM     28  C   UNL     1       1.171   2.086   0.002  0.00  0.00    +0.000 A 
ATOM     29  C   UNL     1       2.377   1.411  -0.013  0.00  0.00    +0.004 A 
ATOM     30  C   UNL     1       2.396   0.029  -0.020  0.00  0.00    -0.046 A 
ATOM     31  C   UNL     1       1.208  -0.679  -0.012  0.00  0.00    +0.004 A 
ATOM     32  C   UNL     1       0.002  -0.004   0.002  0.00  0.00    +0.000 A 
ENDBRANCH  26  30
ENDBRANCH  25  26
ENDBRANCH  21  25
ENDBRANCH   1  22
TORSDOF 5
