REMARK  Name = ZINC20856943
REMARK  7 active torsions:
REMARK  status: ('A' for Active; 'I' for Inactive)
REMARK    1  A    between atoms: C_1  and  C_2
REMARK    2  A    between atoms: C_2  and  N_3
REMARK    3  A    between atoms: C_12  and  S_13
REMARK    4  A    between atoms: S_13  and  C_14
REMARK    5  A    between atoms: C_14  and  C_15
REMARK    6  A    between atoms: N_17  and  C_18
REMARK    7  A    between atoms: C_26  and  C_30
REMARK                            x       y       z     vdW  Elec       q    Type
REMARK                         _______ _______ _______ _____ _____    ______ ____
ROOT
ATOM      1  N   UNL     1      -2.108   1.093   1.316  0.00  0.00    -0.288 N 
ATOM      2  C   UNL     1      -3.087   1.828   0.756  0.00  0.00    +0.263 A 
ATOM      3  O   UNL     1      -2.834   2.905   0.243  0.00  0.00    -0.267 OA
ATOM      4  C   UNL     1      -4.426   1.326   0.767  0.00  0.00    +0.076 A 
ATOM      5  C   UNL     1      -5.633   1.948   0.218  0.00  0.00    -0.023 A 
ATOM      6  C   UNL     1      -6.790   1.270   0.360  0.00  0.00    -0.004 A 
ATOM      7  S   UNL     1      -6.351  -0.215   1.222  0.00  0.00    -0.073 S 
ATOM      8  C   UNL     1      -4.608   0.079   1.389  0.00  0.00    +0.117 A 
ATOM      9  N   UNL     1      -3.599  -0.595   1.929  0.00  0.00    -0.216 NA
ATOM     10  C   UNL     1      -2.373  -0.112   1.900  0.00  0.00    +0.173 A 
ATOM     11  C   UNL     1      -8.150   1.688  -0.110  0.00  0.00    +0.046 C 
ATOM     12  C   UNL     1      -8.104   3.182  -0.459  0.00  0.00    -0.009 C 
ATOM     13  C   UNL     1      -6.871   3.446  -1.329  0.00  0.00    +0.008 C 
ATOM     14  C   UNL     1      -5.603   3.300  -0.488  0.00  0.00    +0.037 C 
ATOM     15  C   UNL     1      -9.370   3.569  -1.227  0.00  0.00    +0.008 C 
ENDROOT
BRANCH   1  17
ATOM     16  C   UNL     1      -0.023   1.112   0.038  0.00  0.00    +0.027 C 
ATOM     17  C   UNL     1      -0.733   1.598   1.303  0.00  0.00    +0.124 C 
ENDBRANCH   1  17
BRANCH  10  18
ATOM     18  S   UNL     1      -1.059  -1.034   2.626  0.00  0.00    -0.078 S 
BRANCH  18  19
ATOM     19  C   UNL     1      -1.976  -2.478   3.216  0.00  0.00    +0.173 C 
BRANCH  19  20
ATOM     20  C   UNL     1      -1.028  -3.434   3.892  0.00  0.00    +0.228 C 
ATOM     21  O   UNL     1       0.153  -3.166   3.967  0.00  0.00    -0.275 OA
ATOM     22  N   UNL     1      -1.491  -4.588   4.413  0.00  0.00    -0.284 N 
ATOM     23  H   UNL     1      -2.571  -4.797   4.411  0.00  0.00    +0.155 HD
BRANCH  22  24
ATOM     24  C   UNL     1      -0.598  -5.518   4.957  0.00  0.00    +0.047 A 
ATOM     25  C   UNL     1       0.542  -5.083   5.620  0.00  0.00    +0.024 A 
ATOM     26  C   UNL     1       1.419  -6.004   6.159  0.00  0.00    +0.002 A 
ATOM     27  C   UNL     1       1.168  -7.358   6.031  0.00  0.00    +0.001 A 
ATOM     28  C   UNL     1       0.036  -7.795   5.368  0.00  0.00    +0.017 A 
ATOM     29  C   UNL     1      -0.848  -6.879   4.830  0.00  0.00    +0.039 A 
ATOM     30 BR   UNL     1      -2.395  -7.477   3.922  0.00  0.00    -0.048 Br
ENDBRANCH  22  24
ENDBRANCH  19  20
ENDBRANCH  18  19
ENDBRANCH  10  18
TORSDOF 5
