REMARK  Name = ZINC42994441
REMARK  10 active torsions:
REMARK  status: ('A' for Active; 'I' for Inactive)
REMARK    1  A    between atoms: C_1  and  C_2
REMARK    2  A    between atoms: C_2  and  C_3
REMARK    3  A    between atoms: C_3  and  C_4
REMARK    4  A    between atoms: C_4  and  C_5
REMARK    5  A    between atoms: C_5  and  C_6
REMARK    6  A    between atoms: C_6  and  C_8
REMARK    7  A    between atoms: C_6  and  N_9
REMARK    8  A    between atoms: N_12  and  N_13
REMARK    9  A    between atoms: C_14  and  C_16
REMARK   10  A    between atoms: N_25  and  C_27
REMARK                            x       y       z     vdW  Elec       q    Type
REMARK                         _______ _______ _______ _____ _____    ______ ____
ROOT
ATOM      1  N   UNL     1      -1.118  -5.476   3.582  0.00  0.00    -0.228 N 
ATOM      2  C   UNL     1      -0.564  -5.924   4.726  0.00  0.00    +0.281 C 
ATOM      3  O   UNL     1      -0.038  -7.019   4.758  0.00  0.00    -0.267 OA
ATOM      4  H   UNL     1      -1.538  -4.602   3.557  0.00  0.00    +0.173 HD
ENDROOT
BRANCH   2   5
ATOM      5  C   UNL     1      -0.596  -5.085   5.940  0.00  0.00    +0.155 A 
ATOM      6  C   UNL     1       0.011  -5.563   7.193  0.00  0.00    +0.020 A 
ATOM      7  C   UNL     1       0.635  -6.801   7.303  0.00  0.00    +0.011 A 
ATOM      8  C   UNL     1       1.181  -7.179   8.511  0.00  0.00    +0.001 A 
ATOM      9  C   UNL     1       1.115  -6.339   9.615  0.00  0.00    +0.001 A 
ATOM     10  C   UNL     1       0.501  -5.107   9.527  0.00  0.00    +0.014 A 
ATOM     11  C   UNL     1      -0.056  -4.707   8.317  0.00  0.00    +0.050 A 
ATOM     12  C   UNL     1      -0.728  -3.413   8.136  0.00  0.00    +0.275 A 
ATOM     13  O   UNL     1      -0.823  -2.626   9.059  0.00  0.00    -0.266 OA
ATOM     14  N   UNL     1      -1.237  -3.118   6.922  0.00  0.00    -0.231 N 
ATOM     15  N   UNL     1      -1.162  -3.902   5.914  0.00  0.00    -0.163 NA
ATOM     16  C   UNL     1      -1.906  -1.826   6.747  0.00  0.00    +0.176 C 
ENDBRANCH   2   5
BRANCH   1  20
ATOM     17  N   UNL     1      -2.225  -4.610   1.250  0.00  0.00    -0.296 N 
ATOM     18  C   UNL     1      -1.641  -5.824   1.286  0.00  0.00    +0.316 C 
ATOM     19  O   UNL     1      -1.615  -6.516   0.286  0.00  0.00    -0.251 OA
ATOM     20  N   UNL     1      -1.087  -6.272   2.430  0.00  0.00    -0.218 N 
ATOM     21  H   UNL     1      -2.246  -4.058   2.048  0.00  0.00    +0.151 HD
ATOM     22  H   UNL     1      -0.667  -7.146   2.456  0.00  0.00    +0.174 HD
BRANCH  17  23
ATOM     23  C   UNL     1      -2.827  -4.123   0.007  0.00  0.00    +0.071 C 
ATOM     24  C   UNL     1      -4.258  -4.652  -0.108  0.00  0.00    +0.028 C 
BRANCH  23  25
ATOM     25  C   UNL     1      -2.848  -2.593   0.015  0.00  0.00    +0.022 C 
BRANCH  25  26
ATOM     26  C   UNL     1      -1.413  -2.063   0.004  0.00  0.00    +0.002 C 
BRANCH  26  27
ATOM     27  C   UNL     1      -1.433  -0.534   0.013  0.00  0.00    -0.000 C 
BRANCH  27  29
ATOM     28  C   UNL     1      -0.019   1.526   0.010  0.00  0.00    +0.004 C 
ATOM     29  C   UNL     1       0.002  -0.004   0.002  0.00  0.00    -0.003 C 
ENDBRANCH  27  29
ENDBRANCH  26  27
ENDBRANCH  25  26
ENDBRANCH  23  25
ENDBRANCH  17  23
ENDBRANCH   1  20
TORSDOF 7
