REMARK  Name = ZINC49460605
REMARK  4 active torsions:
REMARK  status: ('A' for Active; 'I' for Inactive)
REMARK    1  A    between atoms: C_3  and  N_9
REMARK    2  A    between atoms: C_6  and  C_7
REMARK    3  A    between atoms: C_10  and  C_12
REMARK    4  A    between atoms: C_12  and  C_13
REMARK                            x       y       z     vdW  Elec       q    Type
REMARK                         _______ _______ _______ _____ _____    ______ ____
ROOT
ATOM      1  C   UNL     1       7.207   1.306   0.265  0.00  0.00    +0.059 A 
ATOM      2  C   UNL     1       8.249   1.380  -0.598  0.00  0.00    +0.072 A 
ATOM      3  S   UNL     1       9.261   0.030  -0.014  0.00  0.00    -0.060 S 
ATOM      4  C   UNL     1       8.268  -0.478   1.246  0.00  0.00    +0.164 A 
ATOM      5  N   UNL     1       7.254   0.359   1.184  0.00  0.00    -0.229 NA
ATOM      6  N   UNL     1       8.471  -1.522   2.136  0.00  0.00    -0.279 N 
ATOM      7  C   UNL     1       9.667  -2.234   2.113  0.00  0.00    +0.124 A 
ATOM      8  C   UNL     1       9.909  -3.206   3.078  0.00  0.00    +0.045 A 
ATOM      9  C   UNL     1      11.101  -3.906   3.044  0.00  0.00    +0.025 A 
ATOM     10  C   UNL     1      12.016  -3.609   2.041  0.00  0.00    +0.059 A 
ATOM     11  C   UNL     1      11.710  -2.631   1.115  0.00  0.00    +0.132 A 
ATOM     12  N   UNL     1      10.561  -1.983   1.169  0.00  0.00    -0.239 NA
ATOM     13 CL   UNL     1      13.528  -4.458   1.953  0.00  0.00    -0.082 Cl
ATOM     14  H   UNL     1       7.779  -1.756   2.775  0.00  0.00    +0.155 HD
ENDROOT
BRANCH   1  15
ATOM     15  C   UNL     1       6.048   2.266   0.182  0.00  0.00    +0.152 C 
BRANCH  15  17
ATOM     16  N   UNL     1       3.585   2.144  -0.015  0.00  0.00    -0.285 N 
ATOM     17  C   UNL     1       4.760   1.490   0.071  0.00  0.00    +0.223 C 
ATOM     18  O   UNL     1       4.782   0.278   0.060  0.00  0.00    -0.275 OA
ATOM     19  H   UNL     1       3.572   3.112  -0.081  0.00  0.00    +0.155 HD
BRANCH  16  22
ATOM     20  C   UNL     1       1.101  -0.453   0.736  0.00  0.00    +0.020 A 
ATOM     21  C   UNL     1       2.282   0.256   0.728  0.00  0.00    +0.024 A 
ATOM     22  C   UNL     1       2.387   1.429  -0.011  0.00  0.00    +0.033 A 
ATOM     23  C   UNL     1       1.299   1.893  -0.744  0.00  0.00    +0.024 A 
ATOM     24  C   UNL     1       0.115   1.190  -0.741  0.00  0.00    +0.020 A 
ATOM     25  C   UNL     1       0.007   0.010  -0.001  0.00  0.00    +0.052 A 
BRANCH  25  26
ATOM     26  C   UNL     1      -1.223  -0.724   0.004  0.00  0.00    +0.099 C 
ATOM     27  N   UNL     1      -2.198  -1.307   0.008  0.00  0.00    -0.191 NA
ENDBRANCH  25  26
ENDBRANCH  16  22
ENDBRANCH  15  17
ENDBRANCH   1  15
TORSDOF 4
