REMARK  Name = ZINC09981815
REMARK  9 active torsions:
REMARK  status: ('A' for Active; 'I' for Inactive)
REMARK    1  A    between atoms: C_1  and  C_2
REMARK    2  A    between atoms: C_2  and  C_3
REMARK    3  A    between atoms: C_6  and  C_9
REMARK    4  A    between atoms: C_9  and  C_11
REMARK    5  A    between atoms: C_9  and  N_16
REMARK    6  A    between atoms: C_17  and  C_19
REMARK    7  A    between atoms: C_19  and  C_20
REMARK    8  A    between atoms: C_20  and  C_22
REMARK    9  A    between atoms: C_20  and  N_28
REMARK                            x       y       z     vdW  Elec       q    Type
REMARK                         _______ _______ _______ _____ _____    ______ ____
ROOT
ATOM      1  N   UNL     1       1.202   6.564  -2.267  0.00  0.00    -0.304 N 
ATOM      2  C   UNL     1       1.077   5.751  -1.200  0.00  0.00    +0.216 C 
ATOM      3  O   UNL     1       0.730   6.204  -0.130  0.00  0.00    -0.276 OA
ATOM      4  H   UNL     1       1.480   6.202  -3.123  0.00  0.00    +0.150 HD
ENDROOT
BRANCH   1   5
ATOM      5  C   UNL     1       0.920   7.996  -2.135  0.00  0.00    +0.140 C 
BRANCH   5   9
ATOM      6  C   UNL     1      -0.183   9.588  -5.941  0.00  0.00    -0.048 A 
ATOM      7  C   UNL     1      -0.847  10.001  -4.801  0.00  0.00    +0.004 A 
ATOM      8  C   UNL     1      -0.490   9.485  -3.569  0.00  0.00    +0.006 A 
ATOM      9  C   UNL     1       0.530   8.557  -3.478  0.00  0.00    -0.022 A 
ATOM     10  C   UNL     1       1.198   8.149  -4.617  0.00  0.00    +0.006 A 
ATOM     11  C   UNL     1       0.837   8.661  -5.850  0.00  0.00    +0.004 A 
BRANCH   6  13
ATOM     12  C   UNL     1       0.252  11.408  -7.569  0.00  0.00    +0.009 C 
ATOM     13  C   UNL     1      -0.572  10.151  -7.284  0.00  0.00    +0.032 C 
ENDBRANCH   6  13
ENDBRANCH   5   9
BRANCH   5  14
ATOM     14  C   UNL     1       2.150   8.706  -1.631  0.00  0.00    +0.014 A 
ATOM     15  C   UNL     1       2.244   9.714  -0.729  0.00  0.00    +0.013 A 
ATOM     16  C   UNL     1       3.493  10.214  -0.412  0.00  0.00    +0.008 A 
ATOM     17  C   UNL     1       4.585   9.690  -1.019  0.00  0.00    +0.045 A 
ATOM     18  S   UNL     1       3.860   8.443  -2.071  0.00  0.00    -0.099 S 
ENDBRANCH   5  14
ENDBRANCH   1   5
BRANCH   2  19
ATOM     19  C   UNL     1       1.367   4.279  -1.336  0.00  0.00    +0.123 C 
BRANCH  19  20
ATOM     20  C   UNL     1       1.150   3.589   0.012  0.00  0.00    +0.113 C 
BRANCH  20  21
ATOM     21  N   UNL     1       2.130   4.089   0.980  0.00  0.00    -0.292 N 
ATOM     22  C   UNL     1       3.445   3.867   0.784  0.00  0.00    +0.298 C 
ATOM     23  O   UNL     1       3.825   3.336  -0.241  0.00  0.00    -0.253 OA
ATOM     24  N   UNL     1       4.337   4.235   1.724  0.00  0.00    -0.313 N 
ATOM     25  H   UNL     1       1.832   4.580   1.762  0.00  0.00    +0.151 HD
ATOM     26  H   UNL     1       4.034   4.659   2.542  0.00  0.00    +0.146 HD
ATOM     27  H   UNL     1       5.284   4.075   1.583  0.00  0.00    +0.146 HD
ENDBRANCH  20  21
BRANCH  20  28
ATOM     28  C   UNL     1       1.321   2.100  -0.152  0.00  0.00    -0.027 A 
ATOM     29  C   UNL     1       1.666   1.320   0.936  0.00  0.00    +0.005 A 
ATOM     30  C   UNL     1       1.822  -0.045   0.786  0.00  0.00    +0.000 A 
ATOM     31  C   UNL     1       1.633  -0.630  -0.452  0.00  0.00    +0.000 A 
ATOM     32  C   UNL     1       1.288   0.150  -1.540  0.00  0.00    +0.000 A 
ATOM     33  C   UNL     1       1.132   1.515  -1.390  0.00  0.00    +0.005 A 
ENDBRANCH  20  28
ENDBRANCH  19  20
ENDBRANCH   2  19
TORSDOF 8
