REMARK  Name = ZINC39696814
REMARK  7 active torsions:
REMARK  status: ('A' for Active; 'I' for Inactive)
REMARK    1  A    between atoms: C_1  and  N_2
REMARK    2  A    between atoms: C_6  and  C_9
REMARK    3  A    between atoms: C_9  and  N_10
REMARK    4  A    between atoms: C_11  and  C_13
REMARK    5  A    between atoms: C_24  and  C_26
REMARK    6  A    between atoms: C_30  and  O_31
REMARK    7  A    between atoms: O_31  and  C_32
REMARK                            x       y       z     vdW  Elec       q    Type
REMARK                         _______ _______ _______ _____ _____    ______ ____
ROOT
ATOM      1  C   UNL     1       2.268  -6.257   3.113  0.00  0.00    +0.100 C 
ATOM      2  C   UNL     1       0.888  -6.951   3.133  0.00  0.00    +0.121 C 
ATOM      3  N   UNL     1       1.111  -8.207   3.888  0.00  0.00    -0.296 N 
ATOM      4  C   UNL     1       2.031  -7.819   4.984  0.00  0.00    +0.115 C 
ATOM      5  C   UNL     1       3.015  -6.828   4.330  0.00  0.00    -0.004 C 
ATOM      6  C   UNL     1       3.365  -5.711   5.308  0.00  0.00    -0.010 C 
ATOM      7  C   UNL     1       4.158  -6.295   6.481  0.00  0.00    -0.082 C 
ATOM      8  N   UNL     1       5.381  -6.933   5.978  0.00  0.00    +0.379 N 
ATOM      9  C   UNL     1       5.034  -8.066   5.111  0.00  0.00    -0.082 C 
ATOM     10  C   UNL     1       4.278  -7.557   3.881  0.00  0.00    -0.010 C 
ATOM     11  C   UNL     1       0.594  -9.425   3.635  0.00  0.00    +0.251 C 
ATOM     12  O   UNL     1      -0.072  -9.608   2.634  0.00  0.00    -0.270 OA
ATOM     13  H   UNL     1       5.918  -6.261   5.451  0.00  0.00    -0.086 HD
ATOM     14  H   UNL     1       5.931  -7.263   6.756  0.00  0.00    -0.086 HD
ENDROOT
BRANCH  11  15
ATOM     15  C   UNL     1       0.836 -10.535   4.570  0.00  0.00    +0.087 A 
ATOM     16  C   UNL     1       0.921 -10.327   5.930  0.00  0.00    +0.063 A 
ATOM     17  S   UNL     1       1.200 -11.855   6.565  0.00  0.00    -0.081 S 
ATOM     18  C   UNL     1       1.214 -12.818   5.069  0.00  0.00    +0.120 A 
ATOM     19  C   UNL     1       0.991 -11.895   4.107  0.00  0.00    +0.158 A 
ATOM     20 CL   UNL     1       1.450 -14.529   4.889  0.00  0.00    -0.072 Cl
BRANCH  19  21
ATOM     21  O   UNL     1       0.920 -12.224   2.787  0.00  0.00    -0.492 OA
ATOM     22  C   UNL     1       2.142 -12.200   2.047  0.00  0.00    +0.277 C 
ENDBRANCH  19  21
ENDBRANCH  11  15
BRANCH   1  24
ATOM     23  N   UNL     1       3.095  -3.941   2.849  0.00  0.00    -0.313 N 
ATOM     24  C   UNL     1       2.107  -4.765   3.250  0.00  0.00    +0.218 C 
ATOM     25  O   UNL     1       1.088  -4.306   3.720  0.00  0.00    -0.275 OA
ATOM     26  H   UNL     1       3.910  -4.308   2.473  0.00  0.00    +0.149 HD
BRANCH  23  27
ATOM     27  C   UNL     1       2.938  -2.490   2.982  0.00  0.00    +0.137 C 
BRANCH  27  33
ATOM     28  C   UNL     1       5.218   1.833   2.396  0.00  0.00    +0.105 C 
ATOM     29  N   UNL     1       5.257   0.389   2.131  0.00  0.00    -0.301 NA
ATOM     30  C   UNL     1       5.358   0.121   0.689  0.00  0.00    +0.112 C 
ATOM     31  C   UNL     1       5.457  -1.390   0.462  0.00  0.00    +0.175 C 
ATOM     32  O   UNL     1       4.323  -2.031   1.053  0.00  0.00    -0.372 OA
ATOM     33  C   UNL     1       4.195  -1.791   2.458  0.00  0.00    +0.149 C 
ATOM     34  C   UNL     1       4.083  -0.285   2.705  0.00  0.00    +0.117 C 
ENDBRANCH  27  33
ENDBRANCH  23  27
ENDBRANCH   1  24
TORSDOF 5
