REMARK  Name = ZINC46076189
REMARK  9 active torsions:
REMARK  status: ('A' for Active; 'I' for Inactive)
REMARK    1  A    between atoms: C_1  and  C_2
REMARK    2  A    between atoms: C_2  and  C_3
REMARK    3  A    between atoms: C_3  and  C_4
REMARK    4  A    between atoms: C_4  and  O_5
REMARK    5  A    between atoms: O_5  and  C_6
REMARK    6  A    between atoms: C_9  and  C_12
REMARK    7  A    between atoms: C_22  and  C_23
REMARK    8  A    between atoms: C_26  and  O_29
REMARK    9  A    between atoms: O_29  and  C_30
REMARK                            x       y       z     vdW  Elec       q    Type
REMARK                         _______ _______ _______ _____ _____    ______ ____
ROOT
ATOM      1  C   UNL     1       1.846  -8.063  -3.114  0.00  0.00    +0.066 C 
ATOM      2  C   UNL     1       3.326  -8.460  -3.192  0.00  0.00    +0.109 C 
ATOM      3  C   UNL     1       3.890  -8.139  -4.547  0.00  0.00    +0.218 C 
ATOM      4  O   UNL     1       5.026  -7.720  -4.617  0.00  0.00    -0.275 OA
ATOM      5  N   UNL     1       3.193  -8.295  -5.686  0.00  0.00    -0.284 N 
ATOM      6  C   UNL     1       1.800  -8.578  -5.605  0.00  0.00    +0.052 A 
ATOM      7  C   UNL     1       1.185  -8.470  -4.391  0.00  0.00    +0.019 A 
ATOM      8  S   UNL     1      -0.497  -8.910  -4.710  0.00  0.00    -0.098 S 
ATOM      9  C   UNL     1      -0.368  -9.199  -6.467  0.00  0.00    +0.055 A 
ATOM     10  C   UNL     1       0.955  -8.957  -6.713  0.00  0.00    +0.011 A 
ATOM     11  H   UNL     1       3.631  -8.215  -6.548  0.00  0.00    +0.155 HD
ENDROOT
BRANCH   1  15
ATOM     12  C   UNL     1       1.514  -3.833  -2.603  0.00  0.00    +0.121 A 
ATOM     13  C   UNL     1       0.980  -4.692  -1.654  0.00  0.00    +0.046 A 
ATOM     14  C   UNL     1       1.088  -6.059  -1.821  0.00  0.00    +0.008 A 
ATOM     15  C   UNL     1       1.729  -6.571  -2.934  0.00  0.00    -0.039 A 
ATOM     16  C   UNL     1       2.262  -5.718  -3.882  0.00  0.00    +0.008 A 
ATOM     17  C   UNL     1       2.151  -4.350  -3.722  0.00  0.00    +0.046 A 
BRANCH  12  18
ATOM     18  O   UNL     1       1.408  -2.488  -2.441  0.00  0.00    -0.492 OA
BRANCH  18  19
ATOM     19  C   UNL     1       0.739  -2.027  -1.265  0.00  0.00    +0.229 C 
BRANCH  19  20
ATOM     20  C   UNL     1       0.718  -0.497  -1.257  0.00  0.00    +0.041 C 
BRANCH  20  22
ATOM     21  C   UNL     1      -0.019   1.526   0.010  0.00  0.00    +0.004 C 
ATOM     22  C   UNL     1       0.002  -0.004   0.002  0.00  0.00    -0.000 C 
ENDBRANCH  20  22
ENDBRANCH  19  20
ENDBRANCH  18  19
ENDBRANCH  12  18
ENDBRANCH   1  15
BRANCH  10  23
ATOM     23  C   UNL     1       1.510  -9.081  -8.083  0.00  0.00    -0.015 A 
ATOM     24  C   UNL     1       2.284  -8.053  -8.619  0.00  0.00    +0.012 A 
ATOM     25  C   UNL     1       2.799  -8.171  -9.893  0.00  0.00    +0.046 A 
ATOM     26  C   UNL     1       2.545  -9.312 -10.643  0.00  0.00    +0.120 A 
ATOM     27  C   UNL     1       1.774 -10.337 -10.112  0.00  0.00    +0.046 A 
ATOM     28  C   UNL     1       1.262 -10.227  -8.836  0.00  0.00    +0.012 A 
BRANCH  26  29
ATOM     29  O   UNL     1       3.053  -9.425 -11.898  0.00  0.00    -0.495 OA
ATOM     30  C   UNL     1       2.753 -10.626 -12.613  0.00  0.00    +0.277 C 
ENDBRANCH  26  29
ENDBRANCH  10  23
TORSDOF 7
