REMARK  Name = ZINC03303497
REMARK  10 active torsions:
REMARK  status: ('A' for Active; 'I' for Inactive)
REMARK    1  A    between atoms: C_1  and  C_2
REMARK    2  A    between atoms: C_9  and  N_14
REMARK    3  A    between atoms: C_10  and  C_11
REMARK    4  A    between atoms: C_15  and  C_17
REMARK    5  A    between atoms: C_17  and  O_18
REMARK    6  A    between atoms: O_18  and  C_19
REMARK    7  A    between atoms: C_19  and  C_21
REMARK    8  A    between atoms: C_21  and  C_22
REMARK    9  A    between atoms: C_22  and  C_23
REMARK   10  A    between atoms: C_23  and  C_24
REMARK                            x       y       z     vdW  Elec       q    Type
REMARK                         _______ _______ _______ _____ _____    ______ ____
ROOT
ATOM      1  N   UNL     1      -0.944   1.715  -8.536  0.00  0.00    -0.277 N 
ATOM      2  C   UNL     1      -0.415   1.354  -7.350  0.00  0.00    +0.255 C 
ATOM      3  O   UNL     1       0.584   0.667  -7.315  0.00  0.00    -0.272 OA
ATOM      4  H   UNL     1      -1.743   2.264  -8.563  0.00  0.00    +0.155 HD
ENDROOT
BRANCH   1  12
ATOM      5  C   UNL     1       2.785  -0.741 -14.958  0.00  0.00    +0.008 C 
ATOM      6  C   UNL     1       2.002   0.145 -13.987  0.00  0.00    -0.009 C 
ATOM      7  C   UNL     1       0.521   0.146 -14.375  0.00  0.00    +0.008 C 
ATOM      8  C   UNL     1      -0.226   1.213 -13.572  0.00  0.00    +0.037 C 
ATOM      9  C   UNL     1       0.073   1.012 -12.091  0.00  0.00    -0.023 A 
ATOM     10  C   UNL     1       1.136   0.282 -11.689  0.00  0.00    -0.004 A 
ATOM     11  S   UNL     1       1.073   0.328  -9.921  0.00  0.00    -0.077 S 
ATOM     12  C   UNL     1      -0.345   1.302  -9.716  0.00  0.00    +0.084 A 
ATOM     13  C   UNL     1      -0.739   1.565 -11.021  0.00  0.00    +0.068 A 
ATOM     14  C   UNL     1       2.140  -0.408 -12.561  0.00  0.00    +0.046 C 
BRANCH  13  15
ATOM     15  C   UNL     1      -1.928   2.373 -11.308  0.00  0.00    +0.244 C 
ATOM     16  O   UNL     1      -1.828   3.580 -11.431  0.00  0.00    -0.270 OA
ATOM     17  N   UNL     1      -3.131   1.780 -11.434  0.00  0.00    -0.325 N 
ATOM     18  H   UNL     1      -3.211   0.819 -11.336  0.00  0.00    +0.145 HD
ATOM     19  H   UNL     1      -3.918   2.315 -11.624  0.00  0.00    +0.145 HD
ENDBRANCH  13  15
ENDBRANCH   1  12
BRANCH   2  20
ATOM     20  C   UNL     1      -1.066   1.802  -6.067  0.00  0.00    +0.328 C 
BRANCH  20  21
ATOM     21  O   UNL     1      -0.314   1.287  -4.936  0.00  0.00    -0.455 OA
BRANCH  21  22
ATOM     22  C   UNL     1      -0.765   1.598  -3.711  0.00  0.00    +0.308 C 
ATOM     23  O   UNL     1      -1.756   2.279  -3.587  0.00  0.00    -0.251 OA
BRANCH  22  24
ATOM     24  C   UNL     1      -0.037   1.099  -2.490  0.00  0.00    +0.120 C 
BRANCH  24  25
ATOM     25  C   UNL     1      -0.753   1.593  -1.232  0.00  0.00    +0.011 C 
BRANCH  25  26
ATOM     26  C   UNL     1      -0.013   1.086   0.008  0.00  0.00    +0.004 C 
BRANCH  26  27
ATOM     27  C   UNL     1      -0.729   1.579   1.267  0.00  0.00    -0.011 C 
ATOM     28  C   UNL     1      -0.641   3.105   1.339  0.00  0.00    +0.003 C 
ATOM     29  C   UNL     1      -1.357   3.598   2.597  0.00  0.00    +0.000 C 
ATOM     30  C   UNL     1      -0.692   2.990   3.834  0.00  0.00    +0.000 C 
ATOM     31  C   UNL     1      -0.780   1.465   3.762  0.00  0.00    +0.000 C 
ATOM     32  C   UNL     1      -0.064   0.971   2.503  0.00  0.00    +0.003 C 
ENDBRANCH  26  27
ENDBRANCH  25  26
ENDBRANCH  24  25
ENDBRANCH  22  24
ENDBRANCH  21  22
ENDBRANCH  20  21
ENDBRANCH   2  20
TORSDOF 9
