REMARK  Name = ZINC01150735
REMARK  5 active torsions:
REMARK  status: ('A' for Active; 'I' for Inactive)
REMARK    1  A    between atoms: C_1  and  O_2
REMARK    2  A    between atoms: O_2  and  C_3
REMARK    3  A    between atoms: C_6  and  C_9
REMARK    4  A    between atoms: C_12  and  C_23
REMARK    5  A    between atoms: C_15  and  C_17
REMARK                            x       y       z     vdW  Elec       q    Type
REMARK                         _______ _______ _______ _____ _____    ______ ____
ROOT
ATOM      1  C   UNL     1       2.505  -2.503  -4.381  0.00  0.00    +0.137 C 
ATOM      2  C   UNL     1       1.453  -3.022  -5.382  0.00  0.00    +0.087 C 
ATOM      3  C   UNL     1       1.681  -4.517  -5.408  0.00  0.00    +0.075 C 
ATOM      4  N   UNL     1       2.647  -4.819  -4.606  0.00  0.00    -0.180 NA
ATOM      5  N   UNL     1       3.208  -3.722  -3.950  0.00  0.00    -0.179 N 
ATOM      6  C   UNL     1       4.226  -3.768  -3.067  0.00  0.00    +0.302 C 
ATOM      7  O   UNL     1       4.634  -2.742  -2.555  0.00  0.00    -0.265 OA
ENDROOT
BRANCH   1  11
ATOM      8  C   UNL     1       0.606  -0.607  -1.056  0.00  0.00    +0.120 A 
ATOM      9  C   UNL     1       1.173   0.161  -2.062  0.00  0.00    +0.046 A 
ATOM     10  C   UNL     1       1.786  -0.455  -3.136  0.00  0.00    +0.009 A 
ATOM     11  C   UNL     1       1.835  -1.835  -3.209  0.00  0.00    -0.024 A 
ATOM     12  C   UNL     1       1.270  -2.602  -2.207  0.00  0.00    +0.009 A 
ATOM     13  C   UNL     1       0.661  -1.992  -1.128  0.00  0.00    +0.046 A 
BRANCH   8  15
ATOM     14  C   UNL     1      -0.017   1.425   0.010  0.00  0.00    +0.277 C 
ATOM     15  O   UNL     1       0.002  -0.004   0.002  0.00  0.00    -0.495 OA
ENDBRANCH   8  15
ENDBRANCH   1  11
BRANCH   6  16
ATOM     16  C   UNL     1       4.840  -5.053  -2.725  0.00  0.00    +0.193 A 
ATOM     17  C   UNL     1       5.869  -5.242  -1.846  0.00  0.00    +0.056 A 
ATOM     18  C   UNL     1       6.134  -6.620  -1.824  0.00  0.00    +0.058 A 
ATOM     19  C   UNL     1       5.266  -7.206  -2.681  0.00  0.00    +0.171 A 
ATOM     20  O   UNL     1       4.484  -6.258  -3.217  0.00  0.00    -0.444 OA
ATOM     21 BR   UNL     1       5.167  -9.057  -3.054  0.00  0.00    -0.008 Br
ENDBRANCH   6  16
BRANCH   3  22
ATOM     22  C   UNL     1       0.922  -5.474  -6.219  0.00  0.00    +0.035 A 
ATOM     23  C   UNL     1       1.058  -6.850  -6.300  0.00  0.00    +0.017 A 
ATOM     24  C   UNL     1       0.218  -7.541  -7.142  0.00  0.00    +0.008 A 
ATOM     25  C   UNL     1      -0.710  -6.859  -7.863  0.00  0.00    +0.046 A 
ATOM     26  S   UNL     1      -0.423  -5.172  -7.353  0.00  0.00    -0.095 S 
ENDBRANCH   3  22
TORSDOF 4
