REMARK  Name = ZINC66243023
REMARK  6 active torsions:
REMARK  status: ('A' for Active; 'I' for Inactive)
REMARK    1  A    between atoms: C_4  and  N_7
REMARK    2  A    between atoms: N_10  and  C_13
REMARK    3  A    between atoms: C_13  and  C_14
REMARK    4  A    between atoms: C_19  and  C_20
REMARK    5  A    between atoms: C_20  and  N_21
REMARK    6  A    between atoms: N_23  and  C_24
REMARK                            x       y       z     vdW  Elec       q    Type
REMARK                         _______ _______ _______ _____ _____    ______ ____
ROOT
ATOM      1  C   UNL     1       7.327  -3.960  -1.733  0.00  0.00    -0.029 A 
ATOM      2  C   UNL     1       8.464  -4.288  -1.017  0.00  0.00    +0.005 A 
ATOM      3  C   UNL     1       8.801  -5.614  -0.825  0.00  0.00    +0.000 A 
ATOM      4  C   UNL     1       8.002  -6.614  -1.348  0.00  0.00    +0.000 A 
ATOM      5  C   UNL     1       6.865  -6.286  -2.063  0.00  0.00    +0.006 A 
ATOM      6  C   UNL     1       6.525  -4.959  -2.251  0.00  0.00    -0.024 A 
ENDROOT
BRANCH   1   7
ATOM      7  C   UNL     1       6.959  -2.514  -1.942  0.00  0.00    +0.120 C 
BRANCH   7  11
ATOM      8  N   UNL     1       8.500  -0.668  -5.383  0.00  0.00    -0.327 N 
ATOM      9  C   UNL     1       7.078  -0.440  -5.082  0.00  0.00    +0.120 C 
ATOM     10  C   UNL     1       6.838  -0.754  -3.602  0.00  0.00    +0.103 C 
ATOM     11  N   UNL     1       7.326  -2.108  -3.306  0.00  0.00    -0.295 NA
ATOM     12  C   UNL     1       8.777  -2.208  -3.513  0.00  0.00    +0.103 C 
ATOM     13  C   UNL     1       9.095  -1.956  -4.995  0.00  0.00    +0.120 C 
BRANCH   8  17
ATOM     14  C   UNL     1      10.774   2.249  -7.295  0.00  0.00    +0.000 A 
ATOM     15  C   UNL     1      11.379   1.092  -6.839  0.00  0.00    +0.002 A 
ATOM     16  C   UNL     1      10.627   0.122  -6.204  0.00  0.00    +0.023 A 
ATOM     17  C   UNL     1       9.263   0.311  -6.024  0.00  0.00    +0.030 A 
ATOM     18  C   UNL     1       8.659   1.474  -6.483  0.00  0.00    +0.023 A 
ATOM     19  C   UNL     1       9.416   2.440  -7.117  0.00  0.00    +0.002 A 
ENDBRANCH   8  17
ENDBRANCH   7  11
ENDBRANCH   1   7
BRANCH   6  20
ATOM     20  C   UNL     1       5.283  -4.603  -3.026  0.00  0.00    +0.151 C 
BRANCH  20  21
ATOM     21  N   UNL     1       5.654  -4.195  -4.384  0.00  0.00    -0.354 N 
ATOM     22  C   UNL     1       4.681  -3.822  -5.280  0.00  0.00    +0.169 C 
ATOM     23  N   UNL     1       5.012  -3.459  -6.488  0.00  0.00    -0.355 N 
ATOM     24  N   UNL     1       3.359  -3.831  -4.903  0.00  0.00    -0.371 N 
ATOM     25  H   UNL     1       6.587  -4.189  -4.650  0.00  0.00    +0.163 HD
ATOM     26  H   UNL     1       3.118  -4.029  -3.984  0.00  0.00    +0.159 HD
ATOM     27  H   UNL     1       2.667  -3.640  -5.555  0.00  0.00    +0.159 HD
ATOM     28  H   UNL     1       5.935  -3.521  -6.777  0.00  0.00    +0.163 HD
BRANCH  23  29
ATOM     29  C   UNL     1       3.988  -2.958  -7.408  0.00  0.00    +0.082 C 
ATOM     30  C   UNL     1       4.199  -3.207  -8.903  0.00  0.00    +0.026 C 
ATOM     31  C   UNL     1       3.130  -3.992  -8.141  0.00  0.00    +0.026 C 
ENDBRANCH  23  29
ENDBRANCH  20  21
ENDBRANCH   6  20
TORSDOF 6
