REMARK  Name = ZINC08324260
REMARK  3 active torsions:
REMARK  status: ('A' for Active; 'I' for Inactive)
REMARK    1  A    between atoms: C_6  and  S_7
REMARK    2  A    between atoms: S_7  and  N_10
REMARK    3  A    between atoms: N_19  and  C_20
REMARK                            x       y       z     vdW  Elec       q    Type
REMARK                         _______ _______ _______ _____ _____    ______ ____
ROOT
ATOM      1  C   UNL     1       6.532  -1.847  -0.212  0.00  0.00    +0.032 A 
ATOM      2  C   UNL     1       6.655  -1.843  -1.587  0.00  0.00    +0.050 A 
ATOM      3  C   UNL     1       5.854  -2.673  -2.354  0.00  0.00    +0.157 A 
ATOM      4  C   UNL     1       4.920  -3.514  -1.730  0.00  0.00    +0.113 A 
ATOM      5  C   UNL     1       4.810  -3.511  -0.339  0.00  0.00    +0.060 A 
ATOM      6  C   UNL     1       5.611  -2.675   0.409  0.00  0.00    +0.108 A 
ATOM      7  N   UNL     1       4.289  -4.199  -2.721  0.00  0.00    -0.195 NA
ATOM      8  C   UNL     1       4.783  -3.823  -3.873  0.00  0.00    +0.293 A 
ATOM      9  O   UNL     1       5.738  -2.895  -3.684  0.00  0.00    -0.424 OA
ATOM     10  N   UNL     1       4.384  -4.306  -5.099  0.00  0.00    -0.266 N 
ATOM     11  H   UNL     1       3.617  -4.896  -5.162  0.00  0.00    +0.157 HD
ENDROOT
BRANCH  10  12
ATOM     12  C   UNL     1       5.085  -3.944  -6.257  0.00  0.00    +0.073 A 
ATOM     13  C   UNL     1       6.285  -3.253  -6.155  0.00  0.00    +0.029 A 
ATOM     14  C   UNL     1       6.979  -2.901  -7.297  0.00  0.00    +0.043 A 
ATOM     15  C   UNL     1       6.473  -3.225  -8.544  0.00  0.00    +0.161 A 
ATOM     16  C   UNL     1       5.272  -3.910  -8.651  0.00  0.00    +0.195 A 
ATOM     17  C   UNL     1       4.577  -4.270  -7.509  0.00  0.00    +0.182 A 
ATOM     18  F   UNL     1       3.407  -4.938  -7.611  0.00  0.00    -0.200 F 
ATOM     19  F   UNL     1       4.781  -4.226  -9.869  0.00  0.00    -0.199 F 
ATOM     20  F   UNL     1       7.152  -2.875  -9.659  0.00  0.00    -0.202 F 
ENDBRANCH  10  12
BRANCH   6  21
ATOM     21  S   UNL     1       5.469  -2.666   2.165  0.00  0.00    +0.061 S 
ATOM     22  O   UNL     1       6.712  -2.199   2.671  0.00  0.00    -0.153 OA
ATOM     23  O   UNL     1       4.920  -3.923   2.535  0.00  0.00    -0.153 OA
BRANCH  21  24
ATOM     24  N   UNL     1       4.338  -1.522   2.558  0.00  0.00    -0.177 NA
ATOM     25  C   UNL     1       2.917  -1.880   2.667  0.00  0.00    +0.109 C 
ATOM     26  C   UNL     1       2.102  -0.942   1.771  0.00  0.00    +0.017 C 
ATOM     27  C   UNL     1       2.414   0.510   2.142  0.00  0.00    +0.003 C 
ATOM     28  C   UNL     1       3.901   0.789   1.908  0.00  0.00    +0.017 C 
ATOM     29  C   UNL     1       4.736  -0.129   2.805  0.00  0.00    +0.109 C 
ENDBRANCH  21  24
ENDBRANCH   6  21
TORSDOF 3
