REMARK  Name = ZINC09293262
REMARK  2 active torsions:
REMARK  status: ('A' for Active; 'I' for Inactive)
REMARK    1  A    between atoms: C_3  and  C_7
REMARK    2  A    between atoms: C_18  and  C_20
REMARK                            x       y       z     vdW  Elec       q    Type
REMARK                         _______ _______ _______ _____ _____    ______ ____
ROOT
ATOM      1  C   UNL     1       3.494   2.191  -0.094  0.00  0.00    +0.160 C 
ATOM      2  C   UNL     1       4.047   2.250   1.313  0.00  0.00    +0.027 C 
ATOM      3  C   UNL     1       5.226   1.642   1.557  0.00  0.00    +0.083 C 
ATOM      4  C   UNL     1       5.761   1.716   2.940  0.00  0.00    +0.044 A 
ATOM      5  C   UNL     1       6.778   0.875   3.370  0.00  0.00    +0.033 A 
ATOM      6  C   UNL     1       7.245   0.977   4.667  0.00  0.00    +0.042 A 
ATOM      7  C   UNL     1       6.702   1.912   5.532  0.00  0.00    +0.023 A 
ATOM      8  C   UNL     1       5.689   2.753   5.110  0.00  0.00    +0.048 A 
ATOM      9  C   UNL     1       5.213   2.664   3.814  0.00  0.00    +0.131 A 
ATOM     10  O   UNL     1       4.225   3.482   3.372  0.00  0.00    -0.479 OA
ATOM     11  C   UNL     1       3.307   2.954   2.412  0.00  0.00    +0.234 C 
ATOM     12 CL   UNL     1       8.517  -0.071   5.214  0.00  0.00    -0.084 Cl
ATOM     13  N   UNL     1       5.902   0.988   0.581  0.00  0.00    -0.213 NA
ATOM     14  C   UNL     1       5.494   0.888  -0.663  0.00  0.00    +0.237 C 
ATOM     15  N   UNL     1       4.309   1.459  -1.071  0.00  0.00    -0.208 N 
ATOM     16  N   UNL     1       4.176   1.169  -2.431  0.00  0.00    -0.251 N 
ATOM     17  C   UNL     1       5.272   0.440  -2.779  0.00  0.00    +0.203 C 
ATOM     18  N   UNL     1       6.036   0.285  -1.744  0.00  0.00    -0.205 NA
ATOM     19  H   UNL     1       3.446   1.435  -3.012  0.00  0.00    +0.171 HD
ENDROOT
BRANCH  11  20
ATOM     20  C   UNL     1       2.381   1.980   3.093  0.00  0.00    -0.002 A 
ATOM     21  C   UNL     1       1.014   2.087   2.915  0.00  0.00    +0.009 A 
ATOM     22  C   UNL     1       0.163   1.194   3.539  0.00  0.00    +0.022 A 
ATOM     23  C   UNL     1       0.679   0.192   4.341  0.00  0.00    +0.059 A 
ATOM     24  C   UNL     1       2.047   0.085   4.519  0.00  0.00    +0.060 A 
ATOM     25  C   UNL     1       2.898   0.976   3.889  0.00  0.00    +0.029 A 
ATOM     26 CL   UNL     1       2.696  -1.172   5.526  0.00  0.00    -0.082 Cl
ATOM     27 CL   UNL     1      -0.390  -0.929   5.125  0.00  0.00    -0.082 Cl
ENDBRANCH  11  20
BRANCH   1  30
ATOM     28  C   UNL     1      -0.244   1.682  -0.052  0.00  0.00    +0.020 A 
ATOM     29  C   UNL     1       0.986   2.319  -0.107  0.00  0.00    +0.009 A 
ATOM     30  C   UNL     1       2.134   1.545  -0.038  0.00  0.00    -0.003 A 
ATOM     31  C   UNL     1       2.015   0.173   0.082  0.00  0.00    +0.116 A 
ATOM     32  N   UNL     1       0.828  -0.399   0.130  0.00  0.00    -0.263 NA
ATOM     33  C   UNL     1      -0.285   0.306   0.068  0.00  0.00    +0.111 A 
ENDBRANCH   1  30
TORSDOF 2
