REMARK  Name = ZINC20503830
REMARK  5 active torsions:
REMARK  status: ('A' for Active; 'I' for Inactive)
REMARK    1  A    between atoms: N_9  and  C_11
REMARK    2  A    between atoms: C_11  and  C_12
REMARK    3  A    between atoms: C_21  and  C_23
REMARK    4  A    between atoms: C_23  and  N_24
REMARK    5  A    between atoms: N_27  and  C_28
REMARK                            x       y       z     vdW  Elec       q    Type
REMARK                         _______ _______ _______ _____ _____    ______ ____
ROOT
ATOM      1  C   UNL     1      -0.025   1.148  -0.061  0.00  0.00    -0.011 C 
ATOM      2  C   UNL     1      -0.741   1.625   1.206  0.00  0.00    -0.073 C 
ATOM      3  N   UNL     1      -1.916   2.425   0.826  0.00  0.00    +0.383 N 
ATOM      4  C   UNL     1      -2.879   1.623   0.059  0.00  0.00    -0.078 C 
ATOM      5  C   UNL     1      -2.221   1.145  -1.238  0.00  0.00    -0.015 C 
ATOM      6  C   UNL     1      -0.782   1.673  -1.288  0.00  0.00    -0.012 C 
ATOM      7  C   UNL     1      -0.820   3.205  -1.220  0.00  0.00    -0.010 C 
ATOM      8  C   UNL     1      -1.517   3.625   0.077  0.00  0.00    -0.051 C 
ATOM      9  H   UNL     1      -2.414   2.754   1.750  0.00  0.00    -0.081 HD
ENDROOT
BRANCH   1  10
ATOM     10  C   UNL     1       1.407   1.684  -0.074  0.00  0.00    +0.086 C 
BRANCH  10  19
ATOM     11  C   UNL     1       4.334  -2.171   4.155  0.00  0.00    +0.000 A 
ATOM     12  C   UNL     1       3.248  -2.839   3.620  0.00  0.00    +0.000 A 
ATOM     13  C   UNL     1       2.488  -2.239   2.637  0.00  0.00    +0.005 A 
ATOM     14  C   UNL     1       2.807  -0.968   2.181  0.00  0.00    -0.030 A 
ATOM     15  C   UNL     1       3.888  -0.301   2.717  0.00  0.00    -0.042 A 
ATOM     16  C   UNL     1       4.652  -0.906   3.704  0.00  0.00    +0.004 A 
ATOM     17  C   UNL     1       4.269   1.083   2.260  0.00  0.00    +0.051 C 
ATOM     18  C   UNL     1       3.598   1.394   0.922  0.00  0.00    +0.089 C 
ATOM     19  N   UNL     1       2.162   1.091   1.038  0.00  0.00    -0.298 NA
ATOM     20  C   UNL     1       1.954  -0.359   1.100  0.00  0.00    +0.119 C 
ENDBRANCH  10  19
ENDBRANCH   1  10
BRANCH   8  21
ATOM     21  C   UNL     1      -0.556   4.460   0.925  0.00  0.00    +0.090 C 
BRANCH  21  22
ATOM     22  N   UNL     1      -1.180   4.762   2.216  0.00  0.00    -0.301 N 
ATOM     23  C   UNL     1      -0.514   5.491   3.132  0.00  0.00    +0.304 C 
ATOM     24  O   UNL     1       0.605   5.900   2.888  0.00  0.00    -0.253 OA
ATOM     25  N   UNL     1      -1.088   5.769   4.320  0.00  0.00    -0.269 N 
ATOM     26  H   UNL     1      -2.192   4.392   2.437  0.00  0.00    +0.150 HD
ATOM     27  H   UNL     1      -2.126   5.462   4.514  0.00  0.00    +0.156 HD
BRANCH  25  28
ATOM     28  C   UNL     1      -0.358   6.451   5.312  0.00  0.00    +0.042 A 
ATOM     29  C   UNL     1      -0.562   6.172   6.654  0.00  0.00    +0.031 A 
ATOM     30  C   UNL     1       0.162   6.844   7.582  0.00  0.00    +0.047 A 
ATOM     31  S   UNL     1       1.161   7.920   6.567  0.00  0.00    -0.103 S 
ATOM     32  C   UNL     1       0.554   7.399   4.971  0.00  0.00    +0.068 A 
ENDBRANCH  25  28
ENDBRANCH  21  22
ENDBRANCH   8  21
TORSDOF 5
