REMARK  Name = ZINC41359649
REMARK  5 active torsions:
REMARK  status: ('A' for Active; 'I' for Inactive)
REMARK    1  A    between atoms: C_1  and  C_2
REMARK    2  A    between atoms: C_3  and  O_21
REMARK    3  A    between atoms: C_10  and  C_11
REMARK    4  A    between atoms: O_21  and  C_22
REMARK    5  A    between atoms: C_22  and  C_24
REMARK                            x       y       z     vdW  Elec       q    Type
REMARK                         _______ _______ _______ _____ _____    ______ ____
ROOT
ATOM      1  C   UNL     1       0.208   1.681   0.301  0.00  0.00    +0.051 C 
ATOM      2  C   UNL     1       0.179   0.178   0.194  0.00  0.00    +0.035 A 
ATOM      3  C   UNL     1       0.192  -0.428  -1.052  0.00  0.00    +0.138 A 
ATOM      4  C   UNL     1       0.166  -1.815  -1.164  0.00  0.00    +0.047 A 
ATOM      5  C   UNL     1       0.126  -2.595  -0.042  0.00  0.00    +0.019 A 
ATOM      6  C   UNL     1       0.112  -1.998   1.218  0.00  0.00    +0.068 A 
ATOM      7  C   UNL     1       0.144  -0.600   1.345  0.00  0.00    +0.146 A 
ATOM      8  O   UNL     1       0.130  -0.260   2.652  0.00  0.00    -0.451 OA
ATOM      9  C   UNL     1       0.095  -1.349   3.455  0.00  0.00    +0.176 C 
ATOM     10  C   UNL     1       0.073  -1.344   4.812  0.00  0.00    +0.058 C 
ATOM     11  C   UNL     1       0.072  -2.538   2.590  0.00  0.00    +0.231 C 
ATOM     12  O   UNL     1       0.041  -3.708   2.930  0.00  0.00    -0.283 OA
ENDROOT
BRANCH  10  13
ATOM     13  C   UNL     1      -0.051  -0.074   5.540  0.00  0.00    -0.020 A 
ATOM     14  C   UNL     1      -0.295   1.115   4.843  0.00  0.00    +0.009 A 
ATOM     15  C   UNL     1      -0.411   2.303   5.533  0.00  0.00    +0.022 A 
ATOM     16  C   UNL     1      -0.285   2.322   6.913  0.00  0.00    +0.059 A 
ATOM     17  C   UNL     1      -0.042   1.149   7.610  0.00  0.00    +0.060 A 
ATOM     18  C   UNL     1       0.070  -0.048   6.934  0.00  0.00    +0.029 A 
ATOM     19 CL   UNL     1       0.114   1.185   9.339  0.00  0.00    -0.082 Cl
ATOM     20 CL   UNL     1      -0.431   3.824   7.772  0.00  0.00    -0.082 Cl
ENDBRANCH  10  13
BRANCH   3  21
ATOM     21  O   UNL     1       0.231   0.337  -2.172  0.00  0.00    -0.424 OA
BRANCH  21  22
ATOM     22  C   UNL     1       1.419   0.830  -2.558  0.00  0.00    +0.342 C 
ATOM     23  O   UNL     1       2.396   0.663  -1.867  0.00  0.00    -0.247 OA
BRANCH  22  24
ATOM     24  C   UNL     1       1.534   1.591  -3.854  0.00  0.00    +0.227 C 
ATOM     25  C   UNL     1       1.237   0.651  -5.042  0.00  0.00    +0.045 C 
ATOM     26  C   UNL     1       2.280   1.113  -6.096  0.00  0.00    +0.031 C 
ATOM     27  C   UNL     1       3.470   1.501  -5.183  0.00  0.00    +0.161 C 
ATOM     28  O   UNL     1       2.870   2.083  -4.012  0.00  0.00    -0.365 OA
ENDBRANCH  22  24
ENDBRANCH  21  22
ENDBRANCH   3  21
TORSDOF 4
