REMARK  Name = ZINC04199104
REMARK  10 active torsions:
REMARK  status: ('A' for Active; 'I' for Inactive)
REMARK    1  A    between atoms: C_1  and  C_2
REMARK    2  A    between atoms: C_2  and  S_3
REMARK    3  A    between atoms: S_3  and  C_4
REMARK    4  A    between atoms: C_4  and  S_24
REMARK    5  A    between atoms: C_5  and  C_22
REMARK    6  A    between atoms: C_7  and  C_21
REMARK    7  A    between atoms: C_8  and  C_15
REMARK    8  A    between atoms: C_10  and  C_13
REMARK    9  A    between atoms: S_24  and  C_25
REMARK   10  A    between atoms: C_25  and  C_26
REMARK                            x       y       z     vdW  Elec       q    Type
REMARK                         _______ _______ _______ _____ _____    ______ ____
ROOT
ATOM      1  C   UNL     1      -2.675   3.345   0.141  0.00  0.00    +0.157 C 
ATOM      2  C   UNL     1      -3.018   2.038   0.859  0.00  0.00    +0.146 C 
ATOM      3  C   UNL     1      -4.325   1.390   0.506  0.00  0.00    +0.017 C 
ATOM      4  C   UNL     1      -4.341   0.066   0.725  0.00  0.00    -0.017 C 
ATOM      5  C   UNL     1      -1.857  -0.115   1.027  0.00  0.00    +0.113 C 
ATOM      6  C   UNL     1      -1.951   1.125   0.170  0.00  0.00    +0.156 C 
ATOM      7  C   UNL     1      -0.779   2.033   0.041  0.00  0.00    +0.092 C 
ATOM      8  N   UNL     1       0.531   1.637  -0.024  0.00  0.00    -0.347 N 
ATOM      9  C   UNL     1      -5.581  -0.724   0.395  0.00  0.00    +0.058 C 
ATOM     10  H   UNL     1       0.755   0.694   0.013  0.00  0.00    +0.143 HD
ATOM     11  H   UNL     1       1.234   2.300  -0.112  0.00  0.00    +0.143 HD
ATOM     12  N   UNL     1      -3.249  -0.663   1.299  0.00  0.00    -0.401 NA
ATOM     13  H   UNL     1      -3.287  -1.621   0.931  0.00  0.00    +0.124 HD
ATOM     14  H   UNL     1      -3.387  -0.681   2.316  0.00  0.00    +0.124 HD
ATOM     15  N   UNL     1      -1.192   3.279   0.005  0.00  0.00    -0.351 N 
ATOM     16  H   UNL     1      -0.579   4.096  -0.101  0.00  0.00    +0.163 HD
ENDROOT
BRANCH   5  17
ATOM     17  C   UNL     1      -1.068  -1.179   0.309  0.00  0.00    -0.027 A 
ATOM     18  C   UNL     1      -1.675  -1.953  -0.662  0.00  0.00    +0.005 A 
ATOM     19  C   UNL     1      -0.950  -2.927  -1.324  0.00  0.00    +0.000 A 
ATOM     20  C   UNL     1       0.380  -3.132  -1.008  0.00  0.00    +0.000 A 
ATOM     21  C   UNL     1       0.986  -2.361  -0.033  0.00  0.00    +0.000 A 
ATOM     22  C   UNL     1       0.262  -1.385   0.625  0.00  0.00    +0.005 A 
ENDBRANCH   5  17
BRANCH   6  23
ATOM     23  C   UNL     1      -2.428   0.753  -1.173  0.00  0.00    +0.081 C 
ATOM     24  N   UNL     1      -2.796   0.467  -2.208  0.00  0.00    -0.195 NA
ENDBRANCH   6  23
BRANCH   2  25
ATOM     25  C   UNL     1      -2.825   2.129   2.316  0.00  0.00    +0.080 C 
ATOM     26  N   UNL     1      -2.677   2.200   3.440  0.00  0.00    -0.195 NA
ENDBRANCH   2  25
BRANCH   1  27
ATOM     27  S   UNL     1      -3.472   3.411  -1.488  0.00  0.00    -0.121 S 
BRANCH  27  29
ATOM     28  C   UNL     1      -2.746   4.256  -3.986  0.00  0.00    +0.015 C 
ATOM     29  C   UNL     1      -2.164   4.012  -2.592  0.00  0.00    +0.069 C 
ENDBRANCH  27  29
ENDBRANCH   1  27
BRANCH   1  30
ATOM     30  S   UNL     1      -3.151   4.776   1.149  0.00  0.00    -0.121 S 
BRANCH  30  31
ATOM     31  C   UNL     1      -2.526   6.199   0.213  0.00  0.00    +0.069 C 
ATOM     32  C   UNL     1      -2.887   7.491   0.949  0.00  0.00    +0.015 C 
ENDBRANCH  30  31
ENDBRANCH   1  30
TORSDOF 7
