REMARK  Name = ZINC46736309
REMARK  9 active torsions:
REMARK  status: ('A' for Active; 'I' for Inactive)
REMARK    1  A    between atoms: C_1  and  C_2
REMARK    2  A    between atoms: C_2  and  C_4
REMARK    3  A    between atoms: C_2  and  N_21
REMARK    4  A    between atoms: C_4  and  C_5
REMARK    5  A    between atoms: N_7  and  C_8
REMARK    6  A    between atoms: C_8  and  C_9
REMARK    7  A    between atoms: C_9  and  C_11
REMARK    8  A    between atoms: C_9  and  N_12
REMARK    9  A    between atoms: C_22  and  C_24
REMARK                            x       y       z     vdW  Elec       q    Type
REMARK                         _______ _______ _______ _____ _____    ______ ____
ROOT
ATOM      1  C   UNL     1       0.131  -2.326   1.328  0.00  0.00    +0.215 C 
ATOM      2  O   UNL     1      -0.387  -3.042   0.497  0.00  0.00    -0.276 OA
ATOM      3  N   UNL     1       0.865  -2.868   2.320  0.00  0.00    -0.317 N 
ATOM      4  H   UNL     1       1.280  -2.295   2.985  0.00  0.00    +0.149 HD
ENDROOT
BRANCH   1   5
ATOM      5  C   UNL     1      -0.045  -0.831   1.251  0.00  0.00    +0.117 C 
BRANCH   5   7
ATOM      6  C   UNL     1      -1.198   1.021   0.033  0.00  0.00    +0.028 C 
ATOM      7  C   UNL     1      -0.915  -0.482   0.041  0.00  0.00    +0.079 C 
BRANCH   7   8
ATOM      8  N   UNL     1      -0.211  -0.853  -1.189  0.00  0.00    -0.308 N 
ATOM      9  C   UNL     1      -0.909  -1.121  -2.310  0.00  0.00    +0.244 C 
ATOM     10  O   UNL     1      -2.123  -1.056  -2.300  0.00  0.00    -0.270 OA
ATOM     11  H   UNL     1       0.757  -0.906  -1.197  0.00  0.00    +0.149 HD
BRANCH   9  12
ATOM     12  C   UNL     1      -0.199  -1.496  -3.552  0.00  0.00    +0.037 A 
ATOM     13  C   UNL     1       1.194  -1.578  -3.565  0.00  0.00    +0.013 A 
ATOM     14  C   UNL     1       1.850  -1.928  -4.726  0.00  0.00    +0.001 A 
ATOM     15  C   UNL     1       1.131  -2.197  -5.877  0.00  0.00    +0.000 A 
ATOM     16  C   UNL     1      -0.251  -2.117  -5.871  0.00  0.00    +0.001 A 
ATOM     17  C   UNL     1      -0.920  -1.774  -4.714  0.00  0.00    +0.013 A 
ENDBRANCH   9  12
ENDBRANCH   7   8
ENDBRANCH   5   7
ENDBRANCH   1   5
BRANCH   3  18
ATOM     18  C   UNL     1       1.037  -4.321   2.395  0.00  0.00    +0.089 C 
BRANCH  18  19
ATOM     19  C   UNL     1       2.001  -4.662   3.533  0.00  0.00    -0.054 C 
ATOM     20  C   UNL     1       2.113  -6.182   3.667  0.00  0.00    -0.012 C 
BRANCH  19  21
ATOM     21  N   UNL     1       1.494  -4.096   4.790  0.00  0.00    +0.385 N 
ATOM     22  C   UNL     1       2.457  -4.368   5.866  0.00  0.00    -0.073 C 
ATOM     23  C   UNL     1       2.097  -3.503   7.087  0.00  0.00    +0.024 C 
ATOM     24  C   UNL     1       0.628  -3.640   7.317  0.00  0.00    -0.011 A 
ATOM     25  C   UNL     1      -0.281  -4.173   6.452  0.00  0.00    -0.054 A 
ATOM     26  C   UNL     1      -1.605  -4.203   6.883  0.00  0.00    +0.009 A 
ATOM     27  C   UNL     1      -1.932  -3.714   8.102  0.00  0.00    +0.045 A 
ATOM     28  S   UNL     1      -0.344  -3.174   8.721  0.00  0.00    -0.101 S 
ATOM     29  C   UNL     1       0.188  -4.691   5.096  0.00  0.00    -0.042 C 
ATOM     30  H   UNL     1       1.388  -3.098   4.686  0.00  0.00    -0.081 HD
ENDBRANCH  19  21
ENDBRANCH  18  19
ENDBRANCH   3  18
TORSDOF 7
