REMARK  Name = ZINC12659136
REMARK  6 active torsions:
REMARK  status: ('A' for Active; 'I' for Inactive)
REMARK    1  A    between atoms: C_1  and  C_2
REMARK    2  A    between atoms: C_5  and  S_8
REMARK    3  A    between atoms: S_8  and  O_11
REMARK    4  A    between atoms: O_11  and  C_12
REMARK    5  A    between atoms: C_16  and  C_36
REMARK    6  A    between atoms: C_28  and  C_35
REMARK                            x       y       z     vdW  Elec       q    Type
REMARK                         _______ _______ _______ _____ _____    ______ ____
ROOT
ATOM      1  C   UNL     1      -3.532  -5.369   0.125  0.00  0.00    +0.150 C 
ATOM      2  C   UNL     1      -2.617  -5.519  -1.088  0.00  0.00    +0.034 C 
ATOM      3  C   UNL     1      -1.483  -4.498  -1.032  0.00  0.00    +0.010 C 
ATOM      4  C   UNL     1      -2.039  -3.074  -0.964  0.00  0.00    -0.026 C 
ATOM      5  C   UNL     1      -2.946  -2.941   0.246  0.00  0.00    -0.002 C 
ATOM      6  C   UNL     1      -4.091  -3.947   0.198  0.00  0.00    +0.038 C 
ATOM      7  C   UNL     1      -3.490  -1.517   0.337  0.00  0.00    +0.004 C 
ATOM      8  C   UNL     1      -2.324  -0.565   0.559  0.00  0.00    +0.004 C 
ATOM      9  C   UNL     1      -1.272  -0.649  -0.536  0.00  0.00    -0.003 C 
ATOM     10  C   UNL     1      -0.928  -2.054  -0.981  0.00  0.00    -0.001 C 
ATOM     11  C   UNL     1       0.349  -2.545  -0.304  0.00  0.00    +0.005 C 
ATOM     12  C   UNL     1       1.557  -1.764  -0.852  0.00  0.00    +0.015 C 
ATOM     13  C   UNL     1       1.195  -0.296  -0.932  0.00  0.00    +0.029 C 
ATOM     14  C   UNL     1       0.002  -0.004   0.002  0.00  0.00    +0.006 C 
ATOM     15  C   UNL     1      -0.019   1.534   0.011  0.00  0.00    +0.012 C 
ATOM     16  C   UNL     1       1.488   1.906  -0.002  0.00  0.00    +0.075 C 
ATOM     17  C   UNL     1       2.250   0.647  -0.396  0.00  0.00    +0.139 C 
ATOM     18  O   UNL     1       3.431   0.441  -0.303  0.00  0.00    -0.297 OA
ATOM     19  C   UNL     1       0.891   0.101  -2.378  0.00  0.00    +0.019 C 
ATOM     20  C   UNL     1      -2.861  -2.839  -2.239  0.00  0.00    +0.012 C 
ENDROOT
BRANCH   1  21
ATOM     21  O   UNL     1      -2.799  -5.657   1.318  0.00  0.00    -0.231 OA
BRANCH  21  22
ATOM     22  S   UNL     1      -2.938  -7.095   1.797  0.00  0.00    +0.112 S 
ATOM     23  O   UNL     1      -2.331  -7.155   3.081  0.00  0.00    -0.142 OA
ATOM     24  O   UNL     1      -4.291  -7.468   1.576  0.00  0.00    -0.142 OA
BRANCH  22  29
ATOM     25  C   UNL     1       0.419 -10.526  -1.858  0.00  0.00    +0.044 C 
ATOM     26  C   UNL     1      -0.419  -9.669  -0.945  0.00  0.00    -0.050 A 
ATOM     27  C   UNL     1       0.138  -9.124   0.197  0.00  0.00    +0.005 A 
ATOM     28  C   UNL     1      -0.631  -8.339   1.034  0.00  0.00    +0.030 A 
ATOM     29  C   UNL     1      -1.957  -8.096   0.730  0.00  0.00    +0.117 A 
ATOM     30  C   UNL     1      -2.516  -8.645  -0.410  0.00  0.00    +0.030 A 
ATOM     31  C   UNL     1      -1.746  -9.427  -1.249  0.00  0.00    +0.005 A 
ENDBRANCH  22  29
ENDBRANCH  21  22
ENDBRANCH   1  21
TORSDOF 3
