REMARK  Name = ZINC09251843
REMARK  8 active torsions:
REMARK  status: ('A' for Active; 'I' for Inactive)
REMARK    1  A    between atoms: C_1  and  C_2
REMARK    2  A    between atoms: C_6  and  N_9
REMARK    3  A    between atoms: C_7  and  C_8
REMARK    4  A    between atoms: C_20  and  C_23
REMARK    5  A    between atoms: C_21  and  C_22
REMARK    6  A    between atoms: C_26  and  C_29
REMARK    7  A    between atoms: C_29  and  C_30
REMARK    8  A    between atoms: C_29  and  C_31
REMARK                            x       y       z     vdW  Elec       q    Type
REMARK                         _______ _______ _______ _____ _____    ______ ____
ROOT
ATOM      1  N   UNL     1      -3.501   8.456   6.845  0.00  0.00    -0.327 N 
ATOM      2  C   UNL     1      -4.381   7.513   7.546  0.00  0.00    +0.124 C 
ATOM      3  C   UNL     1      -3.597   6.238   7.878  0.00  0.00    +0.125 C 
ATOM      4  N   UNL     1      -2.996   5.723   6.639  0.00  0.00    -0.311 N 
ATOM      5  C   UNL     1      -2.206   6.649   5.812  0.00  0.00    +0.125 C 
ATOM      6  C   UNL     1      -3.049   7.908   5.558  0.00  0.00    +0.124 C 
ATOM      7  C   UNL     1      -3.163   4.405   6.264  0.00  0.00    +0.148 C 
ATOM      8  N   UNL     1      -3.126   4.061   5.007  0.00  0.00    -0.113 NA
ATOM      9  S   UNL     1      -3.369   2.405   5.010  0.00  0.00    +0.101 S 
ATOM     10  O   UNL     1      -2.162   1.788   4.585  0.00  0.00    -0.146 OA
ATOM     11  O   UNL     1      -4.633   2.152   4.411  0.00  0.00    -0.146 OA
ATOM     12  C   UNL     1      -3.533   2.126   6.762  0.00  0.00    +0.126 C 
ATOM     13  C   UNL     1      -3.391   3.376   7.259  0.00  0.00    +0.018 C 
ATOM     14  C   UNL     1      -3.459   3.675   8.735  0.00  0.00    +0.049 C 
ENDROOT
BRANCH   1  20
ATOM     15  C   UNL     1      -3.590  13.306   7.636  0.00  0.00    +0.044 C 
ATOM     16  C   UNL     1      -4.195  12.059   7.043  0.00  0.00    -0.046 A 
ATOM     17  C   UNL     1      -5.374  12.138   6.324  0.00  0.00    +0.004 A 
ATOM     18  C   UNL     1      -5.932  10.997   5.778  0.00  0.00    +0.002 A 
ATOM     19  C   UNL     1      -5.313   9.774   5.948  0.00  0.00    +0.023 A 
ATOM     20  C   UNL     1      -4.129   9.691   6.670  0.00  0.00    +0.033 A 
ATOM     21  C   UNL     1      -3.574  10.839   7.222  0.00  0.00    -0.027 A 
ATOM     22  C   UNL     1      -2.293  10.753   8.011  0.00  0.00    +0.046 C 
ENDBRANCH   1  20
BRANCH  12  23
ATOM     23  C   UNL     1      -3.770   0.863   7.481  0.00  0.00    +0.002 A 
ATOM     24  C   UNL     1      -4.756  -0.023   7.040  0.00  0.00    +0.010 A 
ATOM     25  C   UNL     1      -4.971  -1.204   7.718  0.00  0.00    +0.004 A 
ATOM     26  C   UNL     1      -4.214  -1.513   8.835  0.00  0.00    -0.045 A 
ATOM     27  C   UNL     1      -3.239  -0.638   9.281  0.00  0.00    +0.004 A 
ATOM     28  C   UNL     1      -3.008   0.544   8.610  0.00  0.00    +0.010 A 
BRANCH  26  29
ATOM     29  C   UNL     1      -4.455  -2.805   9.571  0.00  0.00    +0.013 C 
ATOM     30  C   UNL     1      -4.855  -2.501  11.016  0.00  0.00    +0.012 C 
ATOM     31  C   UNL     1      -3.177  -3.645   9.561  0.00  0.00    +0.012 C 
ENDBRANCH  26  29
ENDBRANCH  12  23
TORSDOF 3
