REMARK  Name = ZINC40423320
REMARK  9 active torsions:
REMARK  status: ('A' for Active; 'I' for Inactive)
REMARK    1  A    between atoms: C_1  and  C_2
REMARK    2  A    between atoms: C_2  and  C_39
REMARK    3  A    between atoms: C_6  and  C_28
REMARK    4  A    between atoms: C_13  and  S_17
REMARK    5  A    between atoms: S_17  and  C_18
REMARK    6  A    between atoms: C_18  and  C_19
REMARK    7  A    between atoms: C_22  and  N_25
REMARK    8  A    between atoms: C_33  and  O_34
REMARK    9  A    between atoms: O_34  and  C_35
REMARK                            x       y       z     vdW  Elec       q    Type
REMARK                         _______ _______ _______ _____ _____    ______ ____
ROOT
ATOM      1  C   UNL     1      -0.019   1.526   0.010  0.00  0.00    +0.011 C 
ATOM      2  C   UNL     1       0.002  -0.004   0.002  0.00  0.00    -0.023 C 
ATOM      3  C   UNL     1      -1.431  -0.539   0.039  0.00  0.00    +0.058 C 
ATOM      4  C   UNL     1      -1.409  -2.048   0.078  0.00  0.00    +0.017 C 
ATOM      5  C   UNL     1      -0.397  -2.712   0.676  0.00  0.00    +0.024 C 
ATOM      6  C   UNL     1      -0.376  -4.219   0.731  0.00  0.00    +0.096 C 
ATOM      7  C   UNL     1      -1.308  -4.815  -0.281  0.00  0.00    +0.069 A 
ATOM      8  C   UNL     1      -1.181  -6.158  -0.655  0.00  0.00    +0.258 A 
ATOM      9  O   UNL     1      -0.311  -6.860  -0.165  0.00  0.00    -0.267 OA
ATOM     10  N   UNL     1      -2.039  -6.662  -1.567  0.00  0.00    -0.302 N 
ATOM     11  H   UNL     1      -1.966  -7.590  -1.839  0.00  0.00    +0.171 HD
ATOM     12  C   UNL     1      -3.007  -5.870  -2.106  0.00  0.00    +0.171 A 
ATOM     13  N   UNL     1      -3.130  -4.605  -1.759  0.00  0.00    -0.208 NA
ATOM     14  C   UNL     1      -2.306  -4.052  -0.862  0.00  0.00    +0.135 A 
ATOM     15  N   UNL     1      -2.442  -2.723  -0.511  0.00  0.00    -0.302 N 
ATOM     16  C   UNL     1       0.675  -2.019   1.265  0.00  0.00    +0.162 C 
ATOM     17  O   UNL     1       1.565  -2.646   1.805  0.00  0.00    -0.292 OA
ATOM     18  C   UNL     1       0.742  -0.517   1.242  0.00  0.00    +0.086 C 
ATOM     19  C   UNL     1       0.706  -0.503  -1.261  0.00  0.00    +0.011 C 
ATOM     20  H   UNL     1      -3.279  -2.264  -0.685  0.00  0.00    +0.153 HD
ENDROOT
BRANCH   6  21
ATOM     21  C   UNL     1      -0.793  -4.668   2.108  0.00  0.00    +0.006 A 
ATOM     22  C   UNL     1      -2.042  -4.333   2.596  0.00  0.00    +0.008 A 
ATOM     23  C   UNL     1      -2.425  -4.744   3.859  0.00  0.00    +0.001 A 
ATOM     24  C   UNL     1      -1.560  -5.492   4.637  0.00  0.00    +0.004 A 
ATOM     25  C   UNL     1      -0.310  -5.829   4.154  0.00  0.00    +0.046 A 
ATOM     26  C   UNL     1       0.074  -5.422   2.884  0.00  0.00    +0.124 A 
BRANCH  26  27
ATOM     27  O   UNL     1       1.300  -5.758   2.404  0.00  0.00    -0.495 OA
ATOM     28  C   UNL     1       2.141  -6.536   3.259  0.00  0.00    +0.277 C 
ENDBRANCH  26  27
ENDBRANCH   6  21
BRANCH  12  29
ATOM     29  S   UNL     1      -4.117  -6.550  -3.293  0.00  0.00    -0.083 S 
BRANCH  29  30
ATOM     30  C   UNL     1      -5.205  -5.164  -3.722  0.00  0.00    +0.112 C 
BRANCH  30  31
ATOM     31  C   UNL     1      -6.216  -5.616  -4.743  0.00  0.00    -0.037 A 
ATOM     32  C   UNL     1      -5.930  -5.514  -6.092  0.00  0.00    +0.007 A 
ATOM     33  C   UNL     1      -6.858  -5.930  -7.029  0.00  0.00    +0.033 A 
ATOM     34  C   UNL     1      -8.072  -6.447  -6.617  0.00  0.00    +0.126 A 
ATOM     35  C   UNL     1      -8.358  -6.550  -5.269  0.00  0.00    +0.033 A 
ATOM     36  C   UNL     1      -7.428  -6.139  -4.332  0.00  0.00    +0.007 A 
BRANCH  34  37
ATOM     37  N   UNL     1      -9.066  -6.891  -7.620  0.00  0.00    +0.056 N 
ATOM     38  O   UNL     1      -8.816  -6.800  -8.800  0.00  0.00    -0.126 OA
ATOM     39  O   UNL     1     -10.128  -7.343  -7.260  0.00  0.00    -0.126 OA
ENDBRANCH  34  37
ENDBRANCH  30  31
ENDBRANCH  29  30
ENDBRANCH  12  29
TORSDOF 6
