REMARK  Name = ZINC01873946
REMARK  13 active torsions:
REMARK  status: ('A' for Active; 'I' for Inactive)
REMARK    1  A    between atoms: C_1  and  C_2
REMARK    2  A    between atoms: C_3  and  C_29
REMARK    3  A    between atoms: C_4  and  C_23
REMARK    4  A    between atoms: C_5  and  C_8
REMARK    5  A    between atoms: N_6  and  C_7
REMARK    6  A    between atoms: C_11  and  S_14
REMARK    7  A    between atoms: S_14  and  C_17
REMARK    8  A    between atoms: C_23  and  O_24
REMARK    9  A    between atoms: O_24  and  C_25
REMARK   10  A    between atoms: N_27  and  C_28
REMARK   11  A    between atoms: C_29  and  O_30
REMARK   12  A    between atoms: O_30  and  C_31
REMARK   13  A    between atoms: N_33  and  C_34
REMARK                            x       y       z     vdW  Elec       q    Type
REMARK                         _______ _______ _______ _____ _____    ______ ____
ROOT
ATOM      1  C   UNL     1      -3.173   1.348   3.995  0.00  0.00    +0.064 C 
ATOM      2  C   UNL     1      -2.102   1.676   2.986  0.00  0.00    +0.023 A 
ATOM      3  C   UNL     1      -1.748   0.907   1.934  0.00  0.00    +0.017 A 
ATOM      4  C   UNL     1      -0.718   1.572   1.248  0.00  0.00    +0.022 A 
ATOM      5  C   UNL     1      -0.471   2.734   1.914  0.00  0.00    +0.056 A 
ATOM      6  N   UNL     1      -1.329   2.799   2.981  0.00  0.00    -0.346 N 
ATOM      7  C   UNL     1      -1.399   3.889   3.958  0.00  0.00    +0.149 C 
ENDROOT
BRANCH   5   8
ATOM      8  C   UNL     1       0.541   3.748   1.549  0.00  0.00    -0.001 A 
ATOM      9  C   UNL     1       1.833   3.354   1.196  0.00  0.00    +0.012 A 
ATOM     10  C   UNL     1       2.771   4.305   0.851  0.00  0.00    +0.028 A 
ATOM     11  C   UNL     1       2.437   5.648   0.865  0.00  0.00    +0.094 A 
ATOM     12  C   UNL     1       1.160   6.045   1.218  0.00  0.00    +0.028 A 
ATOM     13  C   UNL     1       0.211   5.104   1.560  0.00  0.00    +0.012 A 
BRANCH  11  14
ATOM     14  S   UNL     1       3.643   6.856   0.430  0.00  0.00    +0.025 S 
ATOM     15  O   UNL     1       4.601   6.198  -0.388  0.00  0.00    -0.164 OA
ATOM     16  O   UNL     1       2.929   8.004  -0.007  0.00  0.00    -0.164 OA
BRANCH  14  17
ATOM     17  C   UNL     1       4.478   7.316   1.912  0.00  0.00    +0.094 A 
ATOM     18  C   UNL     1       4.005   8.368   2.674  0.00  0.00    +0.027 A 
ATOM     19  C   UNL     1       4.657   8.726   3.839  0.00  0.00    +0.002 A 
ATOM     20  C   UNL     1       5.788   8.037   4.237  0.00  0.00    +0.000 A 
ATOM     21  C   UNL     1       6.264   6.989   3.472  0.00  0.00    +0.002 A 
ATOM     22  C   UNL     1       5.609   6.628   2.310  0.00  0.00    +0.027 A 
ENDBRANCH  14  17
ENDBRANCH  11  14
ENDBRANCH   5   8
BRANCH   4  23
ATOM     23  C   UNL     1      -0.013   1.086   0.008  0.00  0.00    +0.271 C 
BRANCH  23  24
ATOM     24  O   UNL     1      -0.715   1.567  -1.168  0.00  0.00    -0.446 OA
BRANCH  24  25
ATOM     25  C   UNL     1      -0.210   1.218  -2.367  0.00  0.00    +0.400 C 
ATOM     26  O   UNL     1       0.790   0.531  -2.428  0.00  0.00    -0.226 OA
ATOM     27  N   UNL     1      -0.814   1.632  -3.498  0.00  0.00    -0.284 N 
ATOM     28  C   UNL     1      -0.264   1.253  -4.803  0.00  0.00    +0.131 C 
ATOM     29  H   UNL     1      -1.612   2.180  -3.450  0.00  0.00    +0.152 HD
ENDBRANCH  24  25
ENDBRANCH  23  24
ENDBRANCH   4  23
BRANCH   3  30
ATOM     30  C   UNL     1      -2.349  -0.423   1.562  0.00  0.00    +0.271 C 
BRANCH  30  31
ATOM     31  O   UNL     1      -1.613  -1.488   2.221  0.00  0.00    -0.446 OA
BRANCH  31  32
ATOM     32  C   UNL     1      -2.026  -2.749   1.992  0.00  0.00    +0.400 C 
ATOM     33  O   UNL     1      -2.975  -2.954   1.262  0.00  0.00    -0.226 OA
ATOM     34  N   UNL     1      -1.386  -3.783   2.572  0.00  0.00    -0.284 N 
ATOM     35  C   UNL     1      -1.835  -5.155   2.323  0.00  0.00    +0.131 C 
ATOM     36  H   UNL     1      -0.628  -3.619   3.155  0.00  0.00    +0.152 HD
ENDBRANCH  31  32
ENDBRANCH  30  31
ENDBRANCH   3  30
TORSDOF 9
