REMARK  Name = ZINC04794961
REMARK  4 active torsions:
REMARK  status: ('A' for Active; 'I' for Inactive)
REMARK    1  A    between atoms: C_1  and  C_2
REMARK    2  A    between atoms: C_3  and  C_10
REMARK    3  A    between atoms: C_7  and  O_9
REMARK    4  A    between atoms: C_10  and  C_11
REMARK                            x       y       z     vdW  Elec       q    Type
REMARK                         _______ _______ _______ _____ _____    ______ ____
ROOT
ATOM      1  C   UNL     1       0.725   3.603  -1.496  0.00  0.00    +0.042 C 
ATOM      2  C   UNL     1      -0.414   2.689  -1.868  0.00  0.00    -0.037 C 
ATOM      3  C   UNL     1      -0.742   1.585  -1.213  0.00  0.00    +0.000 C 
ATOM      4  C   UNL     1      -1.885   0.905  -1.812  0.00  0.00    +0.162 C 
ATOM      5  O   UNL     1      -2.391  -0.126  -1.421  0.00  0.00    -0.292 OA
ATOM      6  C   UNL     1      -2.326   1.722  -3.007  0.00  0.00    +0.115 C 
ATOM      7  C   UNL     1      -1.340   2.904  -3.039  0.00  0.00    +0.148 C 
ENDROOT
BRANCH   7   8
ATOM      8  O   UNL     1      -0.601   2.897  -4.262  0.00  0.00    -0.387 OA
ATOM      9  H   UNL     1      -1.144   3.031  -5.051  0.00  0.00    +0.210 HD
ENDBRANCH   7   8
BRANCH   3  10
ATOM     10  C   UNL     1      -0.013   1.086   0.008  0.00  0.00    +0.065 C 
BRANCH  10  11
ATOM     11  C   UNL     1      -0.718   1.572   1.248  0.00  0.00    -0.030 C 
ATOM     12  C   UNL     1      -1.109   0.714   2.158  0.00  0.00    +0.004 C 
ENDBRANCH  10  11
ENDBRANCH   3  10
TORSDOF 3
