REMARK  Name = ZINC04027226
REMARK  6 active torsions:
REMARK  status: ('A' for Active; 'I' for Inactive)
REMARK    1  A    between atoms: C_1  and  C_2
REMARK    2  A    between atoms: C_13  and  C_15
REMARK    3  A    between atoms: C_15  and  O_17
REMARK    4  A    between atoms: O_17  and  C_18
REMARK    5  A    between atoms: C_22  and  C_29
REMARK    6  A    between atoms: C_25  and  O_28
REMARK                            x       y       z     vdW  Elec       q    Type
REMARK                         _______ _______ _______ _____ _____    ______ ____
ROOT
ATOM      1  C   UNL     1      -0.502   1.161  -5.029  0.00  0.00    +0.012 C 
ATOM      2  C   UNL     1      -0.915   1.635  -3.632  0.00  0.00    -0.016 C 
ATOM      3  C   UNL     1      -1.197   0.463  -2.724  0.00  0.00    +0.008 C 
ATOM      4  C   UNL     1      -2.718   0.221  -2.643  0.00  0.00    +0.005 C 
ATOM      5  C   UNL     1      -3.338   0.498  -4.008  0.00  0.00    +0.003 C 
ATOM      6  C   UNL     1      -3.341   1.991  -4.307  0.00  0.00    +0.000 C 
ATOM      7  C   UNL     1      -2.101   2.614  -3.679  0.00  0.00    -0.001 C 
ATOM      8  C   UNL     1      -1.503   3.804  -4.446  0.00  0.00    +0.005 C 
ATOM      9  C   UNL     1      -0.058   3.899  -3.882  0.00  0.00    +0.015 C 
ATOM     10  C   UNL     1       0.209   2.571  -3.131  0.00  0.00    +0.104 C 
ATOM     11  C   UNL     1      -4.549   2.669  -3.645  0.00  0.00    +0.031 C 
ATOM     12  C   UNL     1      -5.815   1.915  -3.879  0.00  0.00    -0.027 C 
ATOM     13  C   UNL     1      -5.866   0.637  -4.107  0.00  0.00    -0.065 C 
ATOM     14  C   UNL     1      -4.644  -0.215  -4.251  0.00  0.00    -0.008 C 
ATOM     15  C   UNL     1      -4.766  -1.462  -3.373  0.00  0.00    +0.014 C 
ATOM     16  C   UNL     1      -6.100  -2.168  -3.615  0.00  0.00    +0.032 C 
ATOM     17  C   UNL     1      -7.259  -1.229  -3.281  0.00  0.00    +0.119 C 
ATOM     18  C   UNL     1      -7.232  -0.020  -4.219  0.00  0.00    +0.062 C 
ATOM     19  C   UNL     1      -4.599  -0.693  -5.715  0.00  0.00    +0.016 C 
ENDROOT
BRANCH  10  20
ATOM     20  C   UNL     1       1.549   2.008  -3.527  0.00  0.00    +0.310 C 
ATOM     21  O   UNL     1       2.280   1.541  -2.687  0.00  0.00    -0.251 OA
BRANCH  20  22
ATOM     22  O   UNL     1       1.931   2.025  -4.814  0.00  0.00    -0.468 OA
ATOM     23  C   UNL     1       3.234   1.465  -5.123  0.00  0.00    +0.280 C 
ENDBRANCH  20  22
ENDBRANCH  10  20
BRANCH  17  24
ATOM     24  O   UNL     1      -8.496  -1.923  -3.448  0.00  0.00    -0.391 OA
ATOM     25  H   UNL     1      -9.277  -1.388  -3.253  0.00  0.00    +0.210 HD
ENDBRANCH  17  24
TORSDOF 3
