REMARK  Name = ZINC21897407
REMARK  5 active torsions:
REMARK  status: ('A' for Active; 'I' for Inactive)
REMARK    1  A    between atoms: C_7  and  C_11
REMARK    2  A    between atoms: C_11  and  C_12
REMARK    3  A    between atoms: C_12  and  C_14
REMARK    4  A    between atoms: C_12  and  N_22
REMARK    5  A    between atoms: C_23  and  C_25
REMARK                            x       y       z     vdW  Elec       q    Type
REMARK                         _______ _______ _______ _____ _____    ______ ____
ROOT
ATOM      1  C   UNL     1      -4.990   1.630   0.034  0.00  0.00    +0.164 C 
ENDROOT
BRANCH   1   2
ATOM      2  C   UNL     1      -5.210   0.783   1.261  0.00  0.00    +0.236 C 
ATOM      3  O   UNL     1      -4.261   0.318   1.854  0.00  0.00    -0.274 OA
ATOM      4  N   UNL     1      -6.462   0.543   1.698  0.00  0.00    -0.300 N 
ATOM      5  C   UNL     1      -7.622   1.105   0.994  0.00  0.00    +0.108 C 
ATOM      6  C   UNL     1      -8.589  -0.039   0.654  0.00  0.00    +0.019 C 
ATOM      7  C   UNL     1      -8.940  -0.799   1.935  0.00  0.00    +0.003 C 
ATOM      8  C   UNL     1      -7.670  -1.405   2.536  0.00  0.00    +0.019 C 
ATOM      9  C   UNL     1      -6.692  -0.281   2.893  0.00  0.00    +0.108 C 
ENDBRANCH   1   2
BRANCH   1  10
ATOM     10  N   UNL     1      -3.616   2.137   0.030  0.00  0.00    -0.299 N 
ATOM     11  C   UNL     1      -2.580   1.276   0.021  0.00  0.00    +0.251 C 
ATOM     12  O   UNL     1      -2.786   0.076   0.015  0.00  0.00    -0.270 OA
ATOM     13  H   UNL     1      -3.430   3.221   0.035  0.00  0.00    +0.150 HD
BRANCH  11  14
ATOM     14  C   UNL     1      -1.205   1.783   0.017  0.00  0.00    +0.074 A 
ATOM     15  C   UNL     1      -0.013   1.076   0.008  0.00  0.00    +0.021 A 
ATOM     16  C   UNL     1       1.149   1.808   0.001  0.00  0.00    +0.008 A 
ATOM     17  C   UNL     1       1.077   3.165   0.008  0.00  0.00    +0.046 A 
ATOM     18  S   UNL     1      -0.629   3.471   0.026  0.00  0.00    -0.092 S 
ENDBRANCH  11  14
ENDBRANCH   1  10
BRANCH   1  19
ATOM     19  C   UNL     1      -5.225   0.784  -1.219  0.00  0.00    +0.069 C 
BRANCH  19  26
ATOM     20  C   UNL     1      -1.620   2.237  -3.839  0.00  0.00    +0.001 A 
ATOM     21  C   UNL     1      -2.011   3.051  -4.894  0.00  0.00    +0.002 A 
ATOM     22  C   UNL     1      -3.340   3.357  -5.089  0.00  0.00    +0.026 A 
ATOM     23  C   UNL     1      -4.301   2.847  -4.223  0.00  0.00    +0.047 A 
ATOM     24  C   UNL     1      -3.899   2.029  -3.152  0.00  0.00    +0.003 A 
ATOM     25  C   UNL     1      -2.547   1.726  -2.976  0.00  0.00    +0.010 A 
ATOM     26  C   UNL     1      -5.126   1.659  -2.442  0.00  0.00    -0.020 A 
ATOM     27  C   UNL     1      -6.145   2.251  -3.084  0.00  0.00    +0.087 A 
ATOM     28  N   UNL     1      -5.671   2.966  -4.151  0.00  0.00    -0.360 N 
ATOM     29  H   UNL     1      -6.210   3.572  -4.894  0.00  0.00    +0.165 HD
ENDBRANCH  19  26
ENDBRANCH   1  19
TORSDOF 5
