REMARK  Name = ZINC09192936
REMARK  11 active torsions:
REMARK  status: ('A' for Active; 'I' for Inactive)
REMARK    1  A    between atoms: C_1  and  N_63
REMARK    2  A    between atoms: C_2  and  N_63
REMARK    3  A    between atoms: C_3  and  C_4
REMARK    4  A    between atoms: C_3  and  N_63
REMARK    5  A    between atoms: C_4  and  C_5
REMARK    6  A    between atoms: C_5  and  N_6
REMARK    7  A    between atoms: C_9  and  O_35
REMARK    8  A    between atoms: C_10  and  C_24
REMARK    9  A    between atoms: N_18  and  C_21
REMARK   10  A    between atoms: C_21  and  C_22
REMARK   11  A    between atoms: C_24  and  C_26
REMARK                            x       y       z     vdW  Elec       q    Type
REMARK                         _______ _______ _______ _____ _____    ______ ____
ROOT
ATOM      1  N   UNL     1       1.224   0.842   0.056  0.00  0.00    -0.273 N 
ATOM      2  C   UNL     1       1.500  -0.432  -0.286  0.00  0.00    +0.283 C 
ATOM      3  O   UNL     1       1.182  -0.958  -1.334  0.00  0.00    -0.267 OA
ATOM      4  C   UNL     1       2.248  -1.095   0.803  0.00  0.00    +0.189 C 
ATOM      5  C   UNL     1       2.428  -0.216   1.819  0.00  0.00    +0.086 C 
ATOM      6  C   UNL     1       1.779   1.071   1.388  0.00  0.00    +0.174 C 
ATOM      7  C   UNL     1       2.766   2.208   1.386  0.00  0.00    +0.011 A 
ATOM      8  C   UNL     1       3.947   2.432   0.714  0.00  0.00    +0.008 A 
ATOM      9  C   UNL     1       4.652   3.603   0.926  0.00  0.00    +0.000 A 
ATOM     10  C   UNL     1       4.168   4.547   1.814  0.00  0.00    +0.002 A 
ATOM     11  C   UNL     1       2.986   4.326   2.489  0.00  0.00    +0.024 A 
ATOM     12  C   UNL     1       2.269   3.150   2.280  0.00  0.00    +0.043 A 
ATOM     13  N   UNL     1       1.067   2.703   2.833  0.00  0.00    -0.265 N 
ATOM     14  C   UNL     1       0.709   1.494   2.362  0.00  0.00    +0.253 C 
ATOM     15  O   UNL     1      -0.283   0.866   2.664  0.00  0.00    -0.272 OA
ENDROOT
BRANCH   5  16
ATOM     16  C   UNL     1       3.115  -0.470   3.090  0.00  0.00    +0.231 C 
ATOM     17  O   UNL     1       3.536   0.461   3.752  0.00  0.00    -0.283 OA
BRANCH  16  18
ATOM     18  C   UNL     1       3.294  -1.849   3.564  0.00  0.00    +0.176 A 
ATOM     19  C   UNL     1       4.042  -2.216   4.641  0.00  0.00    +0.061 A 
ATOM     20  C   UNL     1       3.929  -3.670   4.734  0.00  0.00    +0.021 A 
ATOM     21  C   UNL     1       4.447  -4.633   5.605  0.00  0.00    +0.011 A 
ATOM     22  C   UNL     1       4.148  -5.952   5.411  0.00  0.00    +0.001 A 
ATOM     23  C   UNL     1       3.332  -6.340   4.357  0.00  0.00    +0.004 A 
ATOM     24  C   UNL     1       2.811  -5.407   3.487  0.00  0.00    +0.047 A 
ATOM     25  C   UNL     1       3.102  -4.059   3.664  0.00  0.00    +0.136 A 
ATOM     26  O   UNL     1       2.748  -2.944   2.995  0.00  0.00    -0.452 OA
ENDBRANCH  16  18
ENDBRANCH   5  16
BRANCH   4  27
ATOM     27  O   UNL     1       2.683  -2.377   0.789  0.00  0.00    -0.502 OA
ATOM     28  H   UNL     1       3.159  -2.576   1.645  0.00  0.00    +0.292 HD
ENDBRANCH   4  27
BRANCH   1  29
ATOM     29  C   UNL     1       0.500   1.820  -0.760  0.00  0.00    +0.108 C 
BRANCH  29  30
ATOM     30  C   UNL     1      -0.996   1.732  -0.453  0.00  0.00    +0.000 C 
BRANCH  30  31
ATOM     31  C   UNL     1      -1.753   2.753  -1.305  0.00  0.00    -0.078 C 
BRANCH  31  34
ATOM     32  C   UNL     1      -3.469   3.090   0.370  0.00  0.00    -0.097 C 
ATOM     33  C   UNL     1      -3.971   3.459  -1.970  0.00  0.00    -0.097 C 
ATOM     34  N   UNL     1      -3.197   2.641  -1.012  0.00  0.00    +0.376 N 
ATOM     35  H   UNL     1      -3.482   1.659  -1.106  0.00  0.00    -0.083 HD
ENDBRANCH  31  34
ENDBRANCH  30  31
ENDBRANCH  29  30
ENDBRANCH   1  29
BRANCH  13  36
ATOM     36  C   UNL     1       0.287   3.462   3.813  0.00  0.00    +0.140 C 
BRANCH  36  37
ATOM     37  C   UNL     1       0.666   3.025   5.205  0.00  0.00    -0.015 C 
ATOM     38  C   UNL     1       1.074   3.909   6.081  0.00  0.00    +0.005 C 
ENDBRANCH  36  37
ENDBRANCH  13  36
TORSDOF 9
