REMARK  Name = ZINC05192326
REMARK  9 active torsions:
REMARK  status: ('A' for Active; 'I' for Inactive)
REMARK    1  A    between atoms: C_1  and  C_2
REMARK    2  A    between atoms: C_2  and  O_3
REMARK    3  A    between atoms: O_3  and  C_4
REMARK    4  A    between atoms: C_7  and  N_10
REMARK    5  A    between atoms: C_12  and  N_17
REMARK    6  A    between atoms: N_20  and  C_21
REMARK    7  A    between atoms: C_24  and  C_31
REMARK    8  A    between atoms: C_27  and  C_29
REMARK    9  A    between atoms: C_27  and  C_30
REMARK                            x       y       z     vdW  Elec       q    Type
REMARK                         _______ _______ _______ _____ _____    ______ ____
ROOT
ATOM      1  N   UNL     1      -6.146  -2.716   1.473  0.00  0.00    -0.270 N 
ATOM      2  C   UNL     1      -5.552  -1.836   0.460  0.00  0.00    +0.136 C 
ATOM      3  C   UNL     1      -4.155  -1.465   1.005  0.00  0.00    +0.101 C 
ATOM      4  C   UNL     1      -4.357  -1.631   2.529  0.00  0.00    +0.120 C 
ATOM      5  C   UNL     1      -5.499  -2.617   2.646  0.00  0.00    +0.222 C 
ATOM      6  O   UNL     1      -5.788  -3.229   3.653  0.00  0.00    -0.275 OA
ENDROOT
BRANCH   1  10
ATOM      7  C   UNL     1      -9.423  -5.205   0.796  0.00  0.00    +0.121 A 
ATOM      8  C   UNL     1      -8.974  -4.361  -0.209  0.00  0.00    +0.047 A 
ATOM      9  C   UNL     1      -7.889  -3.536   0.014  0.00  0.00    +0.027 A 
ATOM     10  C   UNL     1      -7.247  -3.553   1.245  0.00  0.00    +0.037 A 
ATOM     11  C   UNL     1      -7.693  -4.402   2.249  0.00  0.00    +0.027 A 
ATOM     12  C   UNL     1      -8.782  -5.222   2.026  0.00  0.00    +0.047 A 
BRANCH   7  13
ATOM     13  O   UNL     1     -10.491  -6.017   0.575  0.00  0.00    -0.492 OA
BRANCH  13  15
ATOM     14  C   UNL     1     -12.107  -7.694   1.222  0.00  0.00    +0.048 C 
ATOM     15  C   UNL     1     -10.899  -6.860   1.654  0.00  0.00    +0.225 C 
ENDBRANCH  13  15
ENDBRANCH   7  13
ENDBRANCH   1  10
BRANCH   3  16
ATOM     16  N   UNL     1      -3.813  -0.080   0.670  0.00  0.00    -0.295 N 
ATOM     17  C   UNL     1      -2.527   0.324   0.708  0.00  0.00    +0.300 C 
ATOM     18  O   UNL     1      -1.653  -0.460   1.021  0.00  0.00    -0.253 OA
ATOM     19  N   UNL     1      -2.212   1.598   0.400  0.00  0.00    -0.297 N 
ATOM     20  H   UNL     1      -4.511   0.545   0.420  0.00  0.00    +0.151 HD
ATOM     21  H   UNL     1      -2.910   2.223   0.150  0.00  0.00    +0.151 HD
BRANCH  19  22
ATOM     22  C   UNL     1      -0.816   2.037   0.442  0.00  0.00    +0.075 C 
ATOM     23  C   UNL     1      -0.682   3.380  -0.280  0.00  0.00    +0.025 C 
ATOM     24  C   UNL     1      -1.565   4.421   0.410  0.00  0.00    -0.012 C 
ATOM     25  C   UNL     1      -1.123   4.579   1.866  0.00  0.00    +0.009 C 
ATOM     26  C   UNL     1      -1.258   3.237   2.589  0.00  0.00    -0.033 C 
ATOM     27  C   UNL     1      -0.374   2.196   1.898  0.00  0.00    +0.028 C 
ATOM     28  C   UNL     1      -0.816   3.395   4.045  0.00  0.00    +0.011 C 
ATOM     29  C   UNL     1      -2.716   2.778   2.545  0.00  0.00    +0.011 C 
ATOM     30  C   UNL     1      -1.431   5.763  -0.312  0.00  0.00    +0.007 C 
ENDBRANCH  19  22
ENDBRANCH   3  16
TORSDOF 5
