REMARK  Name = ZINC41076967
REMARK  7 active torsions:
REMARK  status: ('A' for Active; 'I' for Inactive)
REMARK    1  A    between atoms: C_1  and  C_2
REMARK    2  A    between atoms: C_2  and  C_3
REMARK    3  A    between atoms: C_2  and  C_4
REMARK    4  A    between atoms: C_4  and  N_5
REMARK    5  A    between atoms: N_5  and  C_6
REMARK    6  A    between atoms: C_6  and  C_7
REMARK    7  A    between atoms: N_21  and  C_22
REMARK                            x       y       z     vdW  Elec       q    Type
REMARK                         _______ _______ _______ _____ _____    ______ ____
ROOT
ATOM      1  N   UNL     1      -1.514  -2.220  -0.239  0.00  0.00    -0.281 N 
ATOM      2  C   UNL     1      -1.552  -2.823  -1.444  0.00  0.00    +0.307 C 
ATOM      3  O   UNL     1      -1.664  -4.032  -1.515  0.00  0.00    -0.252 OA
ATOM      4  N   UNL     1      -1.465  -2.087  -2.569  0.00  0.00    -0.269 N 
ATOM      5  H   UNL     1      -1.456  -1.118  -2.515  0.00  0.00    +0.156 HD
ENDROOT
BRANCH   4   6
ATOM      6  C   UNL     1      -1.388  -2.719  -3.815  0.00  0.00    +0.036 A 
ATOM      7  C   UNL     1      -1.978  -2.135  -4.929  0.00  0.00    +0.023 A 
ATOM      8  C   UNL     1      -1.900  -2.761  -6.158  0.00  0.00    +0.003 A 
ATOM      9  C   UNL     1      -1.237  -3.968  -6.280  0.00  0.00    +0.020 A 
ATOM     10  C   UNL     1      -0.649  -4.553  -5.173  0.00  0.00    +0.043 A 
ATOM     11  C   UNL     1      -0.718  -3.928  -3.941  0.00  0.00    +0.043 A 
ATOM     12 CL   UNL     1       0.183  -6.069  -5.331  0.00  0.00    -0.083 Cl
ENDBRANCH   4   6
BRANCH   1  13
ATOM     13  C   UNL     1      -1.379  -0.764  -0.153  0.00  0.00    +0.112 C 
BRANCH  13  15
ATOM     14  C   UNL     1       0.233   1.141  -0.275  0.00  0.00    +0.009 C 
ATOM     15  C   UNL     1       0.100  -0.383  -0.239  0.00  0.00    +0.000 C 
ATOM     16  C   UNL     1       0.840  -0.931   0.982  0.00  0.00    +0.009 C 
ENDBRANCH  13  15
ENDBRANCH   1  13
BRANCH   1  17
ATOM     17  C   UNL     1      -1.609  -3.021   0.984  0.00  0.00    +0.145 C 
BRANCH  17  18
ATOM     18  C   UNL     1      -3.058  -3.289   1.299  0.00  0.00    -0.016 A 
ATOM     19  C   UNL     1      -3.663  -4.422   0.865  0.00  0.00    +0.076 A 
ATOM     20  C   UNL     1      -5.021  -4.663   1.166  0.00  0.00    +0.249 A 
ATOM     21  O   UNL     1      -5.545  -5.688   0.767  0.00  0.00    -0.268 OA
ATOM     22  N   UNL     1      -5.751  -3.789   1.881  0.00  0.00    -0.322 N 
ATOM     23  H   UNL     1      -6.682  -3.986   2.070  0.00  0.00    +0.169 HD
ATOM     24  C   UNL     1      -5.195  -2.619   2.352  0.00  0.00    +0.049 A 
ATOM     25  C   UNL     1      -3.842  -2.334   2.084  0.00  0.00    +0.003 A 
ATOM     26  C   UNL     1      -3.272  -1.150   2.563  0.00  0.00    +0.010 A 
ATOM     27  C   UNL     1      -4.031  -0.280   3.293  0.00  0.00    +0.001 A 
ATOM     28  C   UNL     1      -5.363  -0.559   3.563  0.00  0.00    +0.002 A 
ATOM     29  C   UNL     1      -5.949  -1.715   3.092  0.00  0.00    +0.026 A 
ENDBRANCH  17  18
ENDBRANCH   1  17
TORSDOF 5
