REMARK  Name = ZINC27318037
REMARK  8 active torsions:
REMARK  status: ('A' for Active; 'I' for Inactive)
REMARK    1  A    between atoms: C_1  and  C_2
REMARK    2  A    between atoms: C_2  and  C_31
REMARK    3  A    between atoms: C_7  and  C_13
REMARK    4  A    between atoms: C_8  and  C_10
REMARK    5  A    between atoms: C_8  and  O_12
REMARK    6  A    between atoms: C_10  and  N_11
REMARK    7  A    between atoms: C_13  and  S_14
REMARK    8  A    between atoms: S_14  and  N_17
REMARK                            x       y       z     vdW  Elec       q    Type
REMARK                         _______ _______ _______ _____ _____    ______ ____
ROOT
ATOM      1  C   UNL     1       0.081   1.897   0.034  0.00  0.00    +0.195 C 
ENDROOT
BRANCH   1   7
ATOM      2  C   UNL     1       0.709   4.658   1.482  0.00  0.00    +0.012 C 
ATOM      3  C   UNL     1      -0.552   3.823   1.712  0.00  0.00    -0.022 C 
ATOM      4  C   UNL     1      -0.898   3.687   3.237  0.00  0.00    -0.002 C 
ATOM      5  C   UNL     1       0.364   2.930   3.752  0.00  0.00    +0.005 C 
ATOM      6  C   UNL     1       0.766   1.995   2.560  0.00  0.00    +0.012 C 
ATOM      7  C   UNL     1      -0.299   2.294   1.462  0.00  0.00    +0.024 C 
ATOM      8  C   UNL     1      -1.629   1.689   2.006  0.00  0.00    +0.059 C 
ATOM      9  C   UNL     1      -2.026   2.611   3.182  0.00  0.00    +0.037 C 
ATOM     10  C   UNL     1      -1.737   4.349   0.899  0.00  0.00    +0.012 C 
BRANCH   8  11
ATOM     11  O   UNL     1      -2.638   1.711   0.994  0.00  0.00    -0.390 OA
ATOM     12  H   UNL     1      -3.643   1.319   1.210  0.00  0.00    +0.210 HD
ENDBRANCH   8  11
BRANCH   8  13
ATOM     13  C   UNL     1      -1.401   0.260   2.503  0.00  0.00    -0.051 C 
BRANCH  13  14
ATOM     14  N   UNL     1      -2.676  -0.309   2.960  0.00  0.00    +0.380 N 
ATOM     15  H   UNL     1      -2.512  -1.336   3.317  0.00  0.00    -0.090 HD
ATOM     16  H   UNL     1      -3.393  -0.320   2.126  0.00  0.00    -0.090 HD
ATOM     17  H   UNL     1      -3.078   0.305   3.780  0.00  0.00    -0.090 HD
ENDBRANCH  13  14
ENDBRANCH   8  13
ENDBRANCH   1   7
BRANCH   1  18
ATOM     18  S   UNL     1       0.228   0.091  -0.072  0.00  0.00    +0.032 S 
ATOM     19  O   UNL     1       1.180  -0.379   0.872  0.00  0.00    -0.158 OA
ATOM     20  O   UNL     1      -1.062  -0.500  -0.157  0.00  0.00    -0.158 OA
BRANCH  18  21
ATOM     21  N   UNL     1       0.920  -0.193  -1.549  0.00  0.00    -0.181 NA
ATOM     22  C   UNL     1       0.085  -0.390  -2.742  0.00  0.00    +0.110 C 
ATOM     23  C   UNL     1       0.540   0.602  -3.824  0.00  0.00    +0.033 C 
ATOM     24  C   UNL     1       2.039   0.437  -4.063  0.00  0.00    +0.017 C 
ATOM     25  C   UNL     1       2.817   0.725  -2.780  0.00  0.00    +0.033 C 
ATOM     26  C   UNL     1       2.381  -0.260  -1.690  0.00  0.00    +0.110 C 
ATOM     27  C   UNL     1       2.338  -0.960  -4.549  0.00  0.00    -0.015 C 
ATOM     28  C   UNL     1       2.883  -0.871  -5.751  0.00  0.00    +0.005 C 
ATOM     29  C   UNL     1       3.002   0.536  -6.176  0.00  0.00    -0.021 A 
ATOM     30  C   UNL     1       2.495   1.358  -5.166  0.00  0.00    -0.030 A 
ATOM     31  C   UNL     1       2.491   2.725  -5.316  0.00  0.00    +0.005 A 
ATOM     32  C   UNL     1       2.990   3.295  -6.475  0.00  0.00    +0.000 A 
ATOM     33  C   UNL     1       3.494   2.492  -7.482  0.00  0.00    +0.001 A 
ATOM     34  C   UNL     1       3.503   1.120  -7.341  0.00  0.00    +0.008 A 
ENDBRANCH  18  21
ENDBRANCH   1  18
TORSDOF 6
