REMARK  Name = ZINC16742615
REMARK  7 active torsions:
REMARK  status: ('A' for Active; 'I' for Inactive)
REMARK    1  A    between atoms: C_1  and  C_2
REMARK    2  A    between atoms: C_5  and  C_8
REMARK    3  A    between atoms: C_8  and  N_9
REMARK    4  A    between atoms: C_10  and  C_26
REMARK    5  A    between atoms: C_29  and  O_32
REMARK    6  A    between atoms: O_32  and  C_33
REMARK    7  A    between atoms: C_33  and  C_34
REMARK                            x       y       z     vdW  Elec       q    Type
REMARK                         _______ _______ _______ _____ _____    ______ ____
ROOT
ATOM      1  N   UNL     1      -2.255   0.737   0.028  0.00  0.00    -0.279 N 
ATOM      2  C   UNL     1      -1.428  -0.477   0.014  0.00  0.00    +0.145 C 
ATOM      3  C   UNL     1       0.002  -0.004   0.002  0.00  0.00    +0.072 A 
ATOM      4  C   UNL     1       1.283  -0.716  -0.014  0.00  0.00    +0.199 A 
ATOM      5  O   UNL     1       1.338  -1.933  -0.021  0.00  0.00    -0.287 OA
ATOM      6  C   UNL     1       2.503   0.115  -0.021  0.00  0.00    +0.066 A 
ATOM      7  C   UNL     1       3.773  -0.459  -0.035  0.00  0.00    +0.035 A 
ATOM      8  C   UNL     1       4.886   0.354  -0.040  0.00  0.00    +0.042 A 
ATOM      9  C   UNL     1       4.741   1.736  -0.031  0.00  0.00    +0.023 A 
ATOM     10  C   UNL     1       3.490   2.314  -0.017  0.00  0.00    +0.048 A 
ATOM     11  C   UNL     1       2.353   1.512  -0.012  0.00  0.00    +0.140 A 
ATOM     12  O   UNL     1       1.126   2.066   0.002  0.00  0.00    -0.450 OA
ATOM     13  C   UNL     1      -0.016   1.351   0.009  0.00  0.00    +0.199 A 
ATOM     14  C   UNL     1      -1.431   1.799   0.032  0.00  0.00    +0.283 C 
ATOM     15  O   UNL     1      -1.793   2.959   0.043  0.00  0.00    -0.267 OA
ATOM     16 CL   UNL     1       6.473  -0.349  -0.058  0.00  0.00    -0.084 Cl
ENDROOT
BRANCH   2  17
ATOM     17  C   UNL     1      -1.717  -1.287  -1.224  0.00  0.00    -0.022 A 
ATOM     18  C   UNL     1      -1.959  -0.648  -2.426  0.00  0.00    +0.009 A 
ATOM     19  C   UNL     1      -2.219  -1.389  -3.563  0.00  0.00    +0.046 A 
ATOM     20  C   UNL     1      -2.248  -2.774  -3.495  0.00  0.00    +0.121 A 
ATOM     21  C   UNL     1      -2.011  -3.412  -2.287  0.00  0.00    +0.046 A 
ATOM     22  C   UNL     1      -1.746  -2.667  -1.154  0.00  0.00    +0.009 A 
BRANCH  20  23
ATOM     23  O   UNL     1      -2.508  -3.505  -4.611  0.00  0.00    -0.483 OA
BRANCH  23  24
ATOM     24  C   UNL     1      -2.743  -2.780  -5.821  0.00  0.00    +0.324 C 
BRANCH  24  25
ATOM     25  C   UNL     1      -3.012  -3.750  -6.943  0.00  0.00    +0.248 C 
ATOM     26  O   UNL     1      -3.004  -4.943  -6.728  0.00  0.00    -0.272 OA
ATOM     27  N   UNL     1      -3.261  -3.291  -8.185  0.00  0.00    -0.327 N 
ATOM     28  H   UNL     1      -3.268  -2.336  -8.357  0.00  0.00    +0.145 HD
ATOM     29  H   UNL     1      -3.435  -3.915  -8.907  0.00  0.00    +0.145 HD
ENDBRANCH  24  25
ENDBRANCH  23  24
ENDBRANCH  20  23
ENDBRANCH   2  17
BRANCH   1  30
ATOM     30  C   UNL     1      -3.719   0.781   0.044  0.00  0.00    +0.144 C 
BRANCH  30  35
ATOM     31  C   UNL     1      -5.589   0.813   5.512  0.00  0.00    +0.044 C 
ATOM     32  C   UNL     1      -5.101   0.805   4.086  0.00  0.00    -0.050 A 
ATOM     33  C   UNL     1      -4.840   1.997   3.438  0.00  0.00    +0.003 A 
ATOM     34  C   UNL     1      -4.393   1.990   2.130  0.00  0.00    +0.005 A 
ATOM     35  C   UNL     1      -4.206   0.789   1.470  0.00  0.00    -0.030 A 
ATOM     36  C   UNL     1      -4.472  -0.403   2.116  0.00  0.00    +0.005 A 
ATOM     37  C   UNL     1      -4.915  -0.396   3.426  0.00  0.00    +0.003 A 
ENDBRANCH  30  35
ENDBRANCH   1  30
TORSDOF 6
