REMARK  Name = ZINC41602665
REMARK  5 active torsions:
REMARK  status: ('A' for Active; 'I' for Inactive)
REMARK    1  A    between atoms: C_4  and  C_7
REMARK    2  A    between atoms: C_7  and  N_8
REMARK    3  A    between atoms: N_19  and  C_20
REMARK    4  A    between atoms: C_20  and  C_21
REMARK    5  A    between atoms: C_21  and  C_22
REMARK                            x       y       z     vdW  Elec       q    Type
REMARK                         _______ _______ _______ _____ _____    ______ ____
ROOT
ATOM      1  N   UNL     1       4.153  -0.953   1.342  0.00  0.00    +0.385 N 
ATOM      2  C   UNL     1       5.486  -1.576   1.328  0.00  0.00    -0.072 C 
ATOM      3  C   UNL     1       6.047  -1.556   2.751  0.00  0.00    +0.037 C 
ATOM      4  C   UNL     1       5.032  -2.126   3.708  0.00  0.00    +0.050 A 
ATOM      5  C   UNL     1       3.725  -2.260   3.360  0.00  0.00    +0.022 A 
ATOM      6  C   UNL     1       2.821  -2.794   4.301  0.00  0.00    +0.254 A 
ATOM      7  O   UNL     1       1.640  -2.922   4.021  0.00  0.00    -0.268 OA
ATOM      8  N   UNL     1       3.282  -3.162   5.514  0.00  0.00    -0.295 N 
ATOM      9  H   UNL     1       2.676  -3.533   6.174  0.00  0.00    +0.172 HD
ATOM     10  C   UNL     1       4.602  -3.009   5.805  0.00  0.00    +0.196 A 
ATOM     11  N   UNL     1       5.439  -2.506   4.922  0.00  0.00    -0.221 NA
ATOM     12  N   UNL     1       5.068  -3.385   7.036  0.00  0.00    -0.315 N 
ATOM     13  C   UNL     1       3.211  -1.860   2.005  0.00  0.00    -0.035 C 
ATOM     14  H   UNL     1       4.458  -3.757   7.693  0.00  0.00    +0.149 HD
ATOM     15  H   UNL     1       4.192  -0.079   1.845  0.00  0.00    -0.081 HD
ENDROOT
BRANCH   1  16
ATOM     16  C   UNL     1       3.711  -0.707  -0.038  0.00  0.00    -0.043 C 
BRANCH  16  20
ATOM     17  C   UNL     1      -0.017   1.378   0.010  0.00  0.00    +0.000 A 
ATOM     18  C   UNL     1       1.171   2.086   0.002  0.00  0.00    +0.000 A 
ATOM     19  C   UNL     1       2.377   1.411  -0.013  0.00  0.00    +0.002 A 
ATOM     20  C   UNL     1       2.396   0.029  -0.020  0.00  0.00    -0.064 A 
ATOM     21  C   UNL     1       1.208  -0.679  -0.012  0.00  0.00    +0.002 A 
ATOM     22  C   UNL     1       0.002  -0.004   0.002  0.00  0.00    +0.000 A 
ENDBRANCH  16  20
ENDBRANCH   1  16
BRANCH  12  23
ATOM     23  C   UNL     1       6.487  -3.226   7.363  0.00  0.00    +0.108 C 
BRANCH  23  24
ATOM     24  C   UNL     1       6.741  -3.719   8.789  0.00  0.00    +0.049 C 
BRANCH  24  25
ATOM     25  C   UNL     1       8.201  -3.555   9.125  0.00  0.00    -0.072 C 
ATOM     26  C   UNL     1       8.563  -2.483   9.754  0.00  0.00    -0.028 C 
ATOM     27  C   UNL     1       9.978  -2.176  10.146  0.00  0.00    +0.027 C 
ATOM     28  C   UNL     1      10.828  -3.447  10.091  0.00  0.00    +0.004 C 
ATOM     29  C   UNL     1      10.587  -4.134   8.741  0.00  0.00    +0.005 C 
ATOM     30  C   UNL     1       9.144  -4.648   8.714  0.00  0.00    +0.030 C 
ENDBRANCH  24  25
ENDBRANCH  23  24
ENDBRANCH  12  23
TORSDOF 5
