REMARK  Name = ZINC59741673
REMARK  6 active torsions:
REMARK  status: ('A' for Active; 'I' for Inactive)
REMARK    1  A    between atoms: C_1  and  C_2
REMARK    2  A    between atoms: C_4  and  C_8
REMARK    3  A    between atoms: C_5  and  C_7
REMARK    4  A    between atoms: C_11  and  C_12
REMARK    5  A    between atoms: C_15  and  O_18
REMARK    6  A    between atoms: O_18  and  C_19
REMARK                            x       y       z     vdW  Elec       q    Type
REMARK                         _______ _______ _______ _____ _____    ______ ____
ROOT
ATOM      1  C   UNL     1      -1.369  -3.419   0.011  0.00  0.00    +0.235 C 
ATOM      2  N   UNL     1      -0.875  -4.615  -0.162  0.00  0.00    -0.205 NA
ATOM      3  C   UNL     1      -1.857  -5.538   0.060  0.00  0.00    +0.152 C 
ATOM      4  C   UNL     1      -1.746  -6.910  -0.019  0.00  0.00    +0.043 C 
ATOM      5  C   UNL     1      -3.059  -4.758   0.403  0.00  0.00    +0.364 C 
ATOM      6  O   UNL     1      -4.165  -5.186   0.676  0.00  0.00    -0.243 OA
ATOM      7  O   UNL     1      -2.670  -3.465   0.355  0.00  0.00    -0.402 OA
ENDROOT
BRANCH   1  11
ATOM      8  C   UNL     1      -0.046   1.508  -0.144  0.00  0.00    +0.086 C 
ATOM      9  C   UNL     1      -0.032   0.002  -0.208  0.00  0.00    +0.103 A 
ATOM     10  C   UNL     1      -1.082  -0.797   0.039  0.00  0.00    +0.058 A 
ATOM     11  C   UNL     1      -0.596  -2.172  -0.145  0.00  0.00    +0.078 A 
ATOM     12  C   UNL     1       0.718  -2.055  -0.490  0.00  0.00    +0.114 A 
ATOM     13  O   UNL     1       1.030  -0.754  -0.527  0.00  0.00    -0.464 OA
ATOM     14  C   UNL     1       1.657  -3.196  -0.784  0.00  0.00    +0.087 C 
ENDBRANCH   1  11
BRANCH   4  15
ATOM     15  C   UNL     1      -2.942  -7.748   0.090  0.00  0.00    -0.023 A 
ATOM     16  C   UNL     1      -4.143  -7.344  -0.510  0.00  0.00    +0.011 A 
ATOM     17  C   UNL     1      -5.259  -8.133  -0.404  0.00  0.00    +0.046 A 
ATOM     18  C   UNL     1      -5.202  -9.333   0.297  0.00  0.00    +0.130 A 
ATOM     19  C   UNL     1      -4.013  -9.740   0.894  0.00  0.00    +0.046 A 
ATOM     20  C   UNL     1      -2.889  -8.962   0.790  0.00  0.00    +0.011 A 
BRANCH  18  21
ATOM     21  O   UNL     1      -6.310 -10.110   0.399  0.00  0.00    -0.406 OA
BRANCH  21  22
ATOM     22  C   UNL     1      -6.182 -11.329   1.133  0.00  0.00    +0.575 C 
ATOM     23  F   UNL     1      -5.801 -11.045   2.448  0.00  0.00    -0.133 F 
ATOM     24  F   UNL     1      -7.409 -12.001   1.138  0.00  0.00    -0.133 F 
ATOM     25  F   UNL     1      -5.212 -12.137   0.530  0.00  0.00    -0.133 F 
ENDBRANCH  21  22
ENDBRANCH  18  21
ENDBRANCH   4  15
TORSDOF 4
