REMARK  Name = ZINC55503801
REMARK  5 active torsions:
REMARK  status: ('A' for Active; 'I' for Inactive)
REMARK    1  A    between atoms: C_1  and  C_2
REMARK    2  A    between atoms: C_5  and  N_9
REMARK    3  A    between atoms: C_6  and  C_8
REMARK    4  A    between atoms: C_10  and  C_12
REMARK    5  A    between atoms: C_12  and  C_13
REMARK                            x       y       z     vdW  Elec       q    Type
REMARK                         _______ _______ _______ _____ _____    ______ ____
ROOT
ATOM      1  C   UNL     1      -0.235  -6.840  -2.606  0.00  0.00    +0.120 A 
ATOM      2  N   UNL     1      -0.335  -8.173  -2.840  0.00  0.00    -0.310 N 
ATOM      3  H   UNL     1      -0.340  -8.788  -2.090  0.00  0.00    +0.170 HD
ATOM      4  C   UNL     1      -0.427  -8.660  -4.092  0.00  0.00    +0.260 A 
ATOM      5  O   UNL     1      -0.518  -9.860  -4.286  0.00  0.00    -0.267 OA
ATOM      6  C   UNL     1      -0.418  -7.741  -5.192  0.00  0.00    +0.075 A 
ATOM      7  C   UNL     1      -0.505  -8.054  -6.628  0.00  0.00    -0.021 A 
ATOM      8  C   UNL     1      -0.480  -7.007  -7.469  0.00  0.00    +0.006 A 
ATOM      9  S   UNL     1      -0.333  -5.572  -6.427  0.00  0.00    -0.072 S 
ATOM     10  C   UNL     1      -0.312  -6.387  -4.853  0.00  0.00    +0.116 A 
ATOM     11  N   UNL     1      -0.230  -5.979  -3.589  0.00  0.00    -0.226 NA
ATOM     12  C   UNL     1      -0.564  -6.965  -8.971  0.00  0.00    +0.111 C 
ATOM     13  S   UNL     1      -0.252  -8.640  -9.610  0.00  0.00    -0.155 S 
ATOM     14  C   UNL     1      -1.206  -9.664  -8.444  0.00  0.00    +0.074 C 
ATOM     15  C   UNL     1      -0.602  -9.513  -7.055  0.00  0.00    +0.047 C 
ENDROOT
BRANCH   1  16
ATOM     16  C   UNL     1      -0.134  -6.343  -1.187  0.00  0.00    +0.170 C 
BRANCH  16  18
ATOM     17  N   UNL     1       0.059  -4.170  -0.021  0.00  0.00    -0.285 N 
ATOM     18  C   UNL     1      -0.040  -4.839  -1.187  0.00  0.00    +0.225 C 
ATOM     19  O   UNL     1      -0.054  -4.230  -2.236  0.00  0.00    -0.275 OA
ATOM     20  H   UNL     1       0.135  -4.658   0.814  0.00  0.00    +0.155 HD
BRANCH  17  25
ATOM     21  C   UNL     1       0.025   1.503   0.005  0.00  0.00    +0.044 C 
ATOM     22  C   UNL     1       0.034  -0.004  -0.002  0.00  0.00    -0.050 A 
ATOM     23  C   UNL     1       0.632  -0.685  -1.046  0.00  0.00    +0.005 A 
ATOM     24  C   UNL     1       0.641  -2.066  -1.055  0.00  0.00    +0.024 A 
ATOM     25  C   UNL     1       0.051  -2.771  -0.014  0.00  0.00    +0.036 A 
ATOM     26  C   UNL     1      -0.548  -2.083   1.033  0.00  0.00    -0.029 A 
ATOM     27  C   UNL     1      -0.550  -0.702   1.039  0.00  0.00    +0.008 A 
ATOM     28  C   UNL     1      -1.190  -2.843   2.165  0.00  0.00    +0.045 C 
ENDBRANCH  17  25
ENDBRANCH  16  18
ENDBRANCH   1  16
TORSDOF 3
