REMARK  Name = ZINC08788926
REMARK  5 active torsions:
REMARK  status: ('A' for Active; 'I' for Inactive)
REMARK    1  A    between atoms: C_1  and  C_2
REMARK    2  A    between atoms: C_8  and  C_9
REMARK    3  A    between atoms: C_8  and  N_54
REMARK    4  A    between atoms: C_10  and  O_32
REMARK    5  A    between atoms: C_19  and  C_20
REMARK                            x       y       z     vdW  Elec       q    Type
REMARK                         _______ _______ _______ _____ _____    ______ ____
ROOT
ATOM      1  C   UNL     1      -2.825   2.950  -2.629  0.00  0.00    +0.020 A 
ATOM      2  C   UNL     1      -1.788   3.555  -3.319  0.00  0.00    +0.122 A 
ATOM      3  C   UNL     1      -1.764   4.937  -3.490  0.00  0.00    +0.046 A 
ATOM      4  C   UNL     1      -2.766   5.713  -2.979  0.00  0.00    +0.016 A 
ATOM      5  C   UNL     1      -3.818   5.118  -2.281  0.00  0.00    +0.026 A 
ATOM      6  C   UNL     1      -3.852   3.724  -2.109  0.00  0.00    +0.144 A 
ATOM      7  O   UNL     1      -4.869   3.151  -1.429  0.00  0.00    -0.422 OA
ATOM      8  C   UNL     1      -5.873   3.876  -0.910  0.00  0.00    +0.338 A 
ATOM      9  O   UNL     1      -6.767   3.304  -0.310  0.00  0.00    -0.245 OA
ATOM     10  C   UNL     1      -5.923   5.272  -1.039  0.00  0.00    +0.101 A 
ATOM     11  C   UNL     1      -4.911   5.931  -1.719  0.00  0.00    +0.006 A 
ENDROOT
BRANCH  11  12
ATOM     12  C   UNL     1      -4.928   7.397  -1.875  0.00  0.00    +0.068 A 
ATOM     13  C   UNL     1      -4.817   8.224  -0.773  0.00  0.00    +0.027 A 
ATOM     14  C   UNL     1      -4.838   9.629  -0.969  0.00  0.00    +0.020 A 
ATOM     15  C   UNL     1      -4.727  10.495   0.129  0.00  0.00    +0.031 A 
ATOM     16  C   UNL     1      -4.748  11.856  -0.071  0.00  0.00    +0.042 A 
ATOM     17  C   UNL     1      -4.879  12.374  -1.353  0.00  0.00    +0.023 A 
ATOM     18  C   UNL     1      -4.989  11.536  -2.442  0.00  0.00    +0.048 A 
ATOM     19  C   UNL     1      -4.970  10.157  -2.265  0.00  0.00    +0.139 A 
ATOM     20  O   UNL     1      -5.079   9.341  -3.337  0.00  0.00    -0.422 OA
ATOM     21  C   UNL     1      -5.058   8.005  -3.205  0.00  0.00    +0.345 A 
ATOM     22  O   UNL     1      -5.152   7.296  -4.190  0.00  0.00    -0.245 OA
ATOM     23 CL   UNL     1      -4.612  12.931   1.286  0.00  0.00    -0.084 Cl
ENDBRANCH  11  12
BRANCH   2  24
ATOM     24  O   UNL     1      -0.786   2.796  -3.833  0.00  0.00    -0.506 OA
ATOM     25  H   UNL     1      -0.948   2.490  -4.736  0.00  0.00    +0.292 HD
ENDBRANCH   2  24
BRANCH   1  26
ATOM     26  C   UNL     1      -2.842   1.453  -2.450  0.00  0.00    -0.036 C 
BRANCH  26  33
ATOM     27  C   UNL     1       1.422   1.616  -0.003  0.00  0.00    +0.005 C 
ATOM     28  C   UNL     1      -0.013   1.086   0.008  0.00  0.00    -0.031 C 
ATOM     29  C   UNL     1      -0.731   1.580   1.267  0.00  0.00    -0.001 C 
ATOM     30  C   UNL     1      -2.183   1.095   1.240  0.00  0.00    -0.018 C 
ATOM     31  C   UNL     1      -2.862   1.602  -0.033  0.00  0.00    -0.078 C 
ATOM     32  C   UNL     1      -0.754   1.594  -1.231  0.00  0.00    -0.075 C 
ATOM     33  N   UNL     1      -2.138   1.071  -1.208  0.00  0.00    +0.383 N 
ATOM     34  H   UNL     1      -2.106   0.047  -1.145  0.00  0.00    -0.081 HD
ENDBRANCH  26  33
ENDBRANCH   1  26
TORSDOF 4
