REMARK  Name = ZINC34853243
REMARK  8 active torsions:
REMARK  status: ('A' for Active; 'I' for Inactive)
REMARK    1  A    between atoms: C_1  and  N_2
REMARK    2  A    between atoms: C_5  and  N_8
REMARK    3  A    between atoms: N_8  and  C_9
REMARK    4  A    between atoms: N_8  and  C_19
REMARK    5  A    between atoms: C_9  and  C_10
REMARK    6  A    between atoms: C_19  and  N_21
REMARK    7  A    between atoms: N_21  and  C_22
REMARK    8  A    between atoms: C_27  and  C_28
REMARK                            x       y       z     vdW  Elec       q    Type
REMARK                         _______ _______ _______ _____ _____    ______ ____
ROOT
ATOM      1  N   UNL     1       1.266  -3.985  -0.015  0.00  0.00    -0.305 N 
ENDROOT
BRANCH   1   6
ATOM      2  C   UNL     1       3.476   1.188  -0.421  0.00  0.00    -0.096 C 
ATOM      3  N   UNL     1       3.194  -0.249  -0.305  0.00  0.00    +0.378 N 
ATOM      4  C   UNL     1       2.415  -0.496   0.914  0.00  0.00    -0.077 C 
ATOM      5  C   UNL     1       2.187  -2.000   1.082  0.00  0.00    +0.004 C 
ATOM      6  C   UNL     1       1.421  -2.533  -0.132  0.00  0.00    +0.072 C 
ATOM      7  C   UNL     1       2.207  -2.204  -1.405  0.00  0.00    +0.004 C 
ATOM      8  C   UNL     1       2.434  -0.692  -1.480  0.00  0.00    -0.077 C 
ATOM      9  H   UNL     1       4.063  -0.758  -0.256  0.00  0.00    -0.082 HD
ENDBRANCH   1   6
BRANCH   1  10
ATOM     10  C   UNL     1       0.041  -4.520   0.158  0.00  0.00    +0.138 C 
ATOM     11  S   UNL     1      -0.131  -6.208   0.392  0.00  0.00    -0.018 S 
BRANCH  10  12
ATOM     12  N   UNL     1      -1.049  -3.727   0.146  0.00  0.00    -0.296 N 
ATOM     13  H   UNL     1      -1.464  -3.461   0.982  0.00  0.00    +0.154 HD
BRANCH  12  14
ATOM     14  C   UNL     1      -1.581  -3.288  -1.071  0.00  0.00    +0.046 A 
ATOM     15  C   UNL     1      -1.059  -3.758  -2.268  0.00  0.00    +0.043 A 
ATOM     16  C   UNL     1      -1.587  -3.322  -3.469  0.00  0.00    +0.043 A 
ATOM     17  C   UNL     1      -2.635  -2.417  -3.477  0.00  0.00    +0.020 A 
ATOM     18  C   UNL     1      -3.155  -1.947  -2.285  0.00  0.00    +0.015 A 
ATOM     19  C   UNL     1      -2.636  -2.384  -1.083  0.00  0.00    +0.076 A 
ATOM     20 CL   UNL     1      -0.937  -3.909  -4.967  0.00  0.00    -0.083 Cl
BRANCH  19  21
ATOM     21  C   UNL     1      -3.209  -1.877   0.215  0.00  0.00    +0.419 C 
ATOM     22  F   UNL     1      -4.253  -0.986  -0.053  0.00  0.00    -0.166 F 
ATOM     23  F   UNL     1      -3.695  -2.954   0.963  0.00  0.00    -0.166 F 
ATOM     24  F   UNL     1      -2.209  -1.219   0.941  0.00  0.00    -0.166 F 
ENDBRANCH  19  21
ENDBRANCH  12  14
ENDBRANCH  10  12
ENDBRANCH   1  10
BRANCH   1  25
ATOM     25  C   UNL     1       2.442  -4.856  -0.084  0.00  0.00    +0.142 C 
BRANCH  25  26
ATOM     26  C   UNL     1       2.964  -5.108   1.307  0.00  0.00    -0.026 A 
ATOM     27  C   UNL     1       4.008  -4.348   1.800  0.00  0.00    +0.009 A 
ATOM     28  C   UNL     1       4.490  -4.575   3.076  0.00  0.00    +0.050 A 
ATOM     29  C   UNL     1       3.926  -5.566   3.863  0.00  0.00    +0.166 A 
ATOM     30  C   UNL     1       2.874  -6.331   3.367  0.00  0.00    +0.167 A 
ATOM     31  C   UNL     1       2.393  -6.094   2.089  0.00  0.00    +0.054 A 
ATOM     32  O   UNL     1       2.499  -7.230   4.323  0.00  0.00    -0.453 OA
ATOM     33  C   UNL     1       3.596  -7.282   5.254  0.00  0.00    +0.466 C 
ATOM     34  O   UNL     1       4.210  -5.985   5.131  0.00  0.00    -0.453 OA
ENDBRANCH  25  26
ENDBRANCH   1  25
TORSDOF 7
