REMARK  Name = ZINC43460530
REMARK  5 active torsions:
REMARK  status: ('A' for Active; 'I' for Inactive)
REMARK    1  A    between atoms: C_1  and  C_2
REMARK    2  A    between atoms: C_2  and  C_19
REMARK    3  A    between atoms: C_9  and  O_13
REMARK    4  A    between atoms: O_13  and  C_14
REMARK    5  A    between atoms: C_14  and  C_15
REMARK                            x       y       z     vdW  Elec       q    Type
REMARK                         _______ _______ _______ _____ _____    ______ ____
ROOT
ATOM      1  C   UNL     1      -0.019   1.526   0.010  0.00  0.00    +0.056 C 
ATOM      2  C   UNL     1       0.002  -0.004   0.002  0.00  0.00    +0.112 C 
ATOM      3  C   UNL     1      -1.438  -0.536   0.016  0.00  0.00    +0.127 C 
ATOM      4  C   UNL     1      -1.357  -2.052   0.041  0.00  0.00    +0.170 C 
ATOM      5  O   UNL     1      -2.113  -2.743  -0.610  0.00  0.00    -0.292 OA
ATOM      6  C   UNL     1      -0.314  -2.640   0.895  0.00  0.00    +0.059 A 
ATOM      7  C   UNL     1      -0.315  -4.008   1.183  0.00  0.00    +0.018 A 
ATOM      8  C   UNL     1       0.667  -4.536   1.972  0.00  0.00    +0.046 A 
ATOM      9  C   UNL     1       1.667  -3.717   2.490  0.00  0.00    +0.124 A 
ATOM     10  C   UNL     1       1.679  -2.358   2.215  0.00  0.00    +0.092 A 
ATOM     11  C   UNL     1       0.690  -1.806   1.419  0.00  0.00    +0.135 A 
ATOM     12  O   UNL     1       0.692  -0.477   1.158  0.00  0.00    -0.485 OA
ATOM     13  C   UNL     1       0.717  -0.498  -1.257  0.00  0.00    +0.056 C 
ENDROOT
BRANCH   9  14
ATOM     14  O   UNL     1       2.639  -4.254   3.270  0.00  0.00    -0.483 OA
BRANCH  14  15
ATOM     15  C   UNL     1       2.570  -5.660   3.516  0.00  0.00    +0.342 C 
BRANCH  15  16
ATOM     16  C   UNL     1       3.740  -6.080   4.409  0.00  0.00    +0.424 C 
ATOM     17  F   UNL     1       3.671  -5.390   5.624  0.00  0.00    -0.167 F 
ATOM     18  F   UNL     1       3.673  -7.456   4.650  0.00  0.00    -0.167 F 
ATOM     19  F   UNL     1       4.947  -5.776   3.769  0.00  0.00    -0.167 F 
ENDBRANCH  15  16
ENDBRANCH  14  15
ENDBRANCH   9  14
TORSDOF 3
