REMARK  Name = ZINC60336846
REMARK  5 active torsions:
REMARK  status: ('A' for Active; 'I' for Inactive)
REMARK    1  A    between atoms: C_4  and  N_26
REMARK    2  A    between atoms: C_5  and  C_7
REMARK    3  A    between atoms: C_7  and  N_8
REMARK    4  A    between atoms: C_9  and  C_11
REMARK    5  A    between atoms: C_17  and  C_19
REMARK                            x       y       z     vdW  Elec       q    Type
REMARK                         _______ _______ _______ _____ _____    ______ ____
ROOT
ATOM      1  N   UNL     1       1.518  -2.662   1.372  0.00  0.00    -0.310 N 
ATOM      2  C   UNL     1       1.570  -3.990   1.595  0.00  0.00    +0.234 C 
ATOM      3  O   UNL     1       1.401  -4.766   0.678  0.00  0.00    -0.274 OA
ATOM      4  H   UNL     1       1.654  -2.042   2.105  0.00  0.00    +0.149 HD
ENDROOT
BRANCH   2   5
ATOM      5  C   UNL     1       1.839  -4.511   2.983  0.00  0.00    +0.162 C 
ATOM      6  C   UNL     1       0.717  -4.056   3.941  0.00  0.00    +0.033 C 
ATOM      7  C   UNL     1      -0.225  -5.288   3.983  0.00  0.00    +0.021 C 
ATOM      8  C   UNL     1       0.788  -6.457   3.897  0.00  0.00    +0.109 C 
ATOM      9  N   UNL     1       1.840  -5.981   2.974  0.00  0.00    -0.286 N 
ATOM     10  C   UNL     1       2.661  -6.762   2.244  0.00  0.00    +0.247 C 
ATOM     11  O   UNL     1       3.419  -6.260   1.438  0.00  0.00    -0.270 OA
BRANCH  10  12
ATOM     12  C   UNL     1       2.641  -8.229   2.426  0.00  0.00    +0.037 A 
ATOM     13  C   UNL     1       3.071  -9.068   1.396  0.00  0.00    +0.014 A 
ATOM     14  C   UNL     1       3.049 -10.436   1.571  0.00  0.00    +0.016 A 
ATOM     15  C   UNL     1       2.603 -10.977   2.765  0.00  0.00    +0.018 A 
ATOM     16  C   UNL     1       2.175 -10.150   3.790  0.00  0.00    +0.016 A 
ATOM     17  C   UNL     1       2.197  -8.780   3.629  0.00  0.00    +0.014 A 
ATOM     18 BR   UNL     1       2.576 -12.854   2.996  0.00  0.00    -0.050 Br
ENDBRANCH  10  12
ENDBRANCH   2   5
BRANCH   1  19
ATOM     19  C   UNL     1       1.257  -2.155   0.022  0.00  0.00    +0.141 C 
BRANCH  19  24
ATOM     20  C   UNL     1       0.045   1.420   0.089  0.00  0.00    +0.000 A 
ATOM     21  C   UNL     1       1.238   2.120   0.083  0.00  0.00    +0.002 A 
ATOM     22  C   UNL     1       2.439   1.440   0.056  0.00  0.00    +0.026 A 
ATOM     23  C   UNL     1       2.449   0.051   0.037  0.00  0.00    +0.052 A 
ATOM     24  C   UNL     1       1.251  -0.649   0.044  0.00  0.00    -0.007 A 
ATOM     25  C   UNL     1       0.052   0.037   0.070  0.00  0.00    +0.007 A 
BRANCH  23  26
ATOM     26  N   UNL     1       3.668  -0.642   0.010  0.00  0.00    -0.306 N 
ATOM     27  C   UNL     1       4.716  -0.414  -0.843  0.00  0.00    +0.112 A 
ATOM     28  C   UNL     1       5.679  -1.301  -0.524  0.00  0.00    +0.130 A 
ATOM     29  N   UNL     1       5.235  -2.051   0.495  0.00  0.00    -0.244 NA
ATOM     30  C   UNL     1       4.034  -1.663   0.828  0.00  0.00    +0.204 A 
ENDBRANCH  23  26
ENDBRANCH  19  24
ENDBRANCH   1  19
TORSDOF 5
