REMARK  Name = ZINC17115459
REMARK  4 active torsions:
REMARK  status: ('A' for Active; 'I' for Inactive)
REMARK    1  A    between atoms: N_9  and  C_10
REMARK    2  A    between atoms: C_10  and  C_11
REMARK    3  A    between atoms: C_11  and  C_12
REMARK    4  A    between atoms: N_14  and  N_15
REMARK                            x       y       z     vdW  Elec       q    Type
REMARK                         _______ _______ _______ _____ _____    ______ ____
ROOT
ATOM      1  C   UNL     1       6.830   0.037   1.373  0.00  0.00    +0.231 C 
ATOM      2  O   UNL     1       7.432   0.092   0.321  0.00  0.00    -0.274 OA
ATOM      3  N   UNL     1       7.475   0.283   2.531  0.00  0.00    -0.224 N 
ATOM      4  H   UNL     1       6.994   0.239   3.373  0.00  0.00    +0.174 HD
ENDROOT
BRANCH   3   5
ATOM      5  N   UNL     1       8.839   0.603   2.520  0.00  0.00    -0.137 N 
ATOM      6  C   UNL     1       9.820  -0.249   2.882  0.00  0.00    +0.263 C 
ATOM      7  O   UNL     1       9.695  -1.393   3.265  0.00  0.00    -0.271 OA
ATOM      8  C   UNL     1      11.108   0.522   2.710  0.00  0.00    +0.114 C 
ATOM      9  C   UNL     1      12.001  -0.157   1.678  0.00  0.00    +0.035 C 
ATOM     10  C   UNL     1      13.286   0.655   1.496  0.00  0.00    +0.003 C 
ATOM     11  C   UNL     1      14.015   0.760   2.837  0.00  0.00    +0.000 C 
ATOM     12  C   UNL     1      13.116   1.464   3.855  0.00  0.00    +0.003 C 
ATOM     13  C   UNL     1      11.831   0.655   4.046  0.00  0.00    +0.035 C 
ATOM     14  N   UNL     1      10.674   1.839   2.227  0.00  0.00    -0.284 N 
ATOM     15  C   UNL     1       9.330   1.789   2.143  0.00  0.00    +0.326 C 
ATOM     16  O   UNL     1       8.642   2.718   1.769  0.00  0.00    -0.251 OA
ATOM     17  H   UNL     1      11.242   2.595   2.009  0.00  0.00    +0.151 HD
ENDBRANCH   3   5
BRANCH   1  18
ATOM     18  C   UNL     1       5.363  -0.307   1.386  0.00  0.00    +0.119 C 
BRANCH  18  19
ATOM     19  C   UNL     1       4.881  -0.537  -0.048  0.00  0.00    +0.131 C 
BRANCH  19  28
ATOM     20  C   UNL     1      -0.017   1.362   0.009  0.00  0.00    +0.001 A 
ATOM     21  C   UNL     1       1.170   2.083   0.002  0.00  0.00    +0.002 A 
ATOM     22  C   UNL     1       2.386   1.436  -0.013  0.00  0.00    +0.026 A 
ATOM     23  C   UNL     1       2.428   0.046  -0.021  0.00  0.00    +0.049 A 
ATOM     24  C   UNL     1       1.223  -0.681  -0.013  0.00  0.00    -0.000 A 
ATOM     25  C   UNL     1       0.002  -0.004   0.002  0.00  0.00    +0.010 A 
ATOM     26  C   UNL     1       1.604  -2.095  -0.025  0.00  0.00    +0.027 A 
ATOM     27  C   UNL     1       2.945  -2.141  -0.038  0.00  0.00    +0.087 A 
ATOM     28  N   UNL     1       3.455  -0.871  -0.036  0.00  0.00    -0.346 N 
ENDBRANCH  19  28
ENDBRANCH  18  19
ENDBRANCH   1  18
TORSDOF 4
