REMARK  Name = ZINC01111796
REMARK  6 active torsions:
REMARK  status: ('A' for Active; 'I' for Inactive)
REMARK    1  A    between atoms: C_1  and  C_2
REMARK    2  A    between atoms: C_2  and  O_3
REMARK    3  A    between atoms: O_3  and  C_4
REMARK    4  A    between atoms: C_4  and  C_6
REMARK    5  A    between atoms: C_7  and  C_23
REMARK    6  A    between atoms: C_11  and  C_13
REMARK                            x       y       z     vdW  Elec       q    Type
REMARK                         _______ _______ _______ _____ _____    ______ ____
ROOT
ATOM      1  C   UNL     1      -2.846  -2.414  -0.365  0.00  0.00    +0.083 C 
ATOM      2  C   UNL     1      -2.983  -3.744  -0.086  0.00  0.00    +0.052 C 
ATOM      3  N   UNL     1      -4.195  -4.258   0.307  0.00  0.00    -0.296 N 
ATOM      4  C   UNL     1      -5.302  -3.519   0.443  0.00  0.00    +0.135 C 
ATOM      5  N   UNL     1      -5.319  -2.194   0.203  0.00  0.00    -0.315 N 
ATOM      6  C   UNL     1      -4.072  -1.536  -0.219  0.00  0.00    +0.141 C 
ATOM      7  S   UNL     1      -6.750  -4.286   0.941  0.00  0.00    -0.019 S 
ATOM      8  H   UNL     1      -6.137  -1.682   0.309  0.00  0.00    +0.149 HD
ATOM      9  H   UNL     1      -4.251  -5.208   0.496  0.00  0.00    +0.154 HD
ENDROOT
BRANCH   6  10
ATOM     10  C   UNL     1      -3.751  -0.454   0.780  0.00  0.00    -0.019 A 
ATOM     11  C   UNL     1      -3.798  -0.730   2.134  0.00  0.00    +0.009 A 
ATOM     12  C   UNL     1      -3.505   0.259   3.054  0.00  0.00    +0.050 A 
ATOM     13  C   UNL     1      -3.163   1.530   2.621  0.00  0.00    +0.166 A 
ATOM     14  C   UNL     1      -3.115   1.808   1.257  0.00  0.00    +0.167 A 
ATOM     15  C   UNL     1      -3.405   0.810   0.341  0.00  0.00    +0.055 A 
ATOM     16  O   UNL     1      -2.758   3.114   1.090  0.00  0.00    -0.453 OA
ATOM     17  C   UNL     1      -2.985   3.741   2.366  0.00  0.00    +0.466 C 
ATOM     18  O   UNL     1      -2.835   2.663   3.309  0.00  0.00    -0.453 OA
ENDBRANCH   6  10
BRANCH   2  19
ATOM     19  C   UNL     1      -1.815  -4.640  -0.208  0.00  0.00    -0.003 A 
ATOM     20  C   UNL     1      -0.705  -4.463   0.621  0.00  0.00    +0.010 A 
ATOM     21  C   UNL     1       0.382  -5.304   0.501  0.00  0.00    +0.001 A 
ATOM     22  C   UNL     1       0.374  -6.321  -0.437  0.00  0.00    +0.000 A 
ATOM     23  C   UNL     1      -0.722  -6.502  -1.262  0.00  0.00    +0.001 A 
ATOM     24  C   UNL     1      -1.818  -5.672  -1.150  0.00  0.00    +0.010 A 
ENDBRANCH   2  19
BRANCH   1  25
ATOM     25  C   UNL     1      -1.608  -1.877  -0.769  0.00  0.00    +0.339 C 
ATOM     26  O   UNL     1      -0.664  -2.616  -0.982  0.00  0.00    -0.245 OA
BRANCH  25  27
ATOM     27  O   UNL     1      -1.467  -0.543  -0.919  0.00  0.00    -0.462 OA
BRANCH  27  29
ATOM     28  C   UNL     1      -0.218   1.458  -1.446  0.00  0.00    +0.048 C 
ATOM     29  C   UNL     1      -0.184  -0.068  -1.331  0.00  0.00    +0.229 C 
ENDBRANCH  27  29
ENDBRANCH  25  27
ENDBRANCH   1  25
TORSDOF 5
