REMARK  Name = ZINC63162807
REMARK  2 active torsions:
REMARK  status: ('A' for Active; 'I' for Inactive)
REMARK    1  A    between atoms: C_5  and  C_7
REMARK    2  A    between atoms: C_24  and  C_26
REMARK                            x       y       z     vdW  Elec       q    Type
REMARK                         _______ _______ _______ _____ _____    ______ ____
ROOT
ATOM      1  C   UNL     1       1.083  -1.881   0.165  0.00  0.00    +0.218 C 
ATOM      2  C   UNL     1       1.423  -2.513   1.514  0.00  0.00    +0.113 C 
ATOM      3  C   UNL     1       0.447  -1.898   2.505  0.00  0.00    +0.065 C 
ATOM      4  C   UNL     1      -0.958  -1.825   2.088  0.00  0.00    +0.039 A 
ATOM      5  C   UNL     1      -1.982  -1.612   3.009  0.00  0.00    +0.013 A 
ATOM      6  C   UNL     1      -3.288  -1.542   2.571  0.00  0.00    +0.001 A 
ATOM      7  C   UNL     1      -3.579  -1.682   1.224  0.00  0.00    +0.004 A 
ATOM      8  C   UNL     1      -2.573  -1.896   0.303  0.00  0.00    +0.046 A 
ATOM      9  C   UNL     1      -1.252  -1.973   0.720  0.00  0.00    +0.130 A 
ATOM     10  O   UNL     1      -0.267  -2.199  -0.181  0.00  0.00    -0.483 OA
ATOM     11  N   UNL     1       0.880  -1.414   3.621  0.00  0.00    -0.215 NA
ATOM     12  C   UNL     1       2.190  -1.310   3.958  0.00  0.00    +0.249 A 
ATOM     13  N   UNL     1       2.753  -0.865   5.076  0.00  0.00    -0.198 NA
ATOM     14  C   UNL     1       4.076  -0.905   4.966  0.00  0.00    +0.247 A 
ATOM     15  N   UNL     1       4.400  -1.380   3.791  0.00  0.00    -0.156 NA
ATOM     16  N   UNL     1       3.201  -1.670   3.127  0.00  0.00    -0.221 N 
ATOM     17  C   UNL     1       2.912  -2.265   1.814  0.00  0.00    +0.155 C 
ENDROOT
BRANCH  17  18
ATOM     18  C   UNL     1       3.464  -1.353   0.749  0.00  0.00    -0.004 A 
ATOM     19  C   UNL     1       3.610  -1.811  -0.547  0.00  0.00    +0.008 A 
ATOM     20  C   UNL     1       4.116  -0.975  -1.524  0.00  0.00    +0.020 A 
ATOM     21  C   UNL     1       4.476   0.323  -1.205  0.00  0.00    +0.042 A 
ATOM     22  C   UNL     1       4.330   0.782   0.091  0.00  0.00    +0.040 A 
ATOM     23  C   UNL     1       3.819  -0.054   1.068  0.00  0.00    +0.048 A 
ATOM     24 CL   UNL     1       3.630   0.524   2.694  0.00  0.00    -0.083 Cl
ATOM     25 CL   UNL     1       5.112   1.373  -2.432  0.00  0.00    -0.083 Cl
ENDBRANCH  17  18
BRANCH   1  30
ATOM     26  C   UNL     1       1.538   1.592   1.573  0.00  0.00    +0.001 A 
ATOM     27  C   UNL     1       1.528   2.361   0.424  0.00  0.00    +0.003 A 
ATOM     28  C   UNL     1       1.374   1.758  -0.810  0.00  0.00    +0.039 A 
ATOM     29  C   UNL     1       1.230   0.384  -0.895  0.00  0.00    +0.130 A 
ATOM     30  C   UNL     1       1.240  -0.385   0.256  0.00  0.00    +0.029 A 
ATOM     31  C   UNL     1       1.395   0.220   1.489  0.00  0.00    +0.010 A 
ATOM     32  F   UNL     1       1.079  -0.206  -2.101  0.00  0.00    -0.205 F 
ENDBRANCH   1  30
TORSDOF 2
